@<TRIPOS>MOLECULE
*****
 52 57 0 0 0
SMALL
GASTEIGER

@<TRIPOS>ATOM
      1 C         -62.6297  -42.8862  -23.2382 C.ar    1  UNL1        0.0502
      2 C         -62.2012  -44.1174  -22.7228 C.ar    1  UNL1        0.0148
      3 C         -61.9278  -45.1862  -23.5797 C.ar    1  UNL1        0.0080
      4 C         -62.0872  -45.0475  -24.9689 C.ar    1  UNL1        0.0808
      5 C         -62.4985  -43.8041  -25.4882 C.ar    1  UNL1        0.1457
      6 F         -62.5969  -43.6023  -26.8265 F       1  UNL1       -0.2040
      7 C         -62.7686  -42.7362  -24.6268 C.ar    1  UNL1        0.0443
      8 C         -64.3190  -41.4148  -22.0845 C.3     1  UNL1        0.1223
      9 C         -64.4652  -40.9648  -20.6239 C.3     1  UNL1        0.1144
     10 N         -63.4162  -39.9964  -20.2875 N.pl3   1  UNL1       -0.2897
     11 C         -62.0233  -40.3997  -20.5138 C.3     1  UNL1        0.1136
     12 C         -61.8403  -40.8659  -21.9604 C.3     1  UNL1        0.1123
     13 N         -62.9171  -41.7891  -22.3502 N.pl3   1  UNL1       -0.3034
     14 C         -63.7548  -38.7228  -19.7049 C.ar    1  UNL1        0.1318
     15 C         -64.7755  -38.6105  -18.7483 C.ar    1  UNL1        0.0343
     16 C         -65.0779  -37.3600  -18.2071 C.ar    1  UNL1        0.0083
     17 C         -64.3570  -36.2243  -18.6053 C.ar    1  UNL1        0.0906
     18 C         -63.3688  -36.3740  -19.5908 C.ar    1  UNL1        0.1041
     19 N         -63.0930  -37.6017  -20.1043 N.ar    1  UNL1       -0.2292
     20 C         -64.7077  -34.8609  -18.0665 C.3     1  UNL1        0.4200
     21 F         -65.7198  -34.2860  -18.8157 F       1  UNL1       -0.1658
     22 F         -63.5903  -34.0489  -18.1202 F       1  UNL1       -0.1658
     23 F         -65.1377  -34.9507  -16.7540 F       1  UNL1       -0.1658
     24 C         -64.7817  -40.3172  -23.0571 C.3     1  UNL1        0.1636
     25 C         -65.5826  -40.2466  -25.2158 C.3     1  UNL1        0.1742
     26 O         -65.7311  -40.8557  -23.9535 O.3     1  UNL1       -0.3493
     27 C         -61.8002  -46.1978  -25.8553 C.2     1  UNL1        0.2483
     28 O         -60.9809  -47.0795  -25.4771 O.2     1  UNL1       -0.2701
     29 N         -62.4672  -46.3394  -27.1198 N.am    1  UNL1       -0.2945
     30 H         -63.3042  -45.7442  -27.3142 H       1  UNL1        0.1501
     31 C         -62.1403  -47.4190  -28.0544 C.3     1  UNL1        0.1535
     32 C         -63.4026  -47.9274  -28.7025 C.2     1  UNL1        0.2443
     33 O         -63.8352  -49.0707  -28.3937 O.2     1  UNL1       -0.2730
     34 N         -64.1253  -47.1044  -29.6315 N.am    1  UNL1       -0.2825
     35 H         -63.9664  -46.0722  -29.5964 H       1  UNL1        0.1549
     36 C         -65.0718  -47.6106  -30.5890 C.ar    1  UNL1        0.0535
     37 C         -65.2170  -46.9607  -31.8221 C.ar    1  UNL1        0.0353
     38 C         -66.1041  -47.4704  -32.7731 C.ar    1  UNL1        0.1002
     39 N         -66.8100  -48.6016  -32.5101 N.ar    1  UNL1       -0.2422
     40 C         -66.6779  -49.2648  -31.3312 C.ar    1  UNL1        0.1002
     41 C         -65.8051  -48.7867  -30.3511 C.ar    1  UNL1        0.0353
     42 C         -61.1256  -46.9241  -29.1038 C.3     1  UNL1        0.0569
     43 C         -60.9634  -45.4300  -29.0606 C.ar    1  UNL1       -0.0017
     44 C         -59.9832  -44.7269  -28.3668 C.ar    1  UNL1        0.0681
     45 N         -60.0671  -43.4050  -28.6402 N.ar    1  UNL1       -0.3523
     46 C         -61.0854  -43.2683  -29.5071 C.ar    1  UNL1        0.0563
     47 C         -61.5337  -42.0904  -30.1032 C.ar    1  UNL1        0.0170
     48 C         -62.6053  -42.1785  -31.0103 C.ar    1  UNL1        0.0015
     49 C         -63.1991  -43.4272  -31.2970 C.ar    1  UNL1        0.0001
     50 C         -62.7265  -44.5995  -30.6803 C.ar    1  UNL1        0.0012
     51 C         -61.6590  -44.4823  -29.7883 C.ar    1  UNL1        0.0131
     52 H         -59.4496  -42.6496  -28.2681 H       1  UNL1        0.1660
@<TRIPOS>BOND
     1    25    26    1
     2    26    24    1
     3    24     8    1
     4     8     9    1
     5     9    10    1
     6    10    14    1
     7    14    15   ar
     8    15    16   ar
     9    16    17   ar
    10    17    20    1
    11    20    21    1
    12    20    22    1
    13    20    23    1
    14    17    18   ar
    15    18    19   ar
    16    10    11    1
    17    11    12    1
    18    12    13    1
    19    13     1    1
    20     1     2   ar
    21     2     3   ar
    22     3     4   ar
    23     4    27    1
    24    27    28    2
    25    27    29   am
    26    29    31    1
    27    31    42    1
    28    42    43    1
    29    43    44   ar
    30    44    45   ar
    31    45    46   ar
    32    46    47   ar
    33    47    48   ar
    34    48    49   ar
    35    49    50   ar
    36    50    51   ar
    37    31    32    1
    38    32    33    2
    39    32    34   am
    40    34    36    1
    41    36    37   ar
    42    37    38   ar
    43    38    39   ar
    44    39    40   ar
    45    40    41   ar
    46     4     5   ar
    47     5     6    1
    48     5     7   ar
    49    13     8    1
    50     7     1   ar
    51    19    14   ar
    52    51    43   ar
    53    41    36   ar
    54    51    46   ar
    55    29    30    1
    56    45    52    1
    57    34    35    1
@<TRIPOS>MOLECULE
*****
 52 57 0 0 0
SMALL
GASTEIGER

@<TRIPOS>ATOM
      1 C         -62.4644  -42.9050  -22.7394 C.ar    1  UNL1        0.0502
      2 C         -62.3489  -44.1736  -22.1542 C.ar    1  UNL1        0.0148
      3 C         -62.0197  -45.2849  -22.9340 C.ar    1  UNL1        0.0080
      4 C         -61.8093  -45.1507  -24.3168 C.ar    1  UNL1        0.0808
      5 C         -61.9057  -43.8724  -24.9013 C.ar    1  UNL1        0.1457
      6 F         -61.6408  -43.6831  -26.2187 F       1  UNL1       -0.2040
      7 C         -62.2329  -42.7624  -24.1163 C.ar    1  UNL1        0.0443
      8 C         -64.2302  -41.4115  -21.7388 C.3     1  UNL1        0.1223
      9 C         -64.4398  -40.8761  -20.3152 C.3     1  UNL1        0.1144
     10 N         -63.4281  -39.8605  -20.0047 N.pl3   1  UNL1       -0.2897
     11 C         -62.0184  -40.2390  -20.1574 C.3     1  UNL1        0.1136
     12 C         -61.7721  -40.7887  -21.5647 C.3     1  UNL1        0.1123
     13 N         -62.8108  -41.7632  -21.9324 N.pl3   1  UNL1       -0.3034
     14 C         -63.8192  -38.5630  -19.5152 C.ar    1  UNL1        0.1318
     15 C         -64.9013  -38.4154  -18.6339 C.ar    1  UNL1        0.0343
     16 C         -65.2533  -37.1426  -18.1821 C.ar    1  UNL1        0.0083
     17 C         -64.5215  -36.0188  -18.5941 C.ar    1  UNL1        0.0906
     18 C         -63.4695  -36.2058  -19.5042 C.ar    1  UNL1        0.1041
     19 N         -63.1462  -37.4548  -19.9314 N.ar    1  UNL1       -0.2292
     20 C         -64.9228  -34.6341  -18.1539 C.3     1  UNL1        0.4200
     21 F         -63.8614  -33.7550  -18.2819 F       1  UNL1       -0.1658
     22 F         -65.3180  -34.6739  -16.8299 F       1  UNL1       -0.1658
     23 F         -65.9716  -34.1621  -18.9241 F       1  UNL1       -0.1658
     24 C         -64.6851  -40.3892  -22.7938 C.3     1  UNL1        0.1636
     25 C         -64.9891  -40.3432  -25.0766 C.3     1  UNL1        0.1742
     26 O         -65.2430  -41.0718  -23.8972 O.3     1  UNL1       -0.3493
     27 C         -61.4710  -46.3451  -25.1232 C.2     1  UNL1        0.2483
     28 O         -60.3197  -46.8514  -25.0239 O.2     1  UNL1       -0.2701
     29 N         -62.4451  -46.9524  -25.9869 N.am    1  UNL1       -0.2945
     30 H         -63.4479  -46.6763  -25.8834 H       1  UNL1        0.1501
     31 C         -62.1135  -48.0807  -26.8605 C.3     1  UNL1        0.1535
     32 C         -62.2447  -49.3712  -26.0928 C.2     1  UNL1        0.2443
     33 O         -63.2973  -50.0545  -26.2137 O.2     1  UNL1       -0.2730
     34 N         -61.1684  -49.8366  -25.2635 N.am    1  UNL1       -0.2825
     35 H         -60.2094  -49.4681  -25.4549 H       1  UNL1        0.1549
     36 C         -61.3250  -50.7962  -24.2036 C.ar    1  UNL1        0.0535
     37 C         -60.1974  -51.4671  -23.7113 C.ar    1  UNL1        0.0353
     38 C         -60.3357  -52.3699  -22.6543 C.ar    1  UNL1        0.1002
     39 N         -61.5557  -52.5831  -22.0947 N.ar    1  UNL1       -0.2422
     40 C         -62.6649  -51.9345  -22.5376 C.ar    1  UNL1        0.1002
     41 C         -62.5716  -51.0270  -23.5952 C.ar    1  UNL1        0.0353
     42 C         -63.0184  -48.0704  -28.1081 C.3     1  UNL1        0.0569
     43 C         -63.2415  -46.6756  -28.6231 C.ar    1  UNL1       -0.0017
     44 C         -64.4708  -46.0448  -28.7890 C.ar    1  UNL1        0.0681
     45 N         -64.2945  -44.7577  -29.1650 N.ar    1  UNL1       -0.3523
     46 C         -62.9652  -44.5677  -29.2293 C.ar    1  UNL1        0.0563
     47 C         -62.2962  -43.3858  -29.5444 C.ar    1  UNL1        0.0170
     48 C         -60.8896  -43.4007  -29.5253 C.ar    1  UNL1        0.0015
     49 C         -60.1912  -44.5833  -29.1968 C.ar    1  UNL1        0.0001
     50 C         -60.8924  -45.7615  -28.8835 C.ar    1  UNL1        0.0012
     51 C         -62.2875  -45.7157  -28.9061 C.ar    1  UNL1        0.0131
     52 H         -65.0423  -44.0517  -29.3461 H       1  UNL1        0.1660
@<TRIPOS>BOND
     1    25    26    1
     2    26    24    1
     3    24     8    1
     4     8     9    1
     5     9    10    1
     6    10    14    1
     7    14    15   ar
     8    15    16   ar
     9    16    17   ar
    10    17    20    1
    11    20    21    1
    12    20    22    1
    13    20    23    1
    14    17    18   ar
    15    18    19   ar
    16    10    11    1
    17    11    12    1
    18    12    13    1
    19    13     1    1
    20     1     2   ar
    21     2     3   ar
    22     3     4   ar
    23     4    27    1
    24    27    28    2
    25    27    29   am
    26    29    31    1
    27    31    42    1
    28    42    43    1
    29    43    44   ar
    30    44    45   ar
    31    45    46   ar
    32    46    47   ar
    33    47    48   ar
    34    48    49   ar
    35    49    50   ar
    36    50    51   ar
    37    31    32    1
    38    32    33    2
    39    32    34   am
    40    34    36    1
    41    36    37   ar
    42    37    38   ar
    43    38    39   ar
    44    39    40   ar
    45    40    41   ar
    46     4     5   ar
    47     5     6    1
    48     5     7   ar
    49    13     8    1
    50     7     1   ar
    51    19    14   ar
    52    51    43   ar
    53    41    36   ar
    54    51    46   ar
    55    29    30    1
    56    45    52    1
    57    34    35    1
@<TRIPOS>MOLECULE
*****
 52 57 0 0 0
SMALL
GASTEIGER

@<TRIPOS>ATOM
      1 C         -62.7504  -42.5266  -23.4500 C.ar    1  UNL1        0.0502
      2 C         -62.3619  -43.7894  -22.9813 C.ar    1  UNL1        0.0148
      3 C         -62.1106  -44.8302  -23.8784 C.ar    1  UNL1        0.0080
      4 C         -62.2525  -44.6311  -25.2622 C.ar    1  UNL1        0.0808
      5 C         -62.6234  -43.3565  -25.7342 C.ar    1  UNL1        0.1457
      6 F         -62.7030  -43.0982  -27.0640 F       1  UNL1       -0.2040
      7 C         -62.8714  -42.3168  -24.8325 C.ar    1  UNL1        0.0443
      8 C         -64.3875  -41.2505  -22.0215 C.3     1  UNL1        0.1223
      9 C         -64.3404  -40.7990  -20.5547 C.3     1  UNL1        0.1144
     10 N         -63.3743  -39.7070  -20.3944 N.pl3   1  UNL1       -0.2897
     11 C         -62.0007  -39.9442  -20.8535 C.3     1  UNL1        0.1136
     12 C         -62.0075  -40.4072  -22.3126 C.3     1  UNL1        0.1123
     13 N         -63.0152  -41.4583  -22.5208 N.pl3   1  UNL1       -0.3034
     14 C         -63.7617  -38.4744  -19.7567 C.ar    1  UNL1        0.1318
     15 C         -64.8587  -38.4224  -18.8831 C.ar    1  UNL1        0.0343
     16 C         -65.2065  -37.2102  -18.2851 C.ar    1  UNL1        0.0083
     17 C         -64.4559  -36.0535  -18.5435 C.ar    1  UNL1        0.0906
     18 C         -63.3887  -36.1407  -19.4510 C.ar    1  UNL1        0.1041
     19 N         -63.0698  -37.3319  -20.0222 N.ar    1  UNL1       -0.2292
     20 C         -64.8516  -34.7282  -17.9443 C.3     1  UNL1        0.4200
     21 F         -65.9892  -34.2350  -18.5596 F       1  UNL1       -0.1658
     22 F         -63.8193  -33.8249  -18.1149 F       1  UNL1       -0.1658
     23 F         -65.1144  -34.8632  -16.5921 F       1  UNL1       -0.1658
     24 C         -65.1353  -40.2310  -22.8970 C.3     1  UNL1        0.1636
     25 C         -65.9356  -40.0773  -25.0515 C.3     1  UNL1        0.1742
     26 O         -65.8282  -40.9128  -23.9215 O.3     1  UNL1       -0.3493
     27 C         -61.9897  -45.7525  -26.1920 C.2     1  UNL1        0.2483
     28 O         -60.8559  -46.3060  -26.1871 O.2     1  UNL1       -0.2701
     29 N         -63.0169  -46.2387  -27.0708 N.am    1  UNL1       -0.2945
     30 H         -64.0039  -45.9391  -26.9019 H       1  UNL1        0.1501
     31 C         -62.7606  -47.2876  -28.0608 C.3     1  UNL1        0.1535
     32 C         -62.7845  -48.6360  -27.3877 C.2     1  UNL1        0.2443
     33 O         -63.2734  -49.6220  -28.0030 O.2     1  UNL1       -0.2730
     34 N         -62.2224  -48.8045  -26.0769 N.am    1  UNL1       -0.2825
     35 H         -61.5244  -48.0988  -25.7500 H       1  UNL1        0.1549
     36 C         -62.5420  -49.8969  -25.1976 C.ar    1  UNL1        0.0535
     37 C         -61.5925  -50.3258  -24.2604 C.ar    1  UNL1        0.0353
     38 C         -61.9107  -51.3587  -23.3755 C.ar    1  UNL1        0.1002
     39 N         -63.1419  -51.9329  -23.4119 N.ar    1  UNL1       -0.2422
     40 C         -64.0904  -51.5271  -24.2966 C.ar    1  UNL1        0.1002
     41 C         -63.8121  -50.5006  -25.2020 C.ar    1  UNL1        0.0353
     42 C         -63.7948  -47.2062  -29.2008 C.3     1  UNL1        0.0569
     43 C         -64.1396  -45.7825  -29.5396 C.ar    1  UNL1       -0.0017
     44 C         -65.3692  -45.1622  -29.3395 C.ar    1  UNL1        0.0681
     45 N         -65.2927  -43.8491  -29.6542 N.ar    1  UNL1       -0.3523
     46 C         -64.0240  -43.6329  -30.0424 C.ar    1  UNL1        0.0563
     47 C         -63.4557  -42.4208  -30.4320 C.ar    1  UNL1        0.0170
     48 C         -62.0913  -42.4137  -30.7744 C.ar    1  UNL1        0.0015
     49 C         -61.3343  -43.6046  -30.7217 C.ar    1  UNL1        0.0001
     50 C         -61.9340  -44.8135  -30.3254 C.ar    1  UNL1        0.0012
     51 C         -63.2883  -44.7894  -29.9870 C.ar    1  UNL1        0.0131
     52 H         -66.0606  -43.1447  -29.5866 H       1  UNL1        0.1660
@<TRIPOS>BOND
     1    25    26    1
     2    26    24    1
     3    24     8    1
     4     8     9    1
     5     9    10    1
     6    10    14    1
     7    14    15   ar
     8    15    16   ar
     9    16    17   ar
    10    17    20    1
    11    20    21    1
    12    20    22    1
    13    20    23    1
    14    17    18   ar
    15    18    19   ar
    16    10    11    1
    17    11    12    1
    18    12    13    1
    19    13     1    1
    20     1     2   ar
    21     2     3   ar
    22     3     4   ar
    23     4    27    1
    24    27    28    2
    25    27    29   am
    26    29    31    1
    27    31    42    1
    28    42    43    1
    29    43    44   ar
    30    44    45   ar
    31    45    46   ar
    32    46    47   ar
    33    47    48   ar
    34    48    49   ar
    35    49    50   ar
    36    50    51   ar
    37    31    32    1
    38    32    33    2
    39    32    34   am
    40    34    36    1
    41    36    37   ar
    42    37    38   ar
    43    38    39   ar
    44    39    40   ar
    45    40    41   ar
    46     4     5   ar
    47     5     6    1
    48     5     7   ar
    49    13     8    1
    50     7     1   ar
    51    19    14   ar
    52    51    43   ar
    53    41    36   ar
    54    51    46   ar
    55    29    30    1
    56    45    52    1
    57    34    35    1
@<TRIPOS>MOLECULE
*****
 52 57 0 0 0
SMALL
GASTEIGER

@<TRIPOS>ATOM
      1 C         -62.5932  -42.9986  -22.7920 C.ar    1  UNL1        0.0502
      2 C         -62.5983  -44.2818  -22.2276 C.ar    1  UNL1        0.0148
      3 C         -62.3035  -45.4001  -23.0109 C.ar    1  UNL1        0.0080
      4 C         -62.0073  -45.2579  -24.3772 C.ar    1  UNL1        0.0808
      5 C         -61.9825  -43.9665  -24.9396 C.ar    1  UNL1        0.1457
      6 F         -61.6320  -43.7742  -26.2365 F       1  UNL1       -0.2040
      7 C         -62.2757  -42.8495  -24.1510 C.ar    1  UNL1        0.0443
      8 C         -64.3144  -41.4920  -21.7350 C.3     1  UNL1        0.1223
      9 C         -64.4659  -40.9438  -20.3088 C.3     1  UNL1        0.1144
     10 N         -63.4404  -39.9282  -20.0477 N.pl3   1  UNL1       -0.2897
     11 C         -62.0387  -40.3116  -20.2532 C.3     1  UNL1        0.1136
     12 C         -61.8499  -40.8741  -21.6643 C.3     1  UNL1        0.1123
     13 N         -62.9046  -41.8490  -21.9819 N.pl3   1  UNL1       -0.3034
     14 C         -63.8088  -38.6255  -19.5544 C.ar    1  UNL1        0.1318
     15 C         -64.8714  -38.4648  -18.6519 C.ar    1  UNL1        0.0343
     16 C         -65.2017  -37.1873  -18.1969 C.ar    1  UNL1        0.0083
     17 C         -64.4673  -36.0719  -18.6269 C.ar    1  UNL1        0.0906
     18 C         -63.4357  -36.2718  -19.5574 C.ar    1  UNL1        0.1041
     19 N         -63.1334  -37.5252  -19.9873 N.ar    1  UNL1       -0.2292
     20 C         -64.8460  -34.6821  -18.1829 C.3     1  UNL1        0.4200
     21 F         -65.8296  -34.1588  -19.0043 F       1  UNL1       -0.1658
     22 F         -63.7313  -33.8667  -18.2388 F       1  UNL1       -0.1658
     23 F         -65.3286  -34.6988  -16.8858 F       1  UNL1       -0.1658
     24 C         -64.8087  -40.4776  -22.7798 C.3     1  UNL1        0.1636
     25 C         -65.0149  -40.3682  -25.0714 C.3     1  UNL1        0.1742
     26 O         -65.2430  -41.1674  -23.9332 O.3     1  UNL1       -0.3493
     27 C         -61.7076  -46.4594  -25.1883 C.2     1  UNL1        0.2483
     28 O         -60.5656  -46.9896  -25.1079 O.2     1  UNL1       -0.2701
     29 N         -62.7086  -47.0466  -26.0351 N.am    1  UNL1       -0.2945
     30 H         -63.7035  -46.7496  -25.9149 H       1  UNL1        0.1501
     31 C         -62.4153  -48.1818  -26.9133 C.3     1  UNL1        0.1535
     32 C         -62.3915  -49.4541  -26.1054 C.2     1  UNL1        0.2443
     33 O         -63.3556  -50.2611  -26.2002 O.2     1  UNL1       -0.2730
     34 N         -61.2667  -49.7622  -25.2671 N.am    1  UNL1       -0.2825
     35 H         -60.3585  -49.2887  -25.4743 H       1  UNL1        0.1549
     36 C         -61.3071  -50.7000  -24.1773 C.ar    1  UNL1        0.0535
     37 C         -62.5410  -51.0343  -23.6030 C.ar    1  UNL1        0.0353
     38 C         -62.5925  -51.9752  -22.5720 C.ar    1  UNL1        0.1002
     39 N         -61.4529  -52.5766  -22.1400 N.ar    1  UNL1       -0.2422
     40 C         -60.2437  -52.2875  -22.6888 C.ar    1  UNL1        0.1002
     41 C         -60.1470  -51.3492  -23.7189 C.ar    1  UNL1        0.0353
     42 C         -63.4517  -48.2543  -28.0518 C.3     1  UNL1        0.0569
     43 C         -63.6195  -46.9270  -28.7378 C.ar    1  UNL1       -0.0017
     44 C         -63.0173  -45.7273  -28.3705 C.ar    1  UNL1        0.0681
     45 N         -63.3007  -44.7607  -29.2731 N.ar    1  UNL1       -0.3523
     46 C         -64.0689  -45.3413  -30.2112 C.ar    1  UNL1        0.0563
     47 C         -64.5840  -44.7504  -31.3641 C.ar    1  UNL1        0.0170
     48 C         -65.3455  -45.5545  -32.2316 C.ar    1  UNL1        0.0015
     49 C         -65.5738  -46.9151  -31.9302 C.ar    1  UNL1        0.0001
     50 C         -65.0421  -47.4847  -30.7593 C.ar    1  UNL1        0.0012
     51 C         -64.2867  -46.6639  -29.9198 C.ar    1  UNL1        0.0131
     52 H         -62.9696  -43.7706  -29.2529 H       1  UNL1        0.1660
@<TRIPOS>BOND
     1    25    26    1
     2    26    24    1
     3    24     8    1
     4     8     9    1
     5     9    10    1
     6    10    14    1
     7    14    15   ar
     8    15    16   ar
     9    16    17   ar
    10    17    20    1
    11    20    21    1
    12    20    22    1
    13    20    23    1
    14    17    18   ar
    15    18    19   ar
    16    10    11    1
    17    11    12    1
    18    12    13    1
    19    13     1    1
    20     1     2   ar
    21     2     3   ar
    22     3     4   ar
    23     4    27    1
    24    27    28    2
    25    27    29   am
    26    29    31    1
    27    31    42    1
    28    42    43    1
    29    43    44   ar
    30    44    45   ar
    31    45    46   ar
    32    46    47   ar
    33    47    48   ar
    34    48    49   ar
    35    49    50   ar
    36    50    51   ar
    37    31    32    1
    38    32    33    2
    39    32    34   am
    40    34    36    1
    41    36    37   ar
    42    37    38   ar
    43    38    39   ar
    44    39    40   ar
    45    40    41   ar
    46     4     5   ar
    47     5     6    1
    48     5     7   ar
    49    13     8    1
    50     7     1   ar
    51    19    14   ar
    52    51    43   ar
    53    41    36   ar
    54    51    46   ar
    55    29    30    1
    56    45    52    1
    57    34    35    1
@<TRIPOS>MOLECULE
*****
 52 57 0 0 0
SMALL
GASTEIGER

@<TRIPOS>ATOM
      1 C         -63.0879  -50.1550  -24.7613 C.ar    1  UNL1        0.0502
      2 C         -62.5067  -50.4501  -23.5203 C.ar    1  UNL1        0.0148
      3 C         -62.8040  -51.6486  -22.8672 C.ar    1  UNL1        0.0080
      4 C         -63.6966  -52.5716  -23.4382 C.ar    1  UNL1        0.0808
      5 C         -64.2650  -52.2839  -24.6947 C.ar    1  UNL1        0.1457
      6 F         -65.0757  -53.1765  -25.3173 F       1  UNL1       -0.2040
      7 C         -63.9625  -51.0841  -25.3461 C.ar    1  UNL1        0.0443
      8 C         -61.8470  -47.9623  -24.8024 C.3     1  UNL1        0.1223
      9 C         -61.0085  -47.2741  -25.8889 C.3     1  UNL1        0.1144
     10 N         -61.8795  -46.7826  -26.9618 N.pl3   1  UNL1       -0.2897
     11 C         -62.7735  -47.7514  -27.6068 C.3     1  UNL1        0.1136
     12 C         -63.6206  -48.4672  -26.5516 C.3     1  UNL1        0.1123
     13 N         -62.7838  -48.9148  -25.4278 N.pl3   1  UNL1       -0.3034
     14 C         -61.8073  -45.4095  -27.3925 C.ar    1  UNL1        0.1318
     15 C         -62.9369  -44.5775  -27.3583 C.ar    1  UNL1        0.0343
     16 C         -62.8303  -43.2530  -27.7856 C.ar    1  UNL1        0.0083
     17 C         -61.5988  -42.7515  -28.2329 C.ar    1  UNL1        0.0906
     18 C         -60.5026  -43.6264  -28.2853 C.ar    1  UNL1        0.1041
     19 N         -60.6309  -44.9125  -27.8652 N.ar    1  UNL1       -0.2292
     20 C         -61.4823  -41.3385  -28.7447 C.3     1  UNL1        0.4200
     21 F         -60.3007  -40.7599  -28.3146 F       1  UNL1       -0.1658
     22 F         -62.5468  -40.5939  -28.2722 F       1  UNL1       -0.1658
     23 F         -61.4961  -41.3181  -30.1286 F       1  UNL1       -0.1658
     24 C         -62.6075  -46.9347  -23.9476 C.3     1  UNL1        0.1636
     25 C         -62.0285  -45.2177  -22.5254 C.3     1  UNL1        0.1742
     26 O         -61.8208  -45.7704  -23.8052 O.3     1  UNL1       -0.3493
     27 C         -64.0028  -53.8303  -22.7219 C.2     1  UNL1        0.2483
     28 O         -63.0545  -54.5403  -22.2878 O.2     1  UNL1       -0.2701
     29 N         -65.3614  -54.2330  -22.4855 N.am    1  UNL1       -0.2945
     30 H         -66.1242  -53.5339  -22.6337 H       1  UNL1        0.1501
     31 C         -65.6944  -55.5137  -21.8571 C.3     1  UNL1        0.1535
     32 C         -66.6041  -55.2782  -20.6785 C.2     1  UNL1        0.2443
     33 O         -66.4376  -55.9555  -19.6281 O.2     1  UNL1       -0.2730
     34 N         -67.6233  -54.2681  -20.7370 N.am    1  UNL1       -0.2825
     35 H         -67.5128  -53.5025  -21.4396 H       1  UNL1        0.1549
     36 C         -68.7722  -54.2318  -19.8724 C.ar    1  UNL1        0.0535
     37 C         -69.9188  -53.5375  -20.2811 C.ar    1  UNL1        0.0353
     38 C         -71.0526  -53.5324  -19.4653 C.ar    1  UNL1        0.1002
     39 N         -71.0493  -54.2127  -18.2887 N.ar    1  UNL1       -0.2422
     40 C         -69.9595  -54.9104  -17.8733 C.ar    1  UNL1        0.1002
     41 C         -68.8035  -54.9379  -18.6567 C.ar    1  UNL1        0.0353
     42 C         -66.3391  -56.4599  -22.8889 C.3     1  UNL1        0.0569
     43 C         -67.4164  -55.7711  -23.6797 C.ar    1  UNL1       -0.0017
     44 C         -67.2363  -55.0161  -24.8348 C.ar    1  UNL1        0.0681
     45 N         -68.4312  -54.6392  -25.3440 N.ar    1  UNL1       -0.3523
     46 C         -69.3641  -55.1568  -24.5261 C.ar    1  UNL1        0.0563
     47 C         -70.7487  -55.0637  -24.6598 C.ar    1  UNL1        0.0170
     48 C         -71.5475  -55.7093  -23.6985 C.ar    1  UNL1        0.0015
     49 C         -70.9514  -56.4241  -22.6365 C.ar    1  UNL1        0.0001
     50 C         -69.5514  -56.5010  -22.5262 C.ar    1  UNL1        0.0012
     51 C         -68.7844  -55.8545  -23.4971 C.ar    1  UNL1        0.0131
     52 H         -68.5924  -54.0782  -26.2099 H       1  UNL1        0.1660
@<TRIPOS>BOND
     1    25    26    1
     2    26    24    1
     3    24     8    1
     4     8     9    1
     5     9    10    1
     6    10    14    1
     7    14    15   ar
     8    15    16   ar
     9    16    17   ar
    10    17    20    1
    11    20    21    1
    12    20    22    1
    13    20    23    1
    14    17    18   ar
    15    18    19   ar
    16    10    11    1
    17    11    12    1
    18    12    13    1
    19    13     1    1
    20     1     2   ar
    21     2     3   ar
    22     3     4   ar
    23     4    27    1
    24    27    28    2
    25    27    29   am
    26    29    31    1
    27    31    42    1
    28    42    43    1
    29    43    44   ar
    30    44    45   ar
    31    45    46   ar
    32    46    47   ar
    33    47    48   ar
    34    48    49   ar
    35    49    50   ar
    36    50    51   ar
    37    31    32    1
    38    32    33    2
    39    32    34   am
    40    34    36    1
    41    36    37   ar
    42    37    38   ar
    43    38    39   ar
    44    39    40   ar
    45    40    41   ar
    46     4     5   ar
    47     5     6    1
    48     5     7   ar
    49    13     8    1
    50     7     1   ar
    51    19    14   ar
    52    51    43   ar
    53    41    36   ar
    54    51    46   ar
    55    29    30    1
    56    45    52    1
    57    34    35    1
@<TRIPOS>MOLECULE
*****
 52 57 0 0 0
SMALL
GASTEIGER

@<TRIPOS>ATOM
      1 C         -62.4705  -42.8988  -22.6903 C.ar    1  UNL1        0.0502
      2 C         -62.4762  -42.8457  -24.0911 C.ar    1  UNL1        0.0148
      3 C         -62.1604  -43.9798  -24.8431 C.ar    1  UNL1        0.0080
      4 C         -61.8229  -45.1872  -24.2084 C.ar    1  UNL1        0.0808
      5 C         -61.8368  -45.2458  -22.8008 C.ar    1  UNL1        0.1457
      6 F         -61.5879  -46.4080  -22.1459 F       1  UNL1       -0.2040
      7 C         -62.1562  -44.1087  -22.0522 C.ar    1  UNL1        0.0443
      8 C         -64.0568  -41.6712  -21.1651 C.3     1  UNL1        0.1223
      9 C         -63.8399  -40.9184  -19.8446 C.3     1  UNL1        0.1144
     10 N         -63.1301  -39.6591  -20.0932 N.pl3   1  UNL1       -0.2897
     11 C         -61.8482  -39.7323  -20.8039 C.3     1  UNL1        0.1136
     12 C         -62.0224  -40.4871  -22.1242 C.3     1  UNL1        0.1123
     13 N         -62.7901  -41.7250  -21.9191 N.pl3   1  UNL1       -0.3034
     14 C         -63.6579  -38.4117  -19.6017 C.ar    1  UNL1        0.1318
     15 C         -64.7889  -38.3787  -18.7714 C.ar    1  UNL1        0.0343
     16 C         -65.2738  -37.1517  -18.3161 C.ar    1  UNL1        0.0083
     17 C         -64.6268  -35.9593  -18.6735 C.ar    1  UNL1        0.0906
     18 C         -63.5209  -36.0336  -19.5346 C.ar    1  UNL1        0.1041
     19 N         -63.0678  -37.2399  -19.9664 N.ar    1  UNL1       -0.2292
     20 C         -65.1702  -34.6249  -18.2303 C.3     1  UNL1        0.4200
     21 F         -65.5678  -34.6760  -16.9055 F       1  UNL1       -0.1658
     22 F         -66.2587  -34.2932  -19.0151 F       1  UNL1       -0.1658
     23 F         -64.2063  -33.6396  -18.3557 F       1  UNL1       -0.1658
     24 C         -65.1631  -41.0151  -22.0081 C.3     1  UNL1        0.1636
     25 C         -67.1270  -39.8145  -21.9192 C.3     1  UNL1        0.1742
     26 O         -66.1440  -40.4700  -21.1506 O.3     1  UNL1       -0.3493
     27 C         -61.4827  -46.3725  -25.0273 C.2     1  UNL1        0.2483
     28 O         -60.3256  -46.8684  -24.9451 O.2     1  UNL1       -0.2701
     29 N         -62.4611  -46.9830  -25.8840 N.am    1  UNL1       -0.2945
     30 H         -63.4652  -46.7173  -25.7667 H       1  UNL1        0.1501
     31 C         -62.1291  -48.1017  -26.7695 C.3     1  UNL1        0.1535
     32 C         -62.2057  -49.3960  -26.0009 C.2     1  UNL1        0.2443
     33 O         -63.2207  -50.1319  -26.1350 O.2     1  UNL1       -0.2730
     34 N         -61.1190  -49.8052  -25.1558 N.am    1  UNL1       -0.2825
     35 H         -60.1773  -49.3891  -25.3346 H       1  UNL1        0.1549
     36 C         -61.2417  -50.7700  -24.0960 C.ar    1  UNL1        0.0535
     37 C         -62.5015  -51.0181  -23.5345 C.ar    1  UNL1        0.0353
     38 C         -62.6353  -51.9833  -22.5336 C.ar    1  UNL1        0.1002
     39 N         -61.5514  -52.6906  -22.1189 N.ar    1  UNL1       -0.2422
     40 C         -60.3201  -52.4861  -22.6565 C.ar    1  UNL1        0.1002
     41 C         -60.1415  -51.5274  -23.6565 C.ar    1  UNL1        0.0353
     42 C         -63.0715  -48.1116  -27.9891 C.3     1  UNL1        0.0569
     43 C         -63.1873  -46.7494  -28.6149 C.ar    1  UNL1       -0.0017
     44 C         -64.3686  -46.0822  -28.9247 C.ar    1  UNL1        0.0681
     45 N         -64.1029  -44.8338  -29.3717 N.ar    1  UNL1       -0.3523
     46 C         -62.7653  -44.7037  -29.3386 C.ar    1  UNL1        0.0563
     47 C         -62.0186  -43.5760  -29.6772 C.ar    1  UNL1        0.0170
     48 C         -60.6203  -43.6473  -29.5407 C.ar    1  UNL1        0.0015
     49 C         -60.0064  -44.8308  -29.0756 C.ar    1  UNL1        0.0001
     50 C         -60.7847  -45.9537  -28.7416 C.ar    1  UNL1        0.0012
     51 C         -62.1700  -45.8523  -28.8827 C.ar    1  UNL1        0.0131
     52 H         -64.8000  -44.1125  -29.6620 H       1  UNL1        0.1660
@<TRIPOS>BOND
     1    25    26    1
     2    26    24    1
     3    24     8    1
     4     8     9    1
     5     9    10    1
     6    10    14    1
     7    14    15   ar
     8    15    16   ar
     9    16    17   ar
    10    17    20    1
    11    20    21    1
    12    20    22    1
    13    20    23    1
    14    17    18   ar
    15    18    19   ar
    16    10    11    1
    17    11    12    1
    18    12    13    1
    19    13     1    1
    20     1     2   ar
    21     2     3   ar
    22     3     4   ar
    23     4    27    1
    24    27    28    2
    25    27    29   am
    26    29    31    1
    27    31    42    1
    28    42    43    1
    29    43    44   ar
    30    44    45   ar
    31    45    46   ar
    32    46    47   ar
    33    47    48   ar
    34    48    49   ar
    35    49    50   ar
    36    50    51   ar
    37    31    32    1
    38    32    33    2
    39    32    34   am
    40    34    36    1
    41    36    37   ar
    42    37    38   ar
    43    38    39   ar
    44    39    40   ar
    45    40    41   ar
    46     4     5   ar
    47     5     6    1
    48     5     7   ar
    49    13     8    1
    50     7     1   ar
    51    19    14   ar
    52    51    43   ar
    53    41    36   ar
    54    51    46   ar
    55    29    30    1
    56    45    52    1
    57    34    35    1
@<TRIPOS>MOLECULE
*****
 52 57 0 0 0
SMALL
GASTEIGER

@<TRIPOS>ATOM
      1 C         -61.8131  -43.2589  -24.8747 C.ar    1  UNL1        0.0502
      2 C         -61.4429  -44.2115  -23.9153 C.ar    1  UNL1        0.0148
      3 C         -61.7962  -44.0394  -22.5748 C.ar    1  UNL1        0.0080
      4 C         -62.5184  -42.9055  -22.1658 C.ar    1  UNL1        0.0808
      5 C         -62.9077  -41.9583  -23.1333 C.ar    1  UNL1        0.1457
      6 F         -63.6670  -40.8851  -22.7967 F       1  UNL1       -0.2040
      7 C         -62.5541  -42.1361  -24.4745 C.ar    1  UNL1        0.0443
      8 C         -60.6829  -42.3782  -26.9475 C.3     1  UNL1        0.1223
      9 C         -59.6823  -43.0135  -27.9235 C.3     1  UNL1        0.1144
     10 N         -60.3521  -44.0308  -28.7407 N.pl3   1  UNL1       -0.2897
     11 C         -61.0634  -45.1049  -28.0376 C.3     1  UNL1        0.1136
     12 C         -62.0653  -44.5089  -27.0454 C.3     1  UNL1        0.1123
     13 N         -61.4406  -43.4373  -26.2547 N.pl3   1  UNL1       -0.3034
     14 C         -60.2579  -43.9940  -30.1780 C.ar    1  UNL1        0.1318
     15 C         -59.1894  -44.6057  -30.8515 C.ar    1  UNL1        0.0343
     16 C         -59.1294  -44.5479  -32.2447 C.ar    1  UNL1        0.0083
     17 C         -60.1382  -43.8953  -32.9692 C.ar    1  UNL1        0.0906
     18 C         -61.1699  -43.2657  -32.2556 C.ar    1  UNL1        0.1041
     19 N         -61.2063  -43.3342  -30.8988 N.ar    1  UNL1       -0.2292
     20 C         -60.0586  -43.7819  -34.4701 C.3     1  UNL1        0.4200
     21 F         -59.4900  -44.9199  -35.0157 F       1  UNL1       -0.1658
     22 F         -59.2838  -42.6868  -34.8035 F       1  UNL1       -0.1658
     23 F         -61.3210  -43.6244  -35.0152 F       1  UNL1       -0.1658
     24 C         -61.6365  -41.4140  -27.6727 C.3     1  UNL1        0.1636
     25 C         -61.9304  -40.2014  -29.6091 C.3     1  UNL1        0.1742
     26 O         -60.9903  -40.8847  -28.8116 O.3     1  UNL1       -0.3493
     27 C         -62.8725  -42.7411  -20.7379 C.2     1  UNL1        0.2483
     28 O         -62.8435  -43.7455  -19.9749 O.2     1  UNL1       -0.2701
     29 N         -63.2127  -41.4508  -20.2058 N.am    1  UNL1       -0.2945
     30 H         -63.0049  -40.6018  -20.7790 H       1  UNL1        0.1501
     31 C         -63.6506  -41.2726  -18.8193 C.3     1  UNL1        0.1535
     32 C         -63.7620  -39.8019  -18.5084 C.2     1  UNL1        0.2443
     33 O         -64.2466  -39.4423  -17.4014 O.2     1  UNL1       -0.2730
     34 N         -63.2866  -38.8227  -19.4452 N.am    1  UNL1       -0.2825
     35 H         -62.5856  -39.1277  -20.1576 H       1  UNL1        0.1549
     36 C         -63.6965  -37.4440  -19.4471 C.ar    1  UNL1        0.0535
     37 C         -65.0394  -37.1255  -19.2040 C.ar    1  UNL1        0.0353
     38 C         -65.4371  -35.7871  -19.1634 C.ar    1  UNL1        0.1002
     39 N         -64.5221  -34.7981  -19.3414 N.ar    1  UNL1       -0.2422
     40 C         -63.2096  -35.0740  -19.5609 C.ar    1  UNL1        0.1002
     41 C         -62.7705  -36.3989  -19.6136 C.ar    1  UNL1        0.0353
     42 C         -64.9880  -42.0027  -18.5866 C.3     1  UNL1        0.0569
     43 C         -65.6997  -42.2874  -19.8800 C.ar    1  UNL1       -0.0017
     44 C         -66.1150  -43.5353  -20.3351 C.ar    1  UNL1        0.0681
     45 N         -66.8210  -43.4090  -21.4817 N.ar    1  UNL1       -0.3523
     46 C         -66.8628  -42.0924  -21.7498 C.ar    1  UNL1        0.0563
     47 C         -67.5090  -41.4686  -22.8162 C.ar    1  UNL1        0.0170
     48 C         -67.4495  -40.0651  -22.8916 C.ar    1  UNL1        0.0015
     49 C         -66.7523  -39.3250  -21.9116 C.ar    1  UNL1        0.0001
     50 C         -66.1090  -39.9810  -20.8467 C.ar    1  UNL1        0.0012
     51 C         -66.1889  -41.3739  -20.7952 C.ar    1  UNL1        0.0131
     52 H         -67.2614  -44.1793  -22.0322 H       1  UNL1        0.1660
@<TRIPOS>BOND
     1    25    26    1
     2    26    24    1
     3    24     8    1
     4     8     9    1
     5     9    10    1
     6    10    14    1
     7    14    15   ar
     8    15    16   ar
     9    16    17   ar
    10    17    20    1
    11    20    21    1
    12    20    22    1
    13    20    23    1
    14    17    18   ar
    15    18    19   ar
    16    10    11    1
    17    11    12    1
    18    12    13    1
    19    13     1    1
    20     1     2   ar
    21     2     3   ar
    22     3     4   ar
    23     4    27    1
    24    27    28    2
    25    27    29   am
    26    29    31    1
    27    31    42    1
    28    42    43    1
    29    43    44   ar
    30    44    45   ar
    31    45    46   ar
    32    46    47   ar
    33    47    48   ar
    34    48    49   ar
    35    49    50   ar
    36    50    51   ar
    37    31    32    1
    38    32    33    2
    39    32    34   am
    40    34    36    1
    41    36    37   ar
    42    37    38   ar
    43    38    39   ar
    44    39    40   ar
    45    40    41   ar
    46     4     5   ar
    47     5     6    1
    48     5     7   ar
    49    13     8    1
    50     7     1   ar
    51    19    14   ar
    52    51    43   ar
    53    41    36   ar
    54    51    46   ar
    55    29    30    1
    56    45    52    1
    57    34    35    1
@<TRIPOS>MOLECULE
*****
 52 57 0 0 0
SMALL
GASTEIGER

@<TRIPOS>ATOM
      1 C         -62.6087  -42.6549  -23.2224 C.ar    1  UNL1        0.0502
      2 C         -62.1756  -43.8837  -22.7050 C.ar    1  UNL1        0.0148
      3 C         -61.8989  -44.9531  -23.5600 C.ar    1  UNL1        0.0080
      4 C         -62.0596  -44.8174  -24.9494 C.ar    1  UNL1        0.0808
      5 C         -62.4755  -43.5765  -25.4707 C.ar    1  UNL1        0.1457
      6 F         -62.5754  -43.3774  -26.8094 F       1  UNL1       -0.2040
      7 C         -62.7488  -42.5079  -24.6111 C.ar    1  UNL1        0.0443
      8 C         -64.2564  -41.4126  -21.7763 C.3     1  UNL1        0.1223
      9 C         -64.1677  -40.8797  -20.3391 C.3     1  UNL1        0.1144
     10 N         -63.2715  -39.7198  -20.2861 N.pl3   1  UNL1       -0.2897
     11 C         -61.9092  -39.8913  -20.8045 C.3     1  UNL1        0.1136
     12 C         -61.9566  -40.4326  -22.2356 C.3     1  UNL1        0.1123
     13 N         -62.8994  -41.5572  -22.3362 N.pl3   1  UNL1       -0.3034
     14 C         -63.7099  -38.4821  -19.6927 C.ar    1  UNL1        0.1318
     15 C         -64.8069  -38.4448  -18.8182 C.ar    1  UNL1        0.0343
     16 C         -65.2049  -37.2274  -18.2638 C.ar    1  UNL1        0.0083
     17 C         -64.5045  -36.0501  -18.5665 C.ar    1  UNL1        0.0906
     18 C         -63.4360  -36.1251  -19.4735 C.ar    1  UNL1        0.1041
     19 N         -63.0677  -37.3218  -20.0018 N.ar    1  UNL1       -0.2292
     20 C         -64.9553  -34.7217  -18.0148 C.3     1  UNL1        0.4200
     21 F         -63.9589  -33.7715  -18.1563 F       1  UNL1       -0.1658
     22 F         -65.2551  -34.8641  -16.6730 F       1  UNL1       -0.1658
     23 F         -66.0807  -34.2722  -18.6836 F       1  UNL1       -0.1658
     24 C         -65.1141  -40.4934  -22.6620 C.3     1  UNL1        0.1636
     25 C         -67.2335  -39.8945  -21.9869 C.3     1  UNL1        0.1742
     26 O         -66.4634  -40.9056  -22.5960 O.3     1  UNL1       -0.3493
     27 C         -61.7691  -45.9684  -25.8339 C.2     1  UNL1        0.2483
     28 O         -60.5692  -46.2770  -26.0718 O.2     1  UNL1       -0.2701
     29 N         -62.8325  -46.7559  -26.3933 N.am    1  UNL1       -0.2945
     30 H         -63.7967  -46.6431  -26.0059 H       1  UNL1        0.1501
     31 C         -62.5782  -47.8451  -27.3394 C.3     1  UNL1        0.1535
     32 C         -62.9024  -49.1661  -26.6899 C.2     1  UNL1        0.2443
     33 O         -63.7973  -49.8966  -27.1949 O.2     1  UNL1       -0.2730
     34 N         -62.1744  -49.6053  -25.5324 N.am    1  UNL1       -0.2825
     35 H         -61.2348  -49.1830  -25.3566 H       1  UNL1        0.1549
     36 C         -62.6476  -50.6073  -24.6154 C.ar    1  UNL1        0.0535
     37 C         -63.8724  -51.2420  -24.8623 C.ar    1  UNL1        0.0353
     38 C         -64.3187  -52.2452  -23.9988 C.ar    1  UNL1        0.1002
     39 N         -63.5599  -52.6159  -22.9340 N.ar    1  UNL1       -0.2422
     40 C         -62.3594  -52.0324  -22.6781 C.ar    1  UNL1        0.1002
     41 C         -61.8781  -51.0221  -23.5139 C.ar    1  UNL1        0.0353
     42 C         -63.3976  -47.6320  -28.6274 C.3     1  UNL1        0.0569
     43 C         -63.1740  -46.2642  -29.2101 C.ar    1  UNL1       -0.0017
     44 C         -61.9705  -45.7617  -29.6957 C.ar    1  UNL1        0.0681
     45 N         -62.1565  -44.5411  -30.2476 N.ar    1  UNL1       -0.3523
     46 C         -63.4677  -44.2723  -30.1229 C.ar    1  UNL1        0.0563
     47 C         -64.1434  -43.1393  -30.5740 C.ar    1  UNL1        0.0170
     48 C         -65.5326  -43.0739  -30.3626 C.ar    1  UNL1        0.0015
     49 C         -66.2076  -44.1295  -29.7113 C.ar    1  UNL1        0.0001
     50 C         -65.5002  -45.2607  -29.2662 C.ar    1  UNL1        0.0012
     51 C         -64.1233  -45.3001  -29.4938 C.ar    1  UNL1        0.0131
     52 H         -61.4296  -43.9418  -30.6981 H       1  UNL1        0.1660
@<TRIPOS>BOND
     1    25    26    1
     2    26    24    1
     3    24     8    1
     4     8     9    1
     5     9    10    1
     6    10    14    1
     7    14    15   ar
     8    15    16   ar
     9    16    17   ar
    10    17    20    1
    11    20    21    1
    12    20    22    1
    13    20    23    1
    14    17    18   ar
    15    18    19   ar
    16    10    11    1
    17    11    12    1
    18    12    13    1
    19    13     1    1
    20     1     2   ar
    21     2     3   ar
    22     3     4   ar
    23     4    27    1
    24    27    28    2
    25    27    29   am
    26    29    31    1
    27    31    42    1
    28    42    43    1
    29    43    44   ar
    30    44    45   ar
    31    45    46   ar
    32    46    47   ar
    33    47    48   ar
    34    48    49   ar
    35    49    50   ar
    36    50    51   ar
    37    31    32    1
    38    32    33    2
    39    32    34   am
    40    34    36    1
    41    36    37   ar
    42    37    38   ar
    43    38    39   ar
    44    39    40   ar
    45    40    41   ar
    46     4     5   ar
    47     5     6    1
    48     5     7   ar
    49    13     8    1
    50     7     1   ar
    51    19    14   ar
    52    51    43   ar
    53    41    36   ar
    54    51    46   ar
    55    29    30    1
    56    45    52    1
    57    34    35    1
@<TRIPOS>MOLECULE
*****
 52 57 0 0 0
SMALL
GASTEIGER

@<TRIPOS>ATOM
      1 C         -63.0548  -42.2903  -23.5245 C.ar    1  UNL1        0.0502
      2 C         -63.1918  -42.0071  -24.8905 C.ar    1  UNL1        0.0148
      3 C         -62.9856  -43.0067  -25.8443 C.ar    1  UNL1        0.0080
      4 C         -62.6284  -44.3075  -25.4506 C.ar    1  UNL1        0.0808
      5 C         -62.5103  -44.5970  -24.0769 C.ar    1  UNL1        0.1457
      6 F         -62.2378  -45.8551  -23.6474 F       1  UNL1       -0.2040
      7 C         -62.7203  -43.5938  -23.1256 C.ar    1  UNL1        0.0443
      8 C         -64.6060  -41.0505  -21.9733 C.3     1  UNL1        0.1223
      9 C         -64.4836  -40.6546  -20.4949 C.3     1  UNL1        0.1144
     10 N         -63.4973  -39.5800  -20.3410 N.pl3   1  UNL1       -0.2897
     11 C         -62.1500  -39.8149  -20.8737 C.3     1  UNL1        0.1136
     12 C         -62.2319  -40.2230  -22.3468 C.3     1  UNL1        0.1123
     13 N         -63.2616  -41.2546  -22.5450 N.pl3   1  UNL1       -0.3034
     14 C         -63.8382  -38.3678  -19.6407 C.ar    1  UNL1        0.1318
     15 C         -64.9088  -38.3298  -18.7341 C.ar    1  UNL1        0.0343
     16 C         -65.2118  -37.1371  -18.0755 C.ar    1  UNL1        0.0083
     17 C         -64.4426  -35.9869  -18.3064 C.ar    1  UNL1        0.0906
     18 C         -63.4037  -36.0580  -19.2475 C.ar    1  UNL1        0.1041
     19 N         -63.1283  -37.2302  -19.8776 N.ar    1  UNL1       -0.2292
     20 C         -64.7910  -34.6803  -17.6403 C.3     1  UNL1        0.4200
     21 F         -65.9970  -34.1963  -18.1168 F       1  UNL1       -0.1658
     22 F         -63.7982  -33.7556  -17.9046 F       1  UNL1       -0.1658
     23 F         -64.9012  -34.8452  -16.2705 F       1  UNL1       -0.1658
     24 C         -65.3815  -39.9910  -22.7740 C.3     1  UNL1        0.1636
     25 C         -66.2284  -40.1741  -24.9083 C.3     1  UNL1        0.1742
     26 O         -66.3499  -40.6293  -23.5799 O.3     1  UNL1       -0.3493
     27 C         -62.4059  -45.3469  -26.4808 C.2     1  UNL1        0.2483
     28 O         -61.2266  -45.7004  -26.7569 O.2     1  UNL1       -0.2701
     29 N         -63.5134  -45.9800  -27.1415 N.am    1  UNL1       -0.2945
     30 H         -64.4718  -45.8558  -26.7433 H       1  UNL1        0.1501
     31 C         -63.3224  -46.9477  -28.2246 C.3     1  UNL1        0.1535
     32 C         -62.8345  -46.2353  -29.4601 C.2     1  UNL1        0.2443
     33 O         -63.4115  -46.4478  -30.5608 O.2     1  UNL1       -0.2730
     34 N         -61.7507  -45.2967  -29.3779 N.am    1  UNL1       -0.2825
     35 H         -61.5389  -44.8750  -28.4456 H       1  UNL1        0.1549
     36 C         -60.9561  -44.8831  -30.5033 C.ar    1  UNL1        0.0535
     37 C         -61.5378  -44.0898  -31.5014 C.ar    1  UNL1        0.0353
     38 C         -60.7616  -43.6499  -32.5762 C.ar    1  UNL1        0.1002
     39 N         -59.4438  -43.9754  -32.6441 N.ar    1  UNL1       -0.2422
     40 C         -58.8463  -44.7277  -31.6828 C.ar    1  UNL1        0.1002
     41 C         -59.5871  -45.1918  -30.5935 C.ar    1  UNL1        0.0353
     42 C         -62.3411  -48.0516  -27.7837 C.3     1  UNL1        0.0569
     43 C         -62.7922  -48.7248  -26.5173 C.ar    1  UNL1       -0.0017
     44 C         -63.9776  -49.4310  -26.3363 C.ar    1  UNL1        0.0681
     45 N         -64.0074  -49.9972  -25.1084 N.ar    1  UNL1       -0.3523
     46 C         -62.8481  -49.6623  -24.5161 C.ar    1  UNL1        0.0563
     47 C         -62.4076  -50.0416  -23.2488 C.ar    1  UNL1        0.0170
     48 C         -61.1386  -49.5990  -22.8334 C.ar    1  UNL1        0.0015
     49 C         -60.3478  -48.7951  -23.6834 C.ar    1  UNL1        0.0001
     50 C         -60.8178  -48.4273  -24.9570 C.ar    1  UNL1        0.0012
     51 C         -62.0787  -48.8850  -25.3440 C.ar    1  UNL1        0.0131
     52 H         -64.7694  -50.5917  -24.7129 H       1  UNL1        0.1660
@<TRIPOS>BOND
     1    25    26    1
     2    26    24    1
     3    24     8    1
     4     8     9    1
     5     9    10    1
     6    10    14    1
     7    14    15   ar
     8    15    16   ar
     9    16    17   ar
    10    17    20    1
    11    20    21    1
    12    20    22    1
    13    20    23    1
    14    17    18   ar
    15    18    19   ar
    16    10    11    1
    17    11    12    1
    18    12    13    1
    19    13     1    1
    20     1     2   ar
    21     2     3   ar
    22     3     4   ar
    23     4    27    1
    24    27    28    2
    25    27    29   am
    26    29    31    1
    27    31    42    1
    28    42    43    1
    29    43    44   ar
    30    44    45   ar
    31    45    46   ar
    32    46    47   ar
    33    47    48   ar
    34    48    49   ar
    35    49    50   ar
    36    50    51   ar
    37    31    32    1
    38    32    33    2
    39    32    34   am
    40    34    36    1
    41    36    37   ar
    42    37    38   ar
    43    38    39   ar
    44    39    40   ar
    45    40    41   ar
    46     4     5   ar
    47     5     6    1
    48     5     7   ar
    49    13     8    1
    50     7     1   ar
    51    19    14   ar
    52    51    43   ar
    53    41    36   ar
    54    51    46   ar
    55    29    30    1
    56    45    52    1
    57    34    35    1
