@<TRIPOS>MOLECULE
*****
 46 51 0 0 0
SMALL
GASTEIGER

@<TRIPOS>ATOM
      1 O         -64.7986  -40.9669  -21.9707 O.2     1  UNL1       -0.2701
      2 C         -63.7174  -40.9422  -22.6203 C.2     1  UNL1        0.2483
      3 N         -62.4931  -40.5954  -21.9530 N.am    1  UNL1       -0.2945
      4 H         -61.6551  -40.3592  -22.5314 H       1  UNL1        0.1501
      5 C         -63.7354  -41.2424  -24.0696 C.ar    1  UNL1        0.0808
      6 C         -62.8861  -42.2369  -24.5824 C.ar    1  UNL1        0.0080
      7 C         -62.8880  -42.5389  -25.9463 C.ar    1  UNL1        0.0148
      8 C         -63.7343  -41.8477  -26.8270 C.ar    1  UNL1        0.0502
      9 C         -64.5650  -40.8356  -26.3214 C.ar    1  UNL1        0.0443
     10 C         -64.5678  -40.5318  -24.9563 C.ar    1  UNL1        0.1457
     11 F         -65.3486  -39.5121  -24.5175 F       1  UNL1       -0.2040
     12 N         -63.7242  -42.1495  -28.2357 N.pl3   1  UNL1       -0.3040
     13 C         -63.0965  -41.2070  -29.1767 C.3     1  UNL1        0.1122
     14 C         -62.9597  -41.8206  -30.5748 C.3     1  UNL1        0.1122
     15 N         -62.4972  -43.2115  -30.4638 N.pl3   1  UNL1       -0.3040
     16 C         -63.2038  -44.1447  -29.5706 C.3     1  UNL1        0.1122
     17 C         -64.2657  -43.4220  -28.7339 C.3     1  UNL1        0.1122
     18 C         -61.3183  -43.6528  -31.1642 C.ar    1  UNL1        0.0502
     19 C         -60.2910  -44.3238  -30.4771 C.ar    1  UNL1        0.0147
     20 C         -59.1535  -44.7636  -31.1609 C.ar    1  UNL1        0.0036
     21 C         -59.0323  -44.5418  -32.5348 C.ar    1  UNL1        0.0297
     22 C         -60.0504  -43.8820  -33.2284 C.ar    1  UNL1        0.1414
     23 F         -59.9318  -43.6673  -34.5620 F       1  UNL1       -0.2041
     24 C         -61.1905  -43.4413  -32.5484 C.ar    1  UNL1        0.0441
     25 C         -62.4094  -40.4923  -20.4922 C.3     1  UNL1        0.1535
     26 C         -63.3710  -39.4434  -19.9935 C.2     1  UNL1        0.2443
     27 O         -64.3281  -39.7794  -19.2437 O.2     1  UNL1       -0.2730
     28 N         -63.1763  -38.0669  -20.3553 N.am    1  UNL1       -0.2825
     29 H         -62.5952  -37.8614  -21.1994 H       1  UNL1        0.1549
     30 C         -63.7622  -36.9560  -19.6557 C.ar    1  UNL1        0.0535
     31 C         -62.9430  -36.1189  -18.8861 C.ar    1  UNL1        0.0353
     32 C         -63.5096  -35.0563  -18.1783 C.ar    1  UNL1        0.1002
     33 N         -64.8517  -34.8463  -18.2224 N.ar    1  UNL1       -0.2422
     34 C         -65.6748  -35.6524  -18.9436 C.ar    1  UNL1        0.1002
     35 C         -65.1487  -36.7253  -19.6675 C.ar    1  UNL1        0.0353
     36 C         -62.7104  -41.8546  -19.8387 C.3     1  UNL1        0.0569
     37 C         -62.3709  -42.9975  -20.7540 C.ar    1  UNL1       -0.0017
     38 C         -63.1831  -44.0879  -21.0522 C.ar    1  UNL1        0.0681
     39 N         -62.5158  -44.9777  -21.8215 N.ar    1  UNL1       -0.3523
     40 C         -61.2871  -44.4634  -22.0032 C.ar    1  UNL1        0.0563
     41 C         -60.2286  -45.0335  -22.7092 C.ar    1  UNL1        0.0170
     42 C         -59.0112  -44.3293  -22.7508 C.ar    1  UNL1        0.0015
     43 C         -58.8795  -43.0876  -22.0901 C.ar    1  UNL1        0.0001
     44 C         -59.9640  -42.5379  -21.3825 C.ar    1  UNL1        0.0012
     45 C         -61.1594  -43.2567  -21.3639 C.ar    1  UNL1        0.0131
     46 H         -62.8787  -45.8882  -22.1815 H       1  UNL1        0.1660
@<TRIPOS>BOND
     1     1     2    2
     2     2     3   am
     3     3    25    1
     4    25    36    1
     5    36    37    1
     6    37    38   ar
     7    38    39   ar
     8    39    40   ar
     9    40    41   ar
    10    41    42   ar
    11    42    43   ar
    12    43    44   ar
    13    44    45   ar
    14    25    26    1
    15    26    27    2
    16    26    28   am
    17    28    30    1
    18    30    31   ar
    19    31    32   ar
    20    32    33   ar
    21    33    34   ar
    22    34    35   ar
    23     2     5    1
    24     5     6   ar
    25     6     7   ar
    26     7     8   ar
    27     8    12    1
    28    12    13    1
    29    13    14    1
    30    14    15    1
    31    15    18    1
    32    18    19   ar
    33    19    20   ar
    34    20    21   ar
    35    21    22   ar
    36    22    23    1
    37    22    24   ar
    38    15    16    1
    39    16    17    1
    40     8     9   ar
    41     9    10   ar
    42    10    11    1
    43    45    37   ar
    44    35    30   ar
    45    10     5   ar
    46    45    40   ar
    47    17    12    1
    48    24    18   ar
    49     3     4    1
    50    39    46    1
    51    28    29    1
@<TRIPOS>MOLECULE
*****
 46 51 0 0 0
SMALL
GASTEIGER

@<TRIPOS>ATOM
      1 O         -60.0872  -44.8904  -24.5669 O.2     1  UNL1       -0.2701
      2 C         -61.1972  -44.3246  -24.7660 C.2     1  UNL1        0.2483
      3 N         -61.7943  -44.3673  -26.0722 N.am    1  UNL1       -0.2945
      4 H         -62.5852  -43.7177  -26.2844 H       1  UNL1        0.1501
      5 C         -61.8509  -43.5991  -23.6537 C.ar    1  UNL1        0.0808
      6 C         -62.0490  -42.2119  -23.7522 C.ar    1  UNL1        0.0080
      7 C         -62.6660  -41.5069  -22.7161 C.ar    1  UNL1        0.0148
      8 C         -63.0914  -42.1734  -21.5566 C.ar    1  UNL1        0.0502
      9 C         -62.8712  -43.5550  -21.4444 C.ar    1  UNL1        0.0443
     10 C         -62.2560  -44.2649  -22.4804 C.ar    1  UNL1        0.1457
     11 F         -62.0165  -45.5898  -22.3097 F       1  UNL1       -0.2040
     12 N         -63.7138  -41.4427  -20.4822 N.pl3   1  UNL1       -0.3040
     13 C         -62.8797  -40.8766  -19.4091 C.3     1  UNL1        0.1122
     14 C         -63.6869  -39.9292  -18.5142 C.3     1  UNL1        0.1122
     15 N         -64.5475  -39.0745  -19.3446 N.pl3   1  UNL1       -0.3040
     16 C         -65.4278  -39.6880  -20.3528 C.3     1  UNL1        0.1122
     17 C         -65.1622  -41.1919  -20.4861 C.3     1  UNL1        0.1122
     18 C         -64.4873  -37.6395  -19.2322 C.ar    1  UNL1        0.0502
     19 C         -65.6313  -36.8577  -19.4724 C.ar    1  UNL1        0.0147
     20 C         -65.5748  -35.4661  -19.3496 C.ar    1  UNL1        0.0036
     21 C         -64.3794  -34.8430  -18.9831 C.ar    1  UNL1        0.0297
     22 C         -63.2385  -35.6110  -18.7356 C.ar    1  UNL1        0.1414
     23 F         -62.0787  -35.0052  -18.3798 F       1  UNL1       -0.2041
     24 C         -63.2910  -37.0035  -18.8562 C.ar    1  UNL1        0.0441
     25 C         -61.2780  -45.2401  -27.1319 C.3     1  UNL1        0.1535
     26 C         -61.6522  -46.6728  -26.8477 C.2     1  UNL1        0.2443
     27 O         -61.0809  -47.6044  -27.4778 O.2     1  UNL1       -0.2730
     28 N         -62.6375  -46.9677  -25.8449 N.am    1  UNL1       -0.2825
     29 H         -63.3016  -46.2073  -25.5744 H       1  UNL1        0.1549
     30 C         -62.7955  -48.2523  -25.2190 C.ar    1  UNL1        0.0535
     31 C         -64.0107  -48.9375  -25.3532 C.ar    1  UNL1        0.0353
     32 C         -64.1827  -50.1716  -24.7218 C.ar    1  UNL1        0.1002
     33 N         -63.1819  -50.6967  -23.9669 N.ar    1  UNL1       -0.2422
     34 C         -61.9995  -50.0471  -23.8015 C.ar    1  UNL1        0.1002
     35 C         -61.7855  -48.8114  -24.4171 C.ar    1  UNL1        0.0353
     36 C         -61.8248  -44.8016  -28.5039 C.3     1  UNL1        0.0569
     37 C         -60.7751  -44.8929  -29.5758 C.ar    1  UNL1       -0.0017
     38 C         -59.4783  -45.3756  -29.4246 C.ar    1  UNL1        0.0681
     39 N         -58.7752  -45.2069  -30.5674 N.ar    1  UNL1       -0.3523
     40 C         -59.6134  -44.6134  -31.4349 C.ar    1  UNL1        0.0563
     41 C         -59.3337  -44.2139  -32.7410 C.ar    1  UNL1        0.0170
     42 C         -60.3587  -43.5822  -33.4689 C.ar    1  UNL1        0.0015
     43 C         -61.6242  -43.3630  -32.8805 C.ar    1  UNL1        0.0001
     44 C         -61.8769  -43.7742  -31.5591 C.ar    1  UNL1        0.0012
     45 C         -60.8429  -44.4025  -30.8649 C.ar    1  UNL1        0.0131
     46 H         -57.7774  -45.4673  -30.7313 H       1  UNL1        0.1660
@<TRIPOS>BOND
     1     1     2    2
     2     2     3   am
     3     3    25    1
     4    25    36    1
     5    36    37    1
     6    37    38   ar
     7    38    39   ar
     8    39    40   ar
     9    40    41   ar
    10    41    42   ar
    11    42    43   ar
    12    43    44   ar
    13    44    45   ar
    14    25    26    1
    15    26    27    2
    16    26    28   am
    17    28    30    1
    18    30    31   ar
    19    31    32   ar
    20    32    33   ar
    21    33    34   ar
    22    34    35   ar
    23     2     5    1
    24     5     6   ar
    25     6     7   ar
    26     7     8   ar
    27     8    12    1
    28    12    13    1
    29    13    14    1
    30    14    15    1
    31    15    18    1
    32    18    19   ar
    33    19    20   ar
    34    20    21   ar
    35    21    22   ar
    36    22    23    1
    37    22    24   ar
    38    15    16    1
    39    16    17    1
    40     8     9   ar
    41     9    10   ar
    42    10    11    1
    43    45    37   ar
    44    35    30   ar
    45    10     5   ar
    46    45    40   ar
    47    17    12    1
    48    24    18   ar
    49     3     4    1
    50    39    46    1
    51    28    29    1
@<TRIPOS>MOLECULE
*****
 46 51 0 0 0
SMALL
GASTEIGER

@<TRIPOS>ATOM
      1 O         -63.6153  -41.8601  -21.7561 O.2     1  UNL1       -0.2701
      2 C         -62.7195  -41.5891  -22.6023 C.2     1  UNL1        0.2483
      3 N         -61.4753  -41.0191  -22.1649 N.am    1  UNL1       -0.2945
      4 H         -60.8393  -40.5942  -22.8773 H       1  UNL1        0.1501
      5 C         -62.9803  -41.8362  -24.0383 C.ar    1  UNL1        0.0808
      6 C         -62.3072  -42.8791  -24.6958 C.ar    1  UNL1        0.0080
      7 C         -62.5394  -43.1323  -26.0498 C.ar    1  UNL1        0.0148
      8 C         -63.4444  -42.3431  -26.7764 C.ar    1  UNL1        0.0502
      9 C         -64.0987  -41.2840  -26.1284 C.ar    1  UNL1        0.0443
     10 C         -63.8708  -41.0286  -24.7723 C.ar    1  UNL1        0.1457
     11 F         -64.4853  -39.9636  -24.1978 F       1  UNL1       -0.2040
     12 N         -63.6715  -42.5956  -28.1764 N.pl3   1  UNL1       -0.3040
     13 C         -63.3901  -41.5376  -29.1610 C.3     1  UNL1        0.1122
     14 C         -63.4464  -42.0782  -30.5943 C.3     1  UNL1        0.1122
     15 N         -62.7714  -43.3824  -30.6601 N.pl3   1  UNL1       -0.3040
     16 C         -63.1401  -44.4421  -29.7067 C.3     1  UNL1        0.1122
     17 C         -64.1081  -43.9209  -28.6384 C.3     1  UNL1        0.1122
     18 C         -61.7042  -43.6117  -31.6002 C.ar    1  UNL1        0.0502
     19 C         -61.8616  -43.2669  -32.9544 C.ar    1  UNL1        0.0147
     20 C         -60.8201  -43.4775  -33.8630 C.ar    1  UNL1        0.0036
     21 C         -59.6125  -44.0297  -33.4290 C.ar    1  UNL1        0.0297
     22 C         -59.4431  -44.3697  -32.0842 C.ar    1  UNL1        0.1414
     23 F         -58.2706  -44.9055  -31.6639 F       1  UNL1       -0.2041
     24 C         -60.4822  -44.1597  -31.1717 C.ar    1  UNL1        0.0441
     25 C         -61.1106  -40.9515  -20.7458 C.3     1  UNL1        0.1535
     26 C         -62.3300  -40.6422  -19.9144 C.2     1  UNL1        0.2443
     27 O         -62.9675  -39.5723  -20.1147 O.2     1  UNL1       -0.2730
     28 N         -62.7708  -41.5784  -18.9182 N.am    1  UNL1       -0.2825
     29 H         -62.0775  -42.2745  -18.5614 H       1  UNL1        0.1549
     30 C         -64.0916  -41.5938  -18.3507 C.ar    1  UNL1        0.0535
     31 C         -64.8902  -42.7360  -18.4986 C.ar    1  UNL1        0.0353
     32 C         -66.1861  -42.7467  -17.9773 C.ar    1  UNL1        0.1002
     33 N         -66.6758  -41.6479  -17.3449 N.ar    1  UNL1       -0.2422
     34 C         -65.9331  -40.5184  -17.2031 C.ar    1  UNL1        0.1002
     35 C         -64.6316  -40.4662  -17.7081 C.ar    1  UNL1        0.0353
     36 C         -60.4698  -42.2768  -20.2914 C.3     1  UNL1        0.0569
     37 C         -59.9541  -43.0734  -21.4570 C.ar    1  UNL1       -0.0017
     38 C         -58.8812  -42.7381  -22.2781 C.ar    1  UNL1        0.0681
     39 N         -58.7680  -43.6246  -23.2931 N.ar    1  UNL1       -0.3523
     40 C         -59.7652  -44.5104  -23.1254 C.ar    1  UNL1        0.0563
     41 C         -60.0745  -45.5986  -23.9402 C.ar    1  UNL1        0.0170
     42 C         -61.1865  -46.3865  -23.5907 C.ar    1  UNL1        0.0015
     43 C         -61.9579  -46.0703  -22.4501 C.ar    1  UNL1        0.0001
     44 C         -61.6239  -44.9639  -21.6480 C.ar    1  UNL1        0.0012
     45 C         -60.5130  -44.2053  -22.0169 C.ar    1  UNL1        0.0131
     46 H         -58.0605  -43.6083  -24.0609 H       1  UNL1        0.1660
@<TRIPOS>BOND
     1     1     2    2
     2     2     3   am
     3     3    25    1
     4    25    36    1
     5    36    37    1
     6    37    38   ar
     7    38    39   ar
     8    39    40   ar
     9    40    41   ar
    10    41    42   ar
    11    42    43   ar
    12    43    44   ar
    13    44    45   ar
    14    25    26    1
    15    26    27    2
    16    26    28   am
    17    28    30    1
    18    30    31   ar
    19    31    32   ar
    20    32    33   ar
    21    33    34   ar
    22    34    35   ar
    23     2     5    1
    24     5     6   ar
    25     6     7   ar
    26     7     8   ar
    27     8    12    1
    28    12    13    1
    29    13    14    1
    30    14    15    1
    31    15    18    1
    32    18    19   ar
    33    19    20   ar
    34    20    21   ar
    35    21    22   ar
    36    22    23    1
    37    22    24   ar
    38    15    16    1
    39    16    17    1
    40     8     9   ar
    41     9    10   ar
    42    10    11    1
    43    45    37   ar
    44    35    30   ar
    45    10     5   ar
    46    45    40   ar
    47    17    12    1
    48    24    18   ar
    49     3     4    1
    50    39    46    1
    51    28    29    1
@<TRIPOS>MOLECULE
*****
 46 51 0 0 0
SMALL
GASTEIGER

@<TRIPOS>ATOM
      1 O         -62.1261  -41.3703  -29.2959 O.2     1  UNL1       -0.2701
      2 C         -62.9631  -41.9325  -28.5376 C.2     1  UNL1        0.2483
      3 N         -64.2154  -42.3898  -29.0735 N.am    1  UNL1       -0.2945
      4 H         -64.9828  -42.6437  -28.4107 H       1  UNL1        0.1501
      5 C         -62.6506  -42.0836  -27.0986 C.ar    1  UNL1        0.0808
      6 C         -63.5904  -41.6742  -26.1382 C.ar    1  UNL1        0.0080
      7 C         -63.3182  -41.8096  -24.7748 C.ar    1  UNL1        0.0148
      8 C         -62.0973  -42.3508  -24.3432 C.ar    1  UNL1        0.0502
      9 C         -61.1459  -42.7364  -25.3003 C.ar    1  UNL1        0.0443
     10 C         -61.4155  -42.6047  -26.6663 C.ar    1  UNL1        0.1457
     11 F         -60.4485  -42.9423  -27.5566 F       1  UNL1       -0.2040
     12 N         -61.8115  -42.4756  -22.9368 N.pl3   1  UNL1       -0.3040
     13 C         -61.4238  -41.2833  -22.1649 C.3     1  UNL1        0.1122
     14 C         -61.4159  -41.5701  -20.6591 C.3     1  UNL1        0.1122
     15 N         -62.6005  -42.3621  -20.2981 N.pl3   1  UNL1       -0.3040
     16 C         -62.9082  -43.5935  -21.0444 C.3     1  UNL1        0.1122
     17 C         -61.9764  -43.7646  -22.2495 C.3     1  UNL1        0.1122
     18 C         -63.5025  -41.9097  -19.2700 C.ar    1  UNL1        0.0502
     19 C         -63.4651  -40.5758  -18.8262 C.ar    1  UNL1        0.0147
     20 C         -64.3503  -40.1347  -17.8379 C.ar    1  UNL1        0.0036
     21 C         -65.2819  -41.0179  -17.2869 C.ar    1  UNL1        0.0297
     22 C         -65.3321  -42.3438  -17.7256 C.ar    1  UNL1        0.1414
     23 F         -66.2368  -43.2001  -17.1902 F       1  UNL1       -0.2041
     24 C         -64.4490  -42.7888  -18.7148 C.ar    1  UNL1        0.0441
     25 C         -64.4687  -42.4381  -30.5174 C.3     1  UNL1        0.1535
     26 C         -63.2483  -42.9534  -31.2378 C.2     1  UNL1        0.2443
     27 O         -62.9704  -42.5156  -32.3877 O.2     1  UNL1       -0.2730
     28 N         -62.3981  -43.9198  -30.6001 N.am    1  UNL1       -0.2825
     29 H         -62.8012  -44.4845  -29.8184 H       1  UNL1        0.1549
     30 C         -61.0420  -44.1893  -30.9942 C.ar    1  UNL1        0.0535
     31 C         -60.6501  -43.9484  -32.3181 C.ar    1  UNL1        0.0353
     32 C         -59.3427  -44.2374  -32.7163 C.ar    1  UNL1        0.1002
     33 N         -58.4604  -44.7659  -31.8279 N.ar    1  UNL1       -0.2422
     34 C         -58.8160  -45.0292  -30.5427 C.ar    1  UNL1        0.1002
     35 C         -60.1131  -44.7534  -30.1028 C.ar    1  UNL1        0.0353
     36 C         -65.6896  -43.3277  -30.8198 C.3     1  UNL1        0.0569
     37 C         -65.3034  -44.7738  -30.9572 C.ar    1  UNL1       -0.0017
     38 C         -65.5284  -45.5886  -32.0632 C.ar    1  UNL1        0.0681
     39 N         -65.1514  -46.8600  -31.7978 N.ar    1  UNL1       -0.3523
     40 C         -64.6998  -46.8567  -30.5316 C.ar    1  UNL1        0.0563
     41 C         -64.2253  -47.9454  -29.8012 C.ar    1  UNL1        0.0170
     42 C         -63.8243  -47.7202  -28.4715 C.ar    1  UNL1        0.0015
     43 C         -63.9092  -46.4279  -27.9071 C.ar    1  UNL1        0.0001
     44 C         -64.3950  -45.3485  -28.6673 C.ar    1  UNL1        0.0012
     45 C         -64.7798  -45.6018  -29.9840 C.ar    1  UNL1        0.0131
     46 H         -65.2189  -47.6790  -32.4420 H       1  UNL1        0.1660
@<TRIPOS>BOND
     1     1     2    2
     2     2     3   am
     3     3    25    1
     4    25    36    1
     5    36    37    1
     6    37    38   ar
     7    38    39   ar
     8    39    40   ar
     9    40    41   ar
    10    41    42   ar
    11    42    43   ar
    12    43    44   ar
    13    44    45   ar
    14    25    26    1
    15    26    27    2
    16    26    28   am
    17    28    30    1
    18    30    31   ar
    19    31    32   ar
    20    32    33   ar
    21    33    34   ar
    22    34    35   ar
    23     2     5    1
    24     5     6   ar
    25     6     7   ar
    26     7     8   ar
    27     8    12    1
    28    12    13    1
    29    13    14    1
    30    14    15    1
    31    15    18    1
    32    18    19   ar
    33    19    20   ar
    34    20    21   ar
    35    21    22   ar
    36    22    23    1
    37    22    24   ar
    38    15    16    1
    39    16    17    1
    40     8     9   ar
    41     9    10   ar
    42    10    11    1
    43    45    37   ar
    44    35    30   ar
    45    10     5   ar
    46    45    40   ar
    47    17    12    1
    48    24    18   ar
    49     3     4    1
    50    39    46    1
    51    28    29    1
@<TRIPOS>MOLECULE
*****
 46 51 0 0 0
SMALL
GASTEIGER

@<TRIPOS>ATOM
      1 O         -63.7176  -41.5435  -22.0157 O.2     1  UNL1       -0.2701
      2 C         -62.7903  -41.3984  -22.8588 C.2     1  UNL1        0.2483
      3 N         -61.4983  -40.9431  -22.4255 N.am    1  UNL1       -0.2945
      4 H         -60.8148  -40.6133  -23.1443 H       1  UNL1        0.1501
      5 C         -63.0609  -41.6720  -24.2882 C.ar    1  UNL1        0.0808
      6 C         -62.3153  -42.6554  -24.9592 C.ar    1  UNL1        0.0080
      7 C         -62.5550  -42.9323  -26.3072 C.ar    1  UNL1        0.0148
      8 C         -63.5407  -42.2265  -27.0144 C.ar    1  UNL1        0.0502
      9 C         -64.2691  -41.2253  -26.3533 C.ar    1  UNL1        0.0443
     10 C         -64.0338  -40.9466  -25.0031 C.ar    1  UNL1        0.1457
     11 F         -64.7247  -39.9365  -24.4165 F       1  UNL1       -0.2040
     12 N         -63.7764  -42.5023  -28.4085 N.pl3   1  UNL1       -0.3040
     13 C         -63.5154  -41.4560  -29.4110 C.3     1  UNL1        0.1122
     14 C         -63.5773  -42.0186  -30.8356 C.3     1  UNL1        0.1122
     15 N         -62.8879  -43.3158  -30.8878 N.pl3   1  UNL1       -0.3040
     16 C         -63.2364  -44.3652  -29.9157 C.3     1  UNL1        0.1122
     17 C         -64.2016  -43.8393  -28.8471 C.3     1  UNL1        0.1122
     18 C         -61.8260  -43.5469  -31.8333 C.ar    1  UNL1        0.0502
     19 C         -61.9923  -43.2082  -33.1881 C.ar    1  UNL1        0.0147
     20 C         -60.9559  -43.4205  -34.1021 C.ar    1  UNL1        0.0036
     21 C         -59.7445  -43.9684  -33.6730 C.ar    1  UNL1        0.0297
     22 C         -59.5663  -44.3023  -32.3278 C.ar    1  UNL1        0.1414
     23 F         -58.3901  -44.8338  -31.9123 F       1  UNL1       -0.2041
     24 C         -60.6002  -44.0905  -31.4099 C.ar    1  UNL1        0.0441
     25 C         -61.1427  -40.8593  -21.0050 C.3     1  UNL1        0.1535
     26 C         -62.1692  -40.0398  -20.2642 C.2     1  UNL1        0.2443
     27 O         -62.5417  -40.3975  -19.1134 O.2     1  UNL1       -0.2730
     28 N         -62.6965  -38.8455  -20.8633 N.am    1  UNL1       -0.2825
     29 H         -62.6209  -38.7453  -21.9009 H       1  UNL1        0.1549
     30 C         -63.3577  -37.7983  -20.1332 C.ar    1  UNL1        0.0535
     31 C         -62.8153  -36.5060  -20.1418 C.ar    1  UNL1        0.0353
     32 C         -63.4346  -35.4906  -19.4092 C.ar    1  UNL1        0.1002
     33 N         -64.5481  -35.7594  -18.6778 N.ar    1  UNL1       -0.2422
     34 C         -65.0864  -37.0066  -18.6334 C.ar    1  UNL1        0.1002
     35 C         -64.4994  -38.0504  -19.3530 C.ar    1  UNL1        0.0353
     36 C         -61.0345  -42.2692  -20.3936 C.3     1  UNL1        0.0569
     37 C         -60.3141  -43.2186  -21.3095 C.ar    1  UNL1       -0.0017
     38 C         -58.9982  -43.1056  -21.7491 C.ar    1  UNL1        0.0681
     39 N         -58.7163  -44.0741  -22.6499 N.ar    1  UNL1       -0.3523
     40 C         -59.8449  -44.7910  -22.7898 C.ar    1  UNL1        0.0563
     41 C         -60.0536  -45.8820  -23.6323 C.ar    1  UNL1        0.0170
     42 C         -61.3310  -46.4718  -23.6398 C.ar    1  UNL1        0.0015
     43 C         -62.3601  -45.9613  -22.8176 C.ar    1  UNL1        0.0001
     44 C         -62.1213  -44.8569  -21.9796 C.ar    1  UNL1        0.0012
     45 C         -60.8436  -44.2972  -21.9901 C.ar    1  UNL1        0.0131
     46 H         -57.8104  -44.2189  -23.1486 H       1  UNL1        0.1660
@<TRIPOS>BOND
     1     1     2    2
     2     2     3   am
     3     3    25    1
     4    25    36    1
     5    36    37    1
     6    37    38   ar
     7    38    39   ar
     8    39    40   ar
     9    40    41   ar
    10    41    42   ar
    11    42    43   ar
    12    43    44   ar
    13    44    45   ar
    14    25    26    1
    15    26    27    2
    16    26    28   am
    17    28    30    1
    18    30    31   ar
    19    31    32   ar
    20    32    33   ar
    21    33    34   ar
    22    34    35   ar
    23     2     5    1
    24     5     6   ar
    25     6     7   ar
    26     7     8   ar
    27     8    12    1
    28    12    13    1
    29    13    14    1
    30    14    15    1
    31    15    18    1
    32    18    19   ar
    33    19    20   ar
    34    20    21   ar
    35    21    22   ar
    36    22    23    1
    37    22    24   ar
    38    15    16    1
    39    16    17    1
    40     8     9   ar
    41     9    10   ar
    42    10    11    1
    43    45    37   ar
    44    35    30   ar
    45    10     5   ar
    46    45    40   ar
    47    17    12    1
    48    24    18   ar
    49     3     4    1
    50    39    46    1
    51    28    29    1
@<TRIPOS>MOLECULE
*****
 46 51 0 0 0
SMALL
GASTEIGER

@<TRIPOS>ATOM
      1 O         -62.6580  -42.7144  -22.0551 O.2     1  UNL1       -0.2701
      2 C         -63.3068  -41.8487  -22.7043 C.2     1  UNL1        0.2483
      3 N         -64.0382  -40.8313  -22.0011 N.am    1  UNL1       -0.2945
      4 H         -64.7438  -40.2662  -22.5260 H       1  UNL1        0.1501
      5 C         -63.3270  -41.9161  -24.1828 C.ar    1  UNL1        0.0808
      6 C         -62.4374  -42.7743  -24.8501 C.ar    1  UNL1        0.0080
      7 C         -62.4404  -42.8562  -26.2446 C.ar    1  UNL1        0.0148
      8 C         -63.3284  -42.0762  -27.0013 C.ar    1  UNL1        0.0502
      9 C         -64.2004  -41.1986  -26.3385 C.ar    1  UNL1        0.0443
     10 C         -64.2022  -41.1153  -24.9424 C.ar    1  UNL1        0.1457
     11 F         -65.0254  -40.2172  -24.3445 F       1  UNL1       -0.2040
     12 N         -63.3200  -42.1502  -28.4400 N.pl3   1  UNL1       -0.3040
     13 C         -62.5108  -41.1930  -29.2126 C.3     1  UNL1        0.1122
     14 C         -62.4301  -41.5936  -30.6901 C.3     1  UNL1        0.1122
     15 N         -62.2114  -43.0430  -30.8005 N.pl3   1  UNL1       -0.3040
     16 C         -63.0951  -43.9702  -30.0743 C.3     1  UNL1        0.1122
     17 C         -64.0494  -43.2171  -29.1404 C.3     1  UNL1        0.1122
     18 C         -61.0995  -43.5639  -31.5538 C.ar    1  UNL1        0.0502
     19 C         -60.0969  -44.3159  -30.9159 C.ar    1  UNL1        0.0147
     20 C         -59.0254  -44.8323  -31.6507 C.ar    1  UNL1        0.0036
     21 C         -58.9463  -44.6068  -33.0271 C.ar    1  UNL1        0.0297
     22 C         -59.9408  -43.8666  -33.6721 C.ar    1  UNL1        0.1414
     23 F         -59.8631  -43.6483  -35.0081 F       1  UNL1       -0.2041
     24 C         -61.0149  -43.3490  -32.9408 C.ar    1  UNL1        0.0441
     25 C         -63.8755  -40.6168  -20.5593 C.3     1  UNL1        0.1535
     26 C         -63.0032  -39.4118  -20.3126 C.2     1  UNL1        0.2443
     27 O         -61.8128  -39.4066  -20.7299 O.2     1  UNL1       -0.2730
     28 N         -63.5409  -38.2699  -19.6269 N.am    1  UNL1       -0.2825
     29 H         -64.3889  -38.4118  -19.0326 H       1  UNL1        0.1549
     30 C         -62.9645  -36.9536  -19.6725 C.ar    1  UNL1        0.0535
     31 C         -62.2416  -36.5585  -20.8063 C.ar    1  UNL1        0.0353
     32 C         -61.6520  -35.2928  -20.8449 C.ar    1  UNL1        0.1002
     33 N         -61.7648  -34.4553  -19.7804 N.ar    1  UNL1       -0.2422
     34 C         -62.4424  -34.8171  -18.6591 C.ar    1  UNL1        0.1002
     35 C         -63.0486  -36.0733  -18.5799 C.ar    1  UNL1        0.0353
     36 C         -65.2485  -40.4364  -19.8840 C.3     1  UNL1        0.0569
     37 C         -65.5310  -41.5337  -18.8966 C.ar    1  UNL1       -0.0017
     38 C         -65.7441  -41.3816  -17.5294 C.ar    1  UNL1        0.0681
     39 N         -65.8571  -42.5894  -16.9317 N.ar    1  UNL1       -0.3523
     40 C         -65.7076  -43.5021  -17.9074 C.ar    1  UNL1        0.0563
     41 C         -65.7198  -44.8899  -17.7751 C.ar    1  UNL1        0.0170
     42 C         -65.5161  -45.6625  -18.9331 C.ar    1  UNL1        0.0015
     43 C         -65.3032  -45.0378  -20.1822 C.ar    1  UNL1        0.0001
     44 C         -65.2931  -43.6348  -20.2851 C.ar    1  UNL1        0.0012
     45 C         -65.5033  -42.8961  -19.1206 C.ar    1  UNL1        0.0131
     46 H         -66.0089  -42.7715  -15.9147 H       1  UNL1        0.1660
@<TRIPOS>BOND
     1     1     2    2
     2     2     3   am
     3     3    25    1
     4    25    36    1
     5    36    37    1
     6    37    38   ar
     7    38    39   ar
     8    39    40   ar
     9    40    41   ar
    10    41    42   ar
    11    42    43   ar
    12    43    44   ar
    13    44    45   ar
    14    25    26    1
    15    26    27    2
    16    26    28   am
    17    28    30    1
    18    30    31   ar
    19    31    32   ar
    20    32    33   ar
    21    33    34   ar
    22    34    35   ar
    23     2     5    1
    24     5     6   ar
    25     6     7   ar
    26     7     8   ar
    27     8    12    1
    28    12    13    1
    29    13    14    1
    30    14    15    1
    31    15    18    1
    32    18    19   ar
    33    19    20   ar
    34    20    21   ar
    35    21    22   ar
    36    22    23    1
    37    22    24   ar
    38    15    16    1
    39    16    17    1
    40     8     9   ar
    41     9    10   ar
    42    10    11    1
    43    45    37   ar
    44    35    30   ar
    45    10     5   ar
    46    45    40   ar
    47    17    12    1
    48    24    18   ar
    49     3     4    1
    50    39    46    1
    51    28    29    1
@<TRIPOS>MOLECULE
*****
 46 51 0 0 0
SMALL
GASTEIGER

@<TRIPOS>ATOM
      1 O         -61.0457  -42.2688  -21.7542 O.2     1  UNL1       -0.2701
      2 C         -61.9937  -41.6697  -22.3323 C.2     1  UNL1        0.2483
      3 N         -62.8182  -40.7572  -21.5893 N.am    1  UNL1       -0.2945
      4 H         -63.7235  -40.4437  -22.0073 H       1  UNL1        0.1501
      5 C         -62.2584  -41.9423  -23.7629 C.ar    1  UNL1        0.0808
      6 C         -61.2741  -42.5720  -24.5425 C.ar    1  UNL1        0.0080
      7 C         -61.5028  -42.8416  -25.8939 C.ar    1  UNL1        0.0148
      8 C         -62.7183  -42.4806  -26.4957 C.ar    1  UNL1        0.0502
      9 C         -63.6934  -41.8279  -25.7256 C.ar    1  UNL1        0.0443
     10 C         -63.4692  -41.5583  -24.3717 C.ar    1  UNL1        0.1457
     11 F         -64.4175  -40.8803  -23.6768 F       1  UNL1       -0.2040
     12 N         -62.9470  -42.7454  -27.8932 N.pl3   1  UNL1       -0.3040
     13 C         -62.6420  -41.7053  -28.8897 C.3     1  UNL1        0.1122
     14 C         -62.7057  -42.2621  -30.3166 C.3     1  UNL1        0.1122
     15 N         -62.0571  -43.5803  -30.3648 N.pl3   1  UNL1       -0.3040
     16 C         -62.4494  -44.6206  -29.3996 C.3     1  UNL1        0.1122
     17 C         -63.4093  -44.0672  -28.3403 C.3     1  UNL1        0.1122
     18 C         -60.9925  -43.8424  -31.2992 C.ar    1  UNL1        0.0502
     19 C         -59.7955  -44.4400  -30.8658 C.ar    1  UNL1        0.0147
     20 C         -58.7685  -44.7063  -31.7763 C.ar    1  UNL1        0.0036
     21 C         -58.9273  -44.3829  -33.1261 C.ar    1  UNL1        0.0297
     22 C         -60.1154  -43.7951  -33.5685 C.ar    1  UNL1        0.1414
     23 F         -60.2686  -43.4817  -34.8788 F       1  UNL1       -0.2041
     24 C         -61.1458  -43.5279  -32.6611 C.ar    1  UNL1        0.0441
     25 C         -62.4608  -40.3155  -20.2370 C.3     1  UNL1        0.1535
     26 C         -62.7061  -38.8343  -20.0970 C.2     1  UNL1        0.2443
     27 O         -62.2672  -38.0427  -20.9756 O.2     1  UNL1       -0.2730
     28 N         -63.4581  -38.3380  -18.9783 N.am    1  UNL1       -0.2825
     29 H         -63.5327  -38.9463  -18.1316 H       1  UNL1        0.1549
     30 C         -64.0801  -37.0427  -18.9324 C.ar    1  UNL1        0.0535
     31 C         -63.4594  -36.0068  -18.2210 C.ar    1  UNL1        0.0353
     32 C         -64.0733  -34.7544  -18.1454 C.ar    1  UNL1        0.1002
     33 N         -65.2753  -34.5470  -18.7449 N.ar    1  UNL1       -0.2422
     34 C         -65.9116  -35.5369  -19.4250 C.ar    1  UNL1        0.1002
     35 C         -65.3315  -36.8038  -19.5263 C.ar    1  UNL1        0.0353
     36 C         -63.2689  -41.0981  -19.1844 C.3     1  UNL1        0.0569
     37 C         -64.4599  -41.7829  -19.7941 C.ar    1  UNL1       -0.0017
     38 C         -64.6887  -43.1550  -19.8452 C.ar    1  UNL1        0.0681
     39 N         -65.8023  -43.4218  -20.5647 N.ar    1  UNL1       -0.3523
     40 C         -66.2726  -42.2315  -20.9761 C.ar    1  UNL1        0.0563
     41 C         -67.3923  -41.9950  -21.7724 C.ar    1  UNL1        0.0170
     42 C         -67.6907  -40.6616  -22.1077 C.ar    1  UNL1        0.0015
     43 C         -66.8705  -39.6071  -21.6482 C.ar    1  UNL1        0.0001
     44 C         -65.7449  -39.8760  -20.8484 C.ar    1  UNL1        0.0012
     45 C         -65.4780  -41.2072  -20.5282 C.ar    1  UNL1        0.0131
     46 H         -66.2005  -44.3643  -20.7732 H       1  UNL1        0.1660
@<TRIPOS>BOND
     1     1     2    2
     2     2     3   am
     3     3    25    1
     4    25    36    1
     5    36    37    1
     6    37    38   ar
     7    38    39   ar
     8    39    40   ar
     9    40    41   ar
    10    41    42   ar
    11    42    43   ar
    12    43    44   ar
    13    44    45   ar
    14    25    26    1
    15    26    27    2
    16    26    28   am
    17    28    30    1
    18    30    31   ar
    19    31    32   ar
    20    32    33   ar
    21    33    34   ar
    22    34    35   ar
    23     2     5    1
    24     5     6   ar
    25     6     7   ar
    26     7     8   ar
    27     8    12    1
    28    12    13    1
    29    13    14    1
    30    14    15    1
    31    15    18    1
    32    18    19   ar
    33    19    20   ar
    34    20    21   ar
    35    21    22   ar
    36    22    23    1
    37    22    24   ar
    38    15    16    1
    39    16    17    1
    40     8     9   ar
    41     9    10   ar
    42    10    11    1
    43    45    37   ar
    44    35    30   ar
    45    10     5   ar
    46    45    40   ar
    47    17    12    1
    48    24    18   ar
    49     3     4    1
    50    39    46    1
    51    28    29    1
@<TRIPOS>MOLECULE
*****
 46 51 0 0 0
SMALL
GASTEIGER

@<TRIPOS>ATOM
      1 O         -60.8630  -44.5877  -25.0729 O.2     1  UNL1       -0.2701
      2 C         -61.8228  -43.7842  -25.2311 C.2     1  UNL1        0.2483
      3 N         -62.3569  -43.5624  -26.5463 N.am    1  UNL1       -0.2945
      4 H         -62.9869  -42.7429  -26.7011 H       1  UNL1        0.1501
      5 C         -62.3623  -43.0596  -24.0585 C.ar    1  UNL1        0.0808
      6 C         -62.0583  -43.5119  -22.7638 C.ar    1  UNL1        0.0080
      7 C         -62.5542  -42.8425  -21.6425 C.ar    1  UNL1        0.0148
      8 C         -63.3705  -41.7107  -21.7927 C.ar    1  UNL1        0.0502
      9 C         -63.6972  -41.2721  -23.0853 C.ar    1  UNL1        0.0443
     10 C         -63.2009  -41.9381  -24.2105 C.ar    1  UNL1        0.1457
     11 F         -63.5825  -41.5116  -25.4410 F       1  UNL1       -0.2040
     12 N         -63.8939  -41.0302  -20.6358 N.pl3   1  UNL1       -0.3040
     13 C         -62.9689  -40.5387  -19.6011 C.3     1  UNL1        0.1122
     14 C         -63.6856  -39.6288  -18.5969 C.3     1  UNL1        0.1122
     15 N         -64.5886  -38.7149  -19.3112 N.pl3   1  UNL1       -0.3040
     16 C         -65.5556  -39.2566  -20.2803 C.3     1  UNL1        0.1122
     17 C         -65.3327  -40.7551  -20.5147 C.3     1  UNL1        0.1122
     18 C         -64.4897  -37.2897  -19.1265 C.ar    1  UNL1        0.0502
     19 C         -65.6330  -36.4772  -19.2285 C.ar    1  UNL1        0.0147
     20 C         -65.5378  -35.0958  -19.0356 C.ar    1  UNL1        0.0036
     21 C         -64.3039  -34.5135  -18.7358 C.ar    1  UNL1        0.0297
     22 C         -63.1627  -35.3125  -18.6254 C.ar    1  UNL1        0.1414
     23 F         -61.9655  -34.7463  -18.3344 F       1  UNL1       -0.2041
     24 C         -63.2537  -36.6951  -18.8167 C.ar    1  UNL1        0.0441
     25 C         -61.9843  -44.4069  -27.6863 C.3     1  UNL1        0.1535
     26 C         -62.9635  -45.5449  -27.8265 C.2     1  UNL1        0.2443
     27 O         -64.0714  -45.4933  -27.2255 O.2     1  UNL1       -0.2730
     28 N         -62.6386  -46.6671  -28.6623 N.am    1  UNL1       -0.2825
     29 H         -61.6312  -46.8352  -28.8843 H       1  UNL1        0.1549
     30 C         -63.6052  -47.5973  -29.1794 C.ar    1  UNL1        0.0535
     31 C         -63.6924  -48.8798  -28.6207 C.ar    1  UNL1        0.0353
     32 C         -64.6073  -49.7995  -29.1386 C.ar    1  UNL1        0.1002
     33 N         -65.3969  -49.4574  -30.1906 N.ar    1  UNL1       -0.2422
     34 C         -65.3217  -48.2286  -30.7667 C.ar    1  UNL1        0.1002
     35 C         -64.4215  -47.2783  -30.2783 C.ar    1  UNL1        0.0353
     36 C         -61.9373  -43.5729  -28.9808 C.3     1  UNL1        0.0569
     37 C         -60.8514  -44.0444  -29.9069 C.ar    1  UNL1       -0.0017
     38 C         -59.6324  -44.6042  -29.5350 C.ar    1  UNL1        0.0681
     39 N         -58.8548  -44.8079  -30.6225 N.ar    1  UNL1       -0.3523
     40 C         -59.5680  -44.3729  -31.6758 C.ar    1  UNL1        0.0563
     41 C         -59.1735  -44.3527  -33.0128 C.ar    1  UNL1        0.0170
     42 C         -60.0746  -43.8257  -33.9562 C.ar    1  UNL1        0.0015
     43 C         -61.3334  -43.3328  -33.5462 C.ar    1  UNL1        0.0001
     44 C         -61.7034  -43.3632  -32.1892 C.ar    1  UNL1        0.0012
     45 C         -60.7912  -43.8964  -31.2785 C.ar    1  UNL1        0.0131
     46 H         -57.8886  -45.2038  -30.6344 H       1  UNL1        0.1660
@<TRIPOS>BOND
     1     1     2    2
     2     2     3   am
     3     3    25    1
     4    25    36    1
     5    36    37    1
     6    37    38   ar
     7    38    39   ar
     8    39    40   ar
     9    40    41   ar
    10    41    42   ar
    11    42    43   ar
    12    43    44   ar
    13    44    45   ar
    14    25    26    1
    15    26    27    2
    16    26    28   am
    17    28    30    1
    18    30    31   ar
    19    31    32   ar
    20    32    33   ar
    21    33    34   ar
    22    34    35   ar
    23     2     5    1
    24     5     6   ar
    25     6     7   ar
    26     7     8   ar
    27     8    12    1
    28    12    13    1
    29    13    14    1
    30    14    15    1
    31    15    18    1
    32    18    19   ar
    33    19    20   ar
    34    20    21   ar
    35    21    22   ar
    36    22    23    1
    37    22    24   ar
    38    15    16    1
    39    16    17    1
    40     8     9   ar
    41     9    10   ar
    42    10    11    1
    43    45    37   ar
    44    35    30   ar
    45    10     5   ar
    46    45    40   ar
    47    17    12    1
    48    24    18   ar
    49     3     4    1
    50    39    46    1
    51    28    29    1
@<TRIPOS>MOLECULE
*****
 46 51 0 0 0
SMALL
GASTEIGER

@<TRIPOS>ATOM
      1 O         -61.7044  -42.5640  -28.2650 O.2     1  UNL1       -0.2701
      2 C         -62.7636  -42.8621  -27.6477 C.2     1  UNL1        0.2483
      3 N         -63.8015  -43.5899  -28.3240 N.am    1  UNL1       -0.2945
      4 H         -64.7502  -43.6347  -27.8874 H       1  UNL1        0.1501
      5 C         -62.9301  -42.4282  -26.2424 C.ar    1  UNL1        0.0808
      6 C         -62.1355  -43.0072  -25.2391 C.ar    1  UNL1        0.0080
      7 C         -62.2735  -42.6115  -23.9065 C.ar    1  UNL1        0.0148
      8 C         -63.2142  -41.6334  -23.5484 C.ar    1  UNL1        0.0502
      9 C         -64.0276  -41.0720  -24.5451 C.ar    1  UNL1        0.0443
     10 C         -63.8910  -41.4638  -25.8807 C.ar    1  UNL1        0.1457
     11 F         -64.7318  -40.9332  -26.8044 F       1  UNL1       -0.2040
     12 N         -63.3662  -41.2372  -22.1717 N.pl3   1  UNL1       -0.3040
     13 C         -62.1965  -40.7502  -21.4219 C.3     1  UNL1        0.1122
     14 C         -62.6083  -40.1422  -20.0763 C.3     1  UNL1        0.1122
     15 N         -63.8041  -39.3060  -20.2543 N.pl3   1  UNL1       -0.3040
     16 C         -64.9839  -39.8590  -20.9399 C.3     1  UNL1        0.1122
     17 C         -64.6895  -41.2422  -21.5316 C.3     1  UNL1        0.1122
     18 C         -63.8092  -37.9297  -19.8289 C.ar    1  UNL1        0.0502
     19 C         -64.8005  -37.4599  -18.9489 C.ar    1  UNL1        0.0147
     20 C         -64.7962  -36.1272  -18.5261 C.ar    1  UNL1        0.0036
     21 C         -63.8025  -35.2533  -18.9737 C.ar    1  UNL1        0.0297
     22 C         -62.8089  -35.7115  -19.8430 C.ar    1  UNL1        0.1414
     23 F         -61.8447  -34.8625  -20.2767 F       1  UNL1       -0.2041
     24 C         -62.8088  -37.0442  -20.2675 C.ar    1  UNL1        0.0441
     25 C         -63.5865  -44.2046  -29.6384 C.3     1  UNL1        0.1535
     26 C         -64.6119  -45.2842  -29.8764 C.2     1  UNL1        0.2443
     27 O         -65.7970  -45.1191  -29.4771 O.2     1  UNL1       -0.2730
     28 N         -64.2383  -46.4812  -30.5773 N.am    1  UNL1       -0.2825
     29 H         -63.2236  -46.7290  -30.6141 H       1  UNL1        0.1549
     30 C         -65.1731  -47.3814  -31.1960 C.ar    1  UNL1        0.0535
     31 C         -65.6450  -47.1027  -32.4859 C.ar    1  UNL1        0.0353
     32 C         -66.5773  -47.9557  -33.0812 C.ar    1  UNL1        0.1002
     33 N         -67.0372  -49.0414  -32.4051 N.ar    1  UNL1       -0.2422
     34 C         -66.6137  -49.3272  -31.1456 C.ar    1  UNL1        0.1002
     35 C         -65.6805  -48.5010  -30.5144 C.ar    1  UNL1        0.0353
     36 C         -63.6575  -43.1388  -30.7486 C.3     1  UNL1        0.0569
     37 C         -62.5299  -43.2841  -31.7318 C.ar    1  UNL1       -0.0017
     38 C         -62.5890  -43.0376  -33.1005 C.ar    1  UNL1        0.0681
     39 N         -61.4221  -43.3790  -33.6928 N.ar    1  UNL1       -0.3523
     40 C         -60.6311  -43.8476  -32.7120 C.ar    1  UNL1        0.0563
     41 C         -59.3352  -44.3463  -32.8375 C.ar    1  UNL1        0.0170
     42 C         -58.6949  -44.8128  -31.6748 C.ar    1  UNL1        0.0015
     43 C         -59.3580  -44.7747  -30.4280 C.ar    1  UNL1        0.0001
     44 C         -60.6671  -44.2687  -30.3320 C.ar    1  UNL1        0.0012
     45 C         -61.2735  -43.8086  -31.5009 C.ar    1  UNL1        0.0131
     46 H         -61.1939  -43.3103  -34.7094 H       1  UNL1        0.1660
@<TRIPOS>BOND
     1     1     2    2
     2     2     3   am
     3     3    25    1
     4    25    36    1
     5    36    37    1
     6    37    38   ar
     7    38    39   ar
     8    39    40   ar
     9    40    41   ar
    10    41    42   ar
    11    42    43   ar
    12    43    44   ar
    13    44    45   ar
    14    25    26    1
    15    26    27    2
    16    26    28   am
    17    28    30    1
    18    30    31   ar
    19    31    32   ar
    20    32    33   ar
    21    33    34   ar
    22    34    35   ar
    23     2     5    1
    24     5     6   ar
    25     6     7   ar
    26     7     8   ar
    27     8    12    1
    28    12    13    1
    29    13    14    1
    30    14    15    1
    31    15    18    1
    32    18    19   ar
    33    19    20   ar
    34    20    21   ar
    35    21    22   ar
    36    22    23    1
    37    22    24   ar
    38    15    16    1
    39    16    17    1
    40     8     9   ar
    41     9    10   ar
    42    10    11    1
    43    45    37   ar
    44    35    30   ar
    45    10     5   ar
    46    45    40   ar
    47    17    12    1
    48    24    18   ar
    49     3     4    1
    50    39    46    1
    51    28    29    1
