@<TRIPOS>MOLECULE
*****
 47 52 0 0 0
SMALL
GASTEIGER

@<TRIPOS>ATOM
      1 C          60.3824   89.6593    5.3841 C.ar    1  UNL1        0.0702
      2 C          59.1356   90.2779    5.2410 C.ar    1  UNL1        0.0191
      3 C          58.8366   91.0010    4.0856 C.ar    1  UNL1        0.0356
      4 C          59.8042   91.1241    3.0734 C.ar    1  UNL1        0.1318
      5 N          61.0196   90.5325    3.2474 N.ar    1  UNL1       -0.2279
      6 C          61.3305   89.8192    4.3618 C.ar    1  UNL1        0.1149
      7 N          59.5345   91.8616    1.8612 N.pl3   1  UNL1       -0.2932
      8 C          59.5975   93.3312    1.8746 C.3     1  UNL1        0.0923
      9 C          60.0686   93.8474    0.5129 C.3     1  UNL1        0.0252
     10 C          59.1432   93.3885   -0.6444 C.3     1  UNL1        0.0472
     11 C          58.3488   92.1020   -0.3058 C.3     1  UNL1        0.0252
     12 C          59.1179   91.1635    0.6323 C.3     1  UNL1        0.0923
     13 C          59.9405   93.2159   -1.9483 C.3     1  UNL1        0.2054
     14 O          61.2704   93.7007   -1.7720 O.3     1  UNL1       -0.4755
     15 C          62.3266   92.9462   -1.2408 C.ar    1  UNL1        0.1388
     16 C          63.0260   91.9894   -1.9993 C.ar    1  UNL1        0.0369
     17 C          64.0703   91.2637   -1.4227 C.ar    1  UNL1        0.0033
     18 C          64.4277   91.4820   -0.0903 C.ar    1  UNL1        0.0066
     19 C          63.7410   92.4334    0.6828 C.ar    1  UNL1        0.0785
     20 C          62.6899   93.1609    0.0946 C.ar    1  UNL1        0.0433
     21 C          64.1213   92.6632    2.0942 C.2     1  UNL1        0.3381
     22 O          64.9754   93.5421    2.3907 O.2     1  UNL1       -0.2451
     23 O          63.5382   91.9098    3.1098 O.3     1  UNL1       -0.4771
     24 H          63.7913   92.0591    4.0793 H       1  UNL1        0.2954
     25 C          59.9329   87.8023    7.0582 C.2     1  UNL1        0.2839
     26 O          58.9932   87.3278    6.3659 O.2     1  UNL1       -0.2665
     27 N          60.6814   88.9385    6.5910 N.am    1  UNL1       -0.2766
     28 H          61.4576   89.3065    7.1828 H       1  UNL1        0.1553
     29 C          61.4137   84.9103   12.1139 C.ar    1  UNL1        0.0002
     30 C          60.6152   85.9572   12.6497 C.ar    1  UNL1        0.0031
     31 C          60.0326   86.9220   11.8091 C.ar    1  UNL1        0.0375
     32 C          60.2607   86.8190   10.4413 C.ar    1  UNL1        0.1452
     33 O          59.8127   87.6092    9.4963 O.2     1  UNL1       -0.4492
     34 C          60.2561   87.1503    8.3391 C.ar    1  UNL1        0.1946
     35 C          61.0534   86.0179    8.5470 C.ar    1  UNL1        0.0202
     36 C          61.8139   85.2108    7.5389 C.3     1  UNL1        0.0345
     37 C          61.0270   85.8165    9.9122 C.ar    1  UNL1        0.0337
     38 C          61.6222   84.8437   10.7153 C.ar    1  UNL1        0.0028
     39 C          63.1880   81.9790   14.7220 C.ar    1  UNL1        0.0073
     40 C          63.7873   82.2881   13.4922 C.ar    1  UNL1       -0.0019
     41 C          63.2142   83.2424   12.6468 C.ar    1  UNL1       -0.0002
     42 C          62.0239   83.8969   13.0116 C.ar    1  UNL1       -0.0000
     43 C          61.4173   83.5709   14.2380 C.ar    1  UNL1       -0.0002
     44 C          61.9910   82.6156   15.0819 C.ar    1  UNL1       -0.0019
     45 C          63.7824   80.9247   15.6108 C.3     1  UNL1        0.1687
     46 C          62.3264   79.8388   14.1963 C.3     1  UNL1        0.1746
     47 O          63.2197   79.6748   15.2745 O.3     1  UNL1       -0.3463
@<TRIPOS>BOND
     1    46    47    1
     2    47    45    1
     3    45    39    1
     4    39    40   ar
     5    40    41   ar
     6    41    42   ar
     7    42    29    1
     8    29    30   ar
     9    30    31   ar
    10    31    32   ar
    11    32    33   ar
    12    33    34   ar
    13    34    25    1
    14    25    26    2
    15    25    27   am
    16    27     1    1
    17     1     2   ar
    18     2     3   ar
    19     3     4   ar
    20     4     7    1
    21     7     8    1
    22     8     9    1
    23     9    10    1
    24    10    13    1
    25    13    14    1
    26    14    15    1
    27    15    16   ar
    28    16    17   ar
    29    17    18   ar
    30    18    19   ar
    31    19    21    1
    32    21    22    2
    33    21    23    1
    34    19    20   ar
    35    10    11    1
    36    11    12    1
    37     4     5   ar
    38     5     6   ar
    39    34    35   ar
    40    35    36    1
    41    35    37   ar
    42    37    38   ar
    43    42    43   ar
    44    43    44   ar
    45    44    39   ar
    46    38    29   ar
    47    37    32   ar
    48     6     1   ar
    49    12     7    1
    50    20    15   ar
    51    27    28    1
    52    23    24    1
