@<TRIPOS>MOLECULE
*****
 47 52 0 0 0
SMALL
GASTEIGER

@<TRIPOS>ATOM
      1 C          60.8104   89.8173    9.5259 C.ar    1  UNL1        0.0702
      2 C          59.8528   90.1508   10.4907 C.ar    1  UNL1        0.0191
      3 C          59.8595   89.5224   11.7367 C.ar    1  UNL1        0.0356
      4 C          60.8432   88.5605   12.0244 C.ar    1  UNL1        0.1318
      5 N          61.7835   88.2760   11.0800 N.ar    1  UNL1       -0.2279
      6 C          61.7941   88.8727    9.8588 C.ar    1  UNL1        0.1149
      7 N          60.8858   87.8887   13.3022 N.pl3   1  UNL1       -0.2932
      8 C          60.6878   88.6400   14.5539 C.3     1  UNL1        0.0923
      9 C          60.1880   87.7237   15.6776 C.3     1  UNL1        0.0252
     10 C          61.1155   86.5042   15.9090 C.3     1  UNL1        0.0472
     11 C          61.8173   86.0263   14.6109 C.3     1  UNL1        0.0252
     12 C          61.0461   86.4272   13.3509 C.3     1  UNL1        0.0923
     13 C          62.1456   86.7976   17.0125 C.3     1  UNL1        0.2054
     14 O          63.4099   87.1045   16.4277 O.3     1  UNL1       -0.4755
     15 C          63.7204   88.3196   15.7999 C.ar    1  UNL1        0.1388
     16 C          64.0998   88.3940   14.4469 C.ar    1  UNL1        0.0369
     17 C          64.3996   89.6293   13.8692 C.ar    1  UNL1        0.0033
     18 C          64.3250   90.7985   14.6293 C.ar    1  UNL1        0.0066
     19 C          63.9475   90.7436   15.9825 C.ar    1  UNL1        0.0785
     20 C          63.6470   89.4957   16.5570 C.ar    1  UNL1        0.0433
     21 C          63.8663   91.9784   16.7938 C.2     1  UNL1        0.3381
     22 O          62.8030   92.6556   16.8218 O.2     1  UNL1       -0.2451
     23 O          64.9653   92.4049   17.5351 O.3     1  UNL1       -0.4771
     24 H          64.9204   93.2488   18.0938 H       1  UNL1        0.2954
     25 C          60.1020   90.0128    7.0959 C.2     1  UNL1        0.2839
     26 O          59.2268   89.1140    7.2138 O.2     1  UNL1       -0.2665
     27 N          60.8048   90.4902    8.2550 N.am    1  UNL1       -0.2766
     28 H          61.2782   91.4201    8.1954 H       1  UNL1        0.1553
     29 C          57.9287   91.2566    5.0737 C.3     1  UNL1        0.0345
     30 C          59.4218   91.2272    4.9170 C.ar    1  UNL1        0.0214
     31 C          60.3540   90.6341    5.7798 C.ar    1  UNL1        0.1947
     32 O          61.5601   90.7033    5.2533 O.2     1  UNL1       -0.4492
     33 C          61.4693   91.3301    4.1080 C.ar    1  UNL1        0.1464
     34 C          62.5073   91.5876    3.2227 C.ar    1  UNL1        0.0376
     35 C          62.2085   92.2622    2.0322 C.ar    1  UNL1        0.0043
     36 C          60.8889   92.6938    1.7519 C.ar    1  UNL1        0.0131
     37 C          59.8418   92.4215    2.6786 C.ar    1  UNL1        0.0442
     38 N          58.5031   92.8689    2.4292 N.pl3   1  UNL1       -0.3569
     39 C          60.1747   91.7128    3.8512 C.ar    1  UNL1        0.0466
     40 H          58.1638   93.0412    1.4574 H       1  UNL1        0.1424
     41 H          57.8750   93.1497    3.2117 H       1  UNL1        0.1424
     42 C          60.6494   93.4662    0.5119 C.ar    1  UNL1        0.0012
     43 C          59.4096   94.0917    0.2979 C.ar    1  UNL1        0.0000
     44 C          59.1746   94.8053   -0.8815 C.ar    1  UNL1        0.0000
     45 C          60.1704   94.8920   -1.8582 C.ar    1  UNL1        0.0000
     46 C          61.4019   94.2622   -1.6588 C.ar    1  UNL1        0.0000
     47 C          61.6411   93.5475   -0.4810 C.ar    1  UNL1        0.0000
@<TRIPOS>BOND
     1    29    30    1
     2    30    31   ar
     3    31    25    1
     4    25    26    2
     5    25    27   am
     6    27     1    1
     7     1     2   ar
     8     2     3   ar
     9     3     4   ar
    10     4     7    1
    11     7     8    1
    12     8     9    1
    13     9    10    1
    14    10    13    1
    15    13    14    1
    16    14    15    1
    17    15    16   ar
    18    16    17   ar
    19    17    18   ar
    20    18    19   ar
    21    19    21    1
    22    21    22    2
    23    21    23    1
    24    19    20   ar
    25    10    11    1
    26    11    12    1
    27     4     5   ar
    28     5     6   ar
    29    31    32   ar
    30    32    33   ar
    31    33    34   ar
    32    34    35   ar
    33    35    36   ar
    34    36    42    1
    35    42    43   ar
    36    43    44   ar
    37    44    45   ar
    38    45    46   ar
    39    46    47   ar
    40    36    37   ar
    41    37    38    1
    42    37    39   ar
    43    39    30   ar
    44     6     1   ar
    45    39    33   ar
    46    12     7    1
    47    47    42   ar
    48    20    15   ar
    49    27    28    1
    50    23    24    1
    51    38    40    1
    52    38    41    1
@<TRIPOS>MOLECULE
*****
 47 52 0 0 0
SMALL
GASTEIGER

@<TRIPOS>ATOM
      1 C          58.9600   90.2898    5.9729 C.ar    1  UNL1        0.0702
      2 C          57.8245   90.8474    5.3739 C.ar    1  UNL1        0.0191
      3 C          57.9563   91.7486    4.3166 C.ar    1  UNL1        0.0356
      4 C          59.2373   92.0843    3.8454 C.ar    1  UNL1        0.1318
      5 N          60.3260   91.5040    4.4244 N.ar    1  UNL1       -0.2279
      6 C          60.2216   90.6268    5.4574 C.ar    1  UNL1        0.1149
      7 N          59.4166   93.0113    2.7525 N.pl3   1  UNL1       -0.2932
      8 C          59.0535   92.6309    1.3763 C.3     1  UNL1        0.0923
      9 C          58.7570   93.8674    0.5190 C.3     1  UNL1        0.0252
     10 C          59.9248   94.8859    0.5180 C.3     1  UNL1        0.0472
     11 C          60.7209   94.8906    1.8493 C.3     1  UNL1        0.0252
     12 C          59.8887   94.3773    3.0270 C.3     1  UNL1        0.0923
     13 C          60.8607   94.6493   -0.6791 C.3     1  UNL1        0.2054
     14 O          61.5097   93.3861   -0.5461 O.3     1  UNL1       -0.4755
     15 C          62.7079   93.1787    0.1526 C.ar    1  UNL1        0.1388
     16 C          63.9188   93.7848   -0.2302 C.ar    1  UNL1        0.0369
     17 C          65.0849   93.5450    0.4993 C.ar    1  UNL1        0.0033
     18 C          65.0578   92.7028    1.6130 C.ar    1  UNL1        0.0066
     19 C          63.8571   92.0886    2.0105 C.ar    1  UNL1        0.0785
     20 C          62.6869   92.3353    1.2706 C.ar    1  UNL1        0.0433
     21 C          63.8211   91.1951    3.1894 C.2     1  UNL1        0.3381
     22 O          62.8302   91.2060    3.9692 O.2     1  UNL1       -0.2451
     23 O          64.8830   90.3325    3.4494 O.3     1  UNL1       -0.4771
     24 H          64.8684   89.7168    4.2537 H       1  UNL1        0.2954
     25 C          59.8182   89.0781    8.0321 C.2     1  UNL1        0.2839
     26 O          60.7943   89.8639    8.1643 O.2     1  UNL1       -0.2665
     27 N          58.8073   89.3449    7.0461 N.am    1  UNL1       -0.2766
     28 H          57.8768   88.8822    7.1575 H       1  UNL1        0.1553
     29 C          60.0631   85.9575    7.2835 C.3     1  UNL1        0.0345
     30 C          59.8263   86.5643    8.6364 C.ar    1  UNL1        0.0214
     31 C          59.6678   87.9235    8.9407 C.ar    1  UNL1        0.1947
     32 O          59.3553   88.0649   10.2132 O.2     1  UNL1       -0.4492
     33 C          59.3260   86.8763   10.7600 C.ar    1  UNL1        0.1464
     34 C          59.0097   86.5816   12.0793 C.ar    1  UNL1        0.0376
     35 C          59.0172   85.2384   12.4766 C.ar    1  UNL1        0.0043
     36 C          59.3644   84.2119   11.5646 C.ar    1  UNL1        0.0131
     37 C          59.6896   84.5404   10.2171 C.ar    1  UNL1        0.0442
     38 N          60.0676   83.5223    9.2817 N.pl3   1  UNL1       -0.3569
     39 C          59.6407   85.8998    9.8457 C.ar    1  UNL1        0.0466
     40 H          59.7570   82.5336    9.4051 H       1  UNL1        0.1424
     41 H          60.7585   83.7155    8.5260 H       1  UNL1        0.1424
     42 C          59.4258   82.8191   12.0625 C.ar    1  UNL1        0.0012
     43 C          60.4480   82.4287   12.9440 C.ar    1  UNL1        0.0000
     44 C          60.5192   81.1087   13.4000 C.ar    1  UNL1        0.0000
     45 C          59.5776   80.1682   12.9733 C.ar    1  UNL1        0.0000
     46 C          58.5652   80.5453   12.0868 C.ar    1  UNL1        0.0000
     47 C          58.4903   81.8640   11.6282 C.ar    1  UNL1        0.0000
@<TRIPOS>BOND
     1    29    30    1
     2    30    31   ar
     3    31    25    1
     4    25    26    2
     5    25    27   am
     6    27     1    1
     7     1     2   ar
     8     2     3   ar
     9     3     4   ar
    10     4     7    1
    11     7     8    1
    12     8     9    1
    13     9    10    1
    14    10    13    1
    15    13    14    1
    16    14    15    1
    17    15    16   ar
    18    16    17   ar
    19    17    18   ar
    20    18    19   ar
    21    19    21    1
    22    21    22    2
    23    21    23    1
    24    19    20   ar
    25    10    11    1
    26    11    12    1
    27     4     5   ar
    28     5     6   ar
    29    31    32   ar
    30    32    33   ar
    31    33    34   ar
    32    34    35   ar
    33    35    36   ar
    34    36    42    1
    35    42    43   ar
    36    43    44   ar
    37    44    45   ar
    38    45    46   ar
    39    46    47   ar
    40    36    37   ar
    41    37    38    1
    42    37    39   ar
    43    39    30   ar
    44     6     1   ar
    45    39    33   ar
    46    12     7    1
    47    47    42   ar
    48    20    15   ar
    49    27    28    1
    50    23    24    1
    51    38    40    1
    52    38    41    1
@<TRIPOS>MOLECULE
*****
 47 52 0 0 0
SMALL
GASTEIGER

@<TRIPOS>ATOM
      1 C          60.9162   89.9822    9.7154 C.ar    1  UNL1        0.0702
      2 C          59.9752   90.3244   10.6934 C.ar    1  UNL1        0.0191
      3 C          60.0344   89.7448   11.9614 C.ar    1  UNL1        0.0356
      4 C          61.0541   88.8238   12.2574 C.ar    1  UNL1        0.1318
      5 N          61.9769   88.5307   11.2984 N.ar    1  UNL1       -0.2279
      6 C          61.9366   89.0801   10.0558 C.ar    1  UNL1        0.1149
      7 N          61.1514   88.2030   13.5579 N.pl3   1  UNL1       -0.2932
      8 C          62.4356   88.1651   14.2790 C.3     1  UNL1        0.0923
      9 C          62.2188   88.0284   15.7910 C.3     1  UNL1        0.0252
     10 C          61.3449   86.8030   16.1593 C.3     1  UNL1        0.0472
     11 C          60.2929   86.4645   15.0708 C.3     1  UNL1        0.0252
     12 C          59.9399   87.6767   14.2055 C.3     1  UNL1        0.0923
     13 C          62.2194   85.5782   16.4758 C.3     1  UNL1        0.2054
     14 O          61.9449   84.5321   15.5458 O.3     1  UNL1       -0.4755
     15 C          62.7326   84.2414   14.4224 C.ar    1  UNL1        0.1388
     16 C          63.9802   83.5980   14.5222 C.ar    1  UNL1        0.0369
     17 C          64.7263   83.3318   13.3724 C.ar    1  UNL1        0.0033
     18 C          64.2401   83.7018   12.1165 C.ar    1  UNL1        0.0066
     19 C          62.9957   84.3452   11.9974 C.ar    1  UNL1        0.0785
     20 C          62.2502   84.6096   13.1601 C.ar    1  UNL1        0.0433
     21 C          62.4745   84.7400   10.6700 C.2     1  UNL1        0.3381
     22 O          61.8401   83.9124    9.9609 O.2     1  UNL1       -0.2451
     23 O          62.6802   86.0311   10.1905 O.3     1  UNL1       -0.4771
     24 H          62.3277   86.3116    9.2832 H       1  UNL1        0.2954
     25 C          60.2493   90.0023    7.2659 C.2     1  UNL1        0.2839
     26 O          59.4939   89.0026    7.3989 O.2     1  UNL1       -0.2665
     27 N          60.8560   90.6053    8.4207 N.am    1  UNL1       -0.2766
     28 H          61.2076   91.5859    8.3365 H       1  UNL1        0.1553
     29 C          57.9897   91.0908    5.2489 C.3     1  UNL1        0.0345
     30 C          59.4801   91.1324    5.0714 C.ar    1  UNL1        0.0214
     31 C          60.4523   90.6059    5.9333 C.ar    1  UNL1        0.1947
     32 O          61.6463   90.7235    5.3880 O.2     1  UNL1       -0.4492
     33 C          61.5090   91.3194    4.2310 C.ar    1  UNL1        0.1464
     34 C          62.5209   91.6086    3.3255 C.ar    1  UNL1        0.0376
     35 C          62.1728   92.2408    2.1251 C.ar    1  UNL1        0.0043
     36 C          60.8297   92.5997    1.8546 C.ar    1  UNL1        0.0131
     37 C          59.8099   92.2962    2.8019 C.ar    1  UNL1        0.0442
     38 N          58.4473   92.6706    2.5622 N.pl3   1  UNL1       -0.3569
     39 C          60.1935   91.6312    3.9847 C.ar    1  UNL1        0.0466
     40 H          58.0868   92.8042    1.5920 H       1  UNL1        0.1424
     41 H          57.8163   92.9371    3.3475 H       1  UNL1        0.1424
     42 C          60.5352   93.3315    0.6019 C.ar    1  UNL1        0.0012
     43 C          59.4435   94.2137    0.5392 C.ar    1  UNL1        0.0000
     44 C          59.1519   94.8909   -0.6490 C.ar    1  UNL1        0.0000
     45 C          59.9412   94.6860   -1.7840 C.ar    1  UNL1        0.0000
     46 C          61.0213   93.8006   -1.7338 C.ar    1  UNL1        0.0000
     47 C          61.3164   93.1213   -0.5478 C.ar    1  UNL1        0.0000
@<TRIPOS>BOND
     1    29    30    1
     2    30    31   ar
     3    31    25    1
     4    25    26    2
     5    25    27   am
     6    27     1    1
     7     1     2   ar
     8     2     3   ar
     9     3     4   ar
    10     4     7    1
    11     7     8    1
    12     8     9    1
    13     9    10    1
    14    10    13    1
    15    13    14    1
    16    14    15    1
    17    15    16   ar
    18    16    17   ar
    19    17    18   ar
    20    18    19   ar
    21    19    21    1
    22    21    22    2
    23    21    23    1
    24    19    20   ar
    25    10    11    1
    26    11    12    1
    27     4     5   ar
    28     5     6   ar
    29    31    32   ar
    30    32    33   ar
    31    33    34   ar
    32    34    35   ar
    33    35    36   ar
    34    36    42    1
    35    42    43   ar
    36    43    44   ar
    37    44    45   ar
    38    45    46   ar
    39    46    47   ar
    40    36    37   ar
    41    37    38    1
    42    37    39   ar
    43    39    30   ar
    44     6     1   ar
    45    39    33   ar
    46    12     7    1
    47    47    42   ar
    48    20    15   ar
    49    27    28    1
    50    23    24    1
    51    38    40    1
    52    38    41    1
@<TRIPOS>MOLECULE
*****
 47 52 0 0 0
SMALL
GASTEIGER

@<TRIPOS>ATOM
      1 C          59.7993   88.8483    7.6815 C.ar    1  UNL1        0.0702
      2 C          60.2210   88.9096    9.0147 C.ar    1  UNL1        0.0191
      3 C          59.8247   87.9288    9.9248 C.ar    1  UNL1        0.0356
      4 C          59.0093   86.8687    9.4925 C.ar    1  UNL1        0.1318
      5 N          58.6378   86.8143    8.1825 N.ar    1  UNL1       -0.2279
      6 C          59.0087   87.7600    7.2796 C.ar    1  UNL1        0.1149
      7 N          58.5787   85.8329   10.4024 N.pl3   1  UNL1       -0.2932
      8 C          58.9256   85.8965   11.8328 C.3     1  UNL1        0.0923
      9 C          57.9303   85.0953   12.6810 C.3     1  UNL1        0.0252
     10 C          57.7968   83.6244   12.2123 C.3     1  UNL1        0.0472
     11 C          58.0072   83.4576   10.6846 C.3     1  UNL1        0.0252
     12 C          57.7158   84.7468    9.9127 C.3     1  UNL1        0.0923
     13 C          58.7476   82.7072   12.9996 C.3     1  UNL1        0.2054
     14 O          59.9989   83.3620   13.1999 O.3     1  UNL1       -0.4755
     15 C          61.2492   82.7820   12.9401 C.ar    1  UNL1        0.1388
     16 C          61.8209   81.8126   13.7848 C.ar    1  UNL1        0.0369
     17 C          63.0696   81.2663   13.4815 C.ar    1  UNL1        0.0033
     18 C          63.7591   81.6776   12.3387 C.ar    1  UNL1        0.0066
     19 C          63.2033   82.6449   11.4830 C.ar    1  UNL1        0.0785
     20 C          61.9453   83.1902   11.7954 C.ar    1  UNL1        0.0433
     21 C          63.9283   83.0854   10.2706 C.2     1  UNL1        0.3381
     22 O          65.0321   82.5605    9.9603 O.2     1  UNL1       -0.2451
     23 O          63.3976   84.0853    9.4597 O.3     1  UNL1       -0.4771
     24 H          63.8858   84.3943    8.6275 H       1  UNL1        0.2954
     25 C          59.3770   90.4763    5.7797 C.2     1  UNL1        0.2839
     26 O          58.1259   90.3652    5.8795 O.2     1  UNL1       -0.2665
     27 N          60.2350   89.8537    6.7501 N.am    1  UNL1       -0.2766
     28 H          61.2156   90.2047    6.8374 H       1  UNL1        0.1553
     29 C          62.3003   90.1922    4.4633 C.3     1  UNL1        0.0345
     30 C          61.2140   91.1609    4.0940 C.ar    1  UNL1        0.0214
     31 C          59.9644   91.3102    4.7116 C.ar    1  UNL1        0.1947
     32 O          59.3284   92.3419    4.1938 O.2     1  UNL1       -0.4492
     33 C          60.0830   92.8572    3.2569 C.ar    1  UNL1        0.1464
     34 C          59.7943   93.9745    2.4851 C.ar    1  UNL1        0.0376
     35 C          60.7400   94.3853    1.5371 C.ar    1  UNL1        0.0043
     36 C          61.9452   93.6646    1.3521 C.ar    1  UNL1        0.0131
     37 C          62.2163   92.5185    2.1535 C.ar    1  UNL1        0.0442
     38 N          63.4174   91.7584    1.9689 N.pl3   1  UNL1       -0.3569
     39 C          61.2554   92.1537    3.1188 C.ar    1  UNL1        0.0466
     40 H          64.2746   92.1936    1.5625 H       1  UNL1        0.1424
     41 H          63.4306   90.7276    2.1202 H       1  UNL1        0.1424
     42 C          62.8717   94.1046    0.2846 C.ar    1  UNL1        0.0012
     43 C          62.4575   94.0954   -1.0580 C.ar    1  UNL1        0.0000
     44 C          63.3376   94.4919   -2.0697 C.ar    1  UNL1        0.0000
     45 C          64.6382   94.8913   -1.7502 C.ar    1  UNL1        0.0000
     46 C          65.0622   94.8914   -0.4186 C.ar    1  UNL1        0.0000
     47 C          64.1855   94.4956    0.5963 C.ar    1  UNL1        0.0000
@<TRIPOS>BOND
     1    29    30    1
     2    30    31   ar
     3    31    25    1
     4    25    26    2
     5    25    27   am
     6    27     1    1
     7     1     2   ar
     8     2     3   ar
     9     3     4   ar
    10     4     7    1
    11     7     8    1
    12     8     9    1
    13     9    10    1
    14    10    13    1
    15    13    14    1
    16    14    15    1
    17    15    16   ar
    18    16    17   ar
    19    17    18   ar
    20    18    19   ar
    21    19    21    1
    22    21    22    2
    23    21    23    1
    24    19    20   ar
    25    10    11    1
    26    11    12    1
    27     4     5   ar
    28     5     6   ar
    29    31    32   ar
    30    32    33   ar
    31    33    34   ar
    32    34    35   ar
    33    35    36   ar
    34    36    42    1
    35    42    43   ar
    36    43    44   ar
    37    44    45   ar
    38    45    46   ar
    39    46    47   ar
    40    36    37   ar
    41    37    38    1
    42    37    39   ar
    43    39    30   ar
    44     6     1   ar
    45    39    33   ar
    46    12     7    1
    47    47    42   ar
    48    20    15   ar
    49    27    28    1
    50    23    24    1
    51    38    40    1
    52    38    41    1
@<TRIPOS>MOLECULE
*****
 47 52 0 0 0
SMALL
GASTEIGER

@<TRIPOS>ATOM
      1 C          61.8994   86.9081   10.9984 C.ar    1  UNL1        0.0702
      2 C          60.8771   86.2553   11.6968 C.ar    1  UNL1        0.0191
      3 C          60.0843   85.3016   11.0570 C.ar    1  UNL1        0.0356
      4 C          60.3265   84.9886    9.7082 C.ar    1  UNL1        0.1318
      5 N          61.3479   85.6150    9.0589 N.ar    1  UNL1       -0.2279
      6 C          62.1301   86.5494    9.6608 C.ar    1  UNL1        0.1149
      7 N          59.5300   84.0065    9.0103 N.pl3   1  UNL1       -0.2932
      8 C          58.2807   83.4946    9.6000 C.3     1  UNL1        0.0923
      9 C          57.3318   82.9667    8.5171 C.3     1  UNL1        0.0252
     10 C          57.9941   81.8946    7.6154 C.3     1  UNL1        0.0472
     11 C          59.5191   82.1155    7.4379 C.3     1  UNL1        0.0252
     12 C          59.9259   83.5742    7.6611 C.3     1  UNL1        0.0923
     13 C          57.7030   80.4784    8.1394 C.3     1  UNL1        0.2054
     14 O          57.5674   80.5041    9.5592 O.3     1  UNL1       -0.4755
     15 C          58.6309   80.3545   10.4612 C.ar    1  UNL1        0.1388
     16 C          58.4435   80.3627   11.8559 C.ar    1  UNL1        0.0369
     17 C          59.5364   80.2104   12.7115 C.ar    1  UNL1        0.0033
     18 C          60.8217   80.0489   12.1897 C.ar    1  UNL1        0.0066
     19 C          61.0280   80.0380   10.7990 C.ar    1  UNL1        0.0785
     20 C          59.9222   80.1918    9.9439 C.ar    1  UNL1        0.0433
     21 C          62.3871   79.8673   10.2393 C.2     1  UNL1        0.3381
     22 O          63.2334   80.7985   10.3217 O.2     1  UNL1       -0.2451
     23 O          62.7448   78.6750    9.6152 O.3     1  UNL1       -0.4771
     24 H          63.6725   78.5479    9.2286 H       1  UNL1        0.2954
     25 C          62.5552   89.2944   11.5647 C.2     1  UNL1        0.2839
     26 O          61.4964   89.7683   11.0725 O.2     1  UNL1       -0.2665
     27 N          62.7230   87.8716   11.6777 N.am    1  UNL1       -0.2766
     28 H          63.4360   87.5120   12.3520 H       1  UNL1        0.1553
     29 C          64.1873   88.9842   14.3213 C.3     1  UNL1        0.0345
     30 C          64.3486   90.0437   13.2697 C.ar    1  UNL1        0.0214
     31 C          63.5940   90.1985   12.0984 C.ar    1  UNL1        0.1947
     32 O          63.9429   91.3108   11.4836 O.2     1  UNL1       -0.4492
     33 C          64.8993   91.8759   12.1755 C.ar    1  UNL1        0.1464
     34 C          65.5273   93.0799   11.8864 C.ar    1  UNL1        0.0376
     35 C          66.5244   93.5317   12.7602 C.ar    1  UNL1        0.0043
     36 C          66.9005   92.7680   13.8922 C.ar    1  UNL1        0.0131
     37 C          66.2441   91.5334   14.1648 C.ar    1  UNL1        0.0442
     38 N          66.6232   90.7308   15.2902 N.pl3   1  UNL1       -0.3569
     39 C          65.2240   91.1263   13.2806 C.ar    1  UNL1        0.0466
     40 H          67.0725   91.1569   16.1303 H       1  UNL1        0.1424
     41 H          66.5728   89.6908   15.2509 H       1  UNL1        0.1424
     42 C          68.0111   93.2620   14.7371 C.ar    1  UNL1        0.0012
     43 C          69.3025   92.7285   14.5889 C.ar    1  UNL1        0.0000
     44 C          70.3488   93.1797   15.3995 C.ar    1  UNL1        0.0000
     45 C          70.1123   94.1587   16.3684 C.ar    1  UNL1        0.0000
     46 C          68.8281   94.6856   16.5309 C.ar    1  UNL1        0.0000
     47 C          67.7790   94.2371   15.7226 C.ar    1  UNL1        0.0000
@<TRIPOS>BOND
     1    29    30    1
     2    30    31   ar
     3    31    25    1
     4    25    26    2
     5    25    27   am
     6    27     1    1
     7     1     2   ar
     8     2     3   ar
     9     3     4   ar
    10     4     7    1
    11     7     8    1
    12     8     9    1
    13     9    10    1
    14    10    13    1
    15    13    14    1
    16    14    15    1
    17    15    16   ar
    18    16    17   ar
    19    17    18   ar
    20    18    19   ar
    21    19    21    1
    22    21    22    2
    23    21    23    1
    24    19    20   ar
    25    10    11    1
    26    11    12    1
    27     4     5   ar
    28     5     6   ar
    29    31    32   ar
    30    32    33   ar
    31    33    34   ar
    32    34    35   ar
    33    35    36   ar
    34    36    42    1
    35    42    43   ar
    36    43    44   ar
    37    44    45   ar
    38    45    46   ar
    39    46    47   ar
    40    36    37   ar
    41    37    38    1
    42    37    39   ar
    43    39    30   ar
    44     6     1   ar
    45    39    33   ar
    46    12     7    1
    47    47    42   ar
    48    20    15   ar
    49    27    28    1
    50    23    24    1
    51    38    40    1
    52    38    41    1
@<TRIPOS>MOLECULE
*****
 47 52 0 0 0
SMALL
GASTEIGER

@<TRIPOS>ATOM
      1 C          61.9496   86.8737   10.8452 C.ar    1  UNL1        0.0702
      2 C          60.7151   86.4766   11.3721 C.ar    1  UNL1        0.0191
      3 C          59.9488   85.5099   10.7197 C.ar    1  UNL1        0.0356
      4 C          60.4296   84.9251    9.5355 C.ar    1  UNL1        0.1318
      5 N          61.6486   85.3057    9.0596 N.ar    1  UNL1       -0.2279
      6 C          62.4102   86.2476    9.6761 C.ar    1  UNL1        0.1149
      7 N          59.6682   83.9201    8.8310 N.pl3   1  UNL1       -0.2932
      8 C          58.2972   83.5828    9.2521 C.3     1  UNL1        0.0923
      9 C          57.4913   82.9871    8.0914 C.3     1  UNL1        0.0252
     10 C          58.1873   81.7599    7.4505 C.3     1  UNL1        0.0472
     11 C          59.7349   81.8439    7.5144 C.3     1  UNL1        0.0252
     12 C          60.2353   83.2857    7.6310 C.3     1  UNL1        0.0923
     13 C          57.6832   80.4503    8.0795 C.3     1  UNL1        0.2054
     14 O          57.2694   80.6851    9.4242 O.3     1  UNL1       -0.4755
     15 C          57.9688   80.2472   10.5582 C.ar    1  UNL1        0.1388
     16 C          57.9611   78.9037   10.9768 C.ar    1  UNL1        0.0369
     17 C          58.6739   78.5191   12.1141 C.ar    1  UNL1        0.0033
     18 C          59.3989   79.4641   12.8434 C.ar    1  UNL1        0.0066
     19 C          59.4183   80.8108   12.4402 C.ar    1  UNL1        0.0785
     20 C          58.6979   81.1902   11.2936 C.ar    1  UNL1        0.0433
     21 C          60.1843   81.8173   13.2082 C.2     1  UNL1        0.3381
     22 O          60.0555   83.0462   12.9568 O.2     1  UNL1       -0.2451
     23 O          61.0559   81.4161   14.2174 O.3     1  UNL1       -0.4771
     24 H          61.5851   82.0969   14.7491 H       1  UNL1        0.2954
     25 C          62.6093   89.2727   11.3501 C.2     1  UNL1        0.2839
     26 O          61.6015   89.7406   10.7559 O.2     1  UNL1       -0.2665
     27 N          62.7384   87.8542   11.5413 N.am    1  UNL1       -0.2766
     28 H          63.3899   87.5149   12.2847 H       1  UNL1        0.1553
     29 C          64.1442   88.9720   14.1630 C.3     1  UNL1        0.0345
     30 C          64.3361   90.0329   13.1178 C.ar    1  UNL1        0.0214
     31 C          63.6227   90.1832   11.9205 C.ar    1  UNL1        0.1947
     32 O          63.9861   91.2979   11.3186 O.2     1  UNL1       -0.4492
     33 C          64.9137   91.8689   12.0441 C.ar    1  UNL1        0.1464
     34 C          65.5439   93.0769   11.7777 C.ar    1  UNL1        0.0376
     35 C          66.5064   93.5348   12.6864 C.ar    1  UNL1        0.0043
     36 C          66.8468   92.7732   13.8311 C.ar    1  UNL1        0.0131
     37 C          66.1891   91.5343   14.0800 C.ar    1  UNL1        0.0442
     38 N          66.5329   90.7338   15.2181 N.pl3   1  UNL1       -0.3569
     39 C          65.2036   91.1211   13.1600 C.ar    1  UNL1        0.0466
     40 H          66.9494   91.1625   16.0737 H       1  UNL1        0.1424
     41 H          66.4906   89.6935   15.1769 H       1  UNL1        0.1424
     42 C          67.9235   93.2740   14.7150 C.ar    1  UNL1        0.0012
     43 C          69.1990   92.6858   14.6774 C.ar    1  UNL1        0.0000
     44 C          70.2118   93.1443   15.5255 C.ar    1  UNL1        0.0000
     45 C          69.9569   94.1856   16.4221 C.ar    1  UNL1        0.0000
     46 C          68.6875   94.7677   16.4748 C.ar    1  UNL1        0.0000
     47 C          67.6718   94.3122   15.6286 C.ar    1  UNL1        0.0000
@<TRIPOS>BOND
     1    29    30    1
     2    30    31   ar
     3    31    25    1
     4    25    26    2
     5    25    27   am
     6    27     1    1
     7     1     2   ar
     8     2     3   ar
     9     3     4   ar
    10     4     7    1
    11     7     8    1
    12     8     9    1
    13     9    10    1
    14    10    13    1
    15    13    14    1
    16    14    15    1
    17    15    16   ar
    18    16    17   ar
    19    17    18   ar
    20    18    19   ar
    21    19    21    1
    22    21    22    2
    23    21    23    1
    24    19    20   ar
    25    10    11    1
    26    11    12    1
    27     4     5   ar
    28     5     6   ar
    29    31    32   ar
    30    32    33   ar
    31    33    34   ar
    32    34    35   ar
    33    35    36   ar
    34    36    42    1
    35    42    43   ar
    36    43    44   ar
    37    44    45   ar
    38    45    46   ar
    39    46    47   ar
    40    36    37   ar
    41    37    38    1
    42    37    39   ar
    43    39    30   ar
    44     6     1   ar
    45    39    33   ar
    46    12     7    1
    47    47    42   ar
    48    20    15   ar
    49    27    28    1
    50    23    24    1
    51    38    40    1
    52    38    41    1
@<TRIPOS>MOLECULE
*****
 47 52 0 0 0
SMALL
GASTEIGER

@<TRIPOS>ATOM
      1 C          61.4569   90.0070    9.6441 C.ar    1  UNL1        0.0702
      2 C          62.3979   90.5150   10.5472 C.ar    1  UNL1        0.0191
      3 C          62.5887   89.9011   11.7857 C.ar    1  UNL1        0.0356
      4 C          61.8396   88.7591   12.1178 C.ar    1  UNL1        0.1318
      5 N          60.9521   88.2652   11.2091 N.ar    1  UNL1       -0.2279
      6 C          60.7473   88.8487    9.9988 C.ar    1  UNL1        0.1149
      7 N          62.0082   88.0934   13.3885 N.pl3   1  UNL1       -0.2932
      8 C          63.1730   87.2254   13.6340 C.3     1  UNL1        0.0923
      9 C          63.4755   87.1142   15.1334 C.3     1  UNL1        0.0252
     10 C          62.2512   86.6370   15.9546 C.3     1  UNL1        0.0472
     11 C          60.9010   87.0989   15.3465 C.3     1  UNL1        0.0252
     12 C          61.0519   88.3493   14.4766 C.3     1  UNL1        0.0923
     13 C          62.2745   85.1107   16.1411 C.3     1  UNL1        0.2054
     14 O          61.7594   84.4710   14.9748 O.3     1  UNL1       -0.4755
     15 C          62.0807   83.1647   14.5782 C.ar    1  UNL1        0.1388
     16 C          63.2128   82.4856   15.0655 C.ar    1  UNL1        0.0369
     17 C          63.4888   81.1853   14.6383 C.ar    1  UNL1        0.0033
     18 C          62.6441   80.5501   13.7254 C.ar    1  UNL1        0.0066
     19 C          61.5083   81.2128   13.2280 C.ar    1  UNL1        0.0785
     20 C          61.2371   82.5223   13.6632 C.ar    1  UNL1        0.0433
     21 C          60.6090   80.5459   12.2605 C.2     1  UNL1        0.3381
     22 O          59.3982   80.3434   12.5487 O.2     1  UNL1       -0.2451
     23 O          61.0921   80.1349   11.0208 O.3     1  UNL1       -0.4771
     24 H          60.4850   79.6774   10.3513 H       1  UNL1        0.2954
     25 C          60.5353   90.0661    7.2793 C.2     1  UNL1        0.2839
     26 O          59.7533   89.1015    7.4932 O.2     1  UNL1       -0.2665
     27 N          61.2882   90.6367    8.3623 N.am    1  UNL1       -0.2766
     28 H          61.6734   91.6005    8.2399 H       1  UNL1        0.1553
     29 C          58.1012   91.0279    5.4060 C.3     1  UNL1        0.0345
     30 C          59.5734   91.1365    5.1313 C.ar    1  UNL1        0.0214
     31 C          60.6230   90.6645    5.9319 C.ar    1  UNL1        0.1947
     32 O          61.7724   90.8315    5.3091 O.2     1  UNL1       -0.4492
     33 C          61.5326   91.4082    4.1591 C.ar    1  UNL1        0.1464
     34 C          62.4690   91.7344    3.1874 C.ar    1  UNL1        0.0376
     35 C          62.0147   92.3373    2.0076 C.ar    1  UNL1        0.0043
     36 C          60.6415   92.6308    1.8226 C.ar    1  UNL1        0.0131
     37 C          59.7006   92.2904    2.8366 C.ar    1  UNL1        0.0442
     38 N          58.3093   92.5989    2.6835 N.pl3   1  UNL1       -0.3569
     39 C          60.1907   91.6563    3.9967 C.ar    1  UNL1        0.0466
     40 H          57.8808   92.7055    1.7379 H       1  UNL1        0.1424
     41 H          57.7187   92.8442    3.5062 H       1  UNL1        0.1424
     42 C          60.2326   93.3350    0.5863 C.ar    1  UNL1        0.0012
     43 C          60.9645   93.1612   -0.6004 C.ar    1  UNL1        0.0000
     44 C          60.5916   93.8407   -1.7643 C.ar    1  UNL1        0.0000
     45 C          59.4927   94.7041   -1.7500 C.ar    1  UNL1        0.0000
     46 C          58.7670   94.8924   -0.5706 C.ar    1  UNL1        0.0000
     47 C          59.1364   94.2150    0.5955 C.ar    1  UNL1        0.0000
@<TRIPOS>BOND
     1    29    30    1
     2    30    31   ar
     3    31    25    1
     4    25    26    2
     5    25    27   am
     6    27     1    1
     7     1     2   ar
     8     2     3   ar
     9     3     4   ar
    10     4     7    1
    11     7     8    1
    12     8     9    1
    13     9    10    1
    14    10    13    1
    15    13    14    1
    16    14    15    1
    17    15    16   ar
    18    16    17   ar
    19    17    18   ar
    20    18    19   ar
    21    19    21    1
    22    21    22    2
    23    21    23    1
    24    19    20   ar
    25    10    11    1
    26    11    12    1
    27     4     5   ar
    28     5     6   ar
    29    31    32   ar
    30    32    33   ar
    31    33    34   ar
    32    34    35   ar
    33    35    36   ar
    34    36    42    1
    35    42    43   ar
    36    43    44   ar
    37    44    45   ar
    38    45    46   ar
    39    46    47   ar
    40    36    37   ar
    41    37    38    1
    42    37    39   ar
    43    39    30   ar
    44     6     1   ar
    45    39    33   ar
    46    12     7    1
    47    47    42   ar
    48    20    15   ar
    49    27    28    1
    50    23    24    1
    51    38    40    1
    52    38    41    1
