@<TRIPOS>MOLECULE
*****
 47 52 0 0 0
SMALL
GASTEIGER

@<TRIPOS>ATOM
      1 C         -24.9672   50.2588   -8.9649 C.ar    1  UNL1        0.0702
      2 C         -25.8220   50.5635  -10.0347 C.ar    1  UNL1        0.0191
      3 C         -26.8693   49.7015  -10.3641 C.ar    1  UNL1        0.0356
      4 C         -27.0738   48.5308   -9.6103 C.ar    1  UNL1        0.1318
      5 N         -26.2407   48.2733   -8.5627 N.ar    1  UNL1       -0.2279
      6 C         -25.2151   49.0978   -8.2238 C.ar    1  UNL1        0.1149
      7 N         -28.1529   47.6142   -9.9141 N.pl3   1  UNL1       -0.2932
      8 C         -29.5556   48.0507   -9.8199 C.3     1  UNL1        0.0923
      9 C         -30.3122   47.7666  -11.1287 C.3     1  UNL1        0.0252
     10 C         -29.8449   46.4702  -11.8416 C.3     1  UNL1        0.0472
     11 C         -29.1091   45.5211  -10.8772 C.3     1  UNL1        0.0252
     12 C         -27.8697   46.2192  -10.2982 C.3     1  UNL1        0.0923
     13 C         -30.9902   45.7473  -12.5787 C.3     1  UNL1        0.2054
     14 O         -31.5799   46.5764  -13.5854 O.3     1  UNL1       -0.4755
     15 C         -30.9584   47.0806  -14.7410 C.ar    1  UNL1        0.1387
     16 C         -30.5137   48.4068  -14.8638 C.ar    1  UNL1        0.0366
     17 C         -29.8952   48.8369  -16.0376 C.ar    1  UNL1       -0.0010
     18 C         -29.6826   47.9552  -17.1160 C.ar    1  UNL1       -0.0161
     19 C         -30.1701   46.6238  -17.0089 C.ar    1  UNL1        0.0745
     20 C         -30.7760   46.2038  -15.8129 C.ar    1  UNL1        0.0430
     21 C         -30.1088   45.6540  -18.1255 C.2     1  UNL1        0.3378
     22 O         -28.9975   45.3218  -18.6161 O.2     1  UNL1       -0.2451
     23 O         -31.2758   45.1373  -18.6834 O.3     1  UNL1       -0.4771
     24 H         -32.1880   45.3627  -18.3052 H       1  UNL1        0.2954
     25 C         -28.9419   48.4567  -18.3536 C.3     1  UNL1        0.0226
     26 C         -27.4451   48.6723  -18.0823 C.3     1  UNL1        0.0047
     27 C         -29.5918   49.7370  -18.8881 C.3     1  UNL1        0.0047
     28 C         -22.9080   51.6480   -9.4897 C.2     1  UNL1        0.2839
     29 O         -22.7853   51.1480  -10.6402 O.2     1  UNL1       -0.2665
     30 N         -23.8936   51.1342   -8.5790 N.am    1  UNL1       -0.2766
     31 H         -23.7756   51.3407   -7.5612 H       1  UNL1        0.1553
     32 C         -23.1749   54.7598  -10.2095 C.3     1  UNL1        0.0345
     33 C         -22.1239   54.0967   -9.3711 C.ar    1  UNL1        0.0202
     34 C         -22.0105   52.7370   -9.0597 C.ar    1  UNL1        0.1946
     35 O         -20.9530   52.5353   -8.2939 O.2     1  UNL1       -0.4492
     36 C         -20.3742   53.6939   -8.0929 C.ar    1  UNL1        0.1452
     37 C         -19.2305   53.9472   -7.3439 C.ar    1  UNL1        0.0375
     38 C         -18.7787   55.2753   -7.2575 C.ar    1  UNL1        0.0031
     39 C         -19.4727   56.3254   -7.9173 C.ar    1  UNL1        0.0002
     40 C         -20.6331   56.0243   -8.6703 C.ar    1  UNL1        0.0028
     41 C         -21.0529   54.6948   -8.7348 C.ar    1  UNL1        0.0337
     42 C         -18.9860   57.7248   -7.8186 C.ar    1  UNL1        0.0000
     43 C         -19.3394   58.6761   -8.7947 C.ar    1  UNL1        0.0000
     44 C         -18.8797   59.9932   -8.6992 C.ar    1  UNL1        0.0000
     45 C         -18.0653   60.3758   -7.6312 C.ar    1  UNL1        0.0000
     46 C         -17.7082   59.4418   -6.6561 C.ar    1  UNL1        0.0000
     47 C         -18.1642   58.1231   -6.7470 C.ar    1  UNL1        0.0000
@<TRIPOS>BOND
     1    32    33    1
     2    33    34   ar
     3    34    28    1
     4    28    29    2
     5    28    30   am
     6    30     1    1
     7     1     2   ar
     8     2     3   ar
     9     3     4   ar
    10     4     7    1
    11     7     8    1
    12     8     9    1
    13     9    10    1
    14    10    13    1
    15    13    14    1
    16    14    15    1
    17    15    16   ar
    18    16    17   ar
    19    17    18   ar
    20    18    25    1
    21    25    26    1
    22    25    27    1
    23    18    19   ar
    24    19    21    1
    25    21    22    2
    26    21    23    1
    27    19    20   ar
    28    10    11    1
    29    11    12    1
    30     4     5   ar
    31     5     6   ar
    32    34    35   ar
    33    35    36   ar
    34    36    37   ar
    35    37    38   ar
    36    38    39   ar
    37    39    42    1
    38    42    43   ar
    39    43    44   ar
    40    44    45   ar
    41    45    46   ar
    42    46    47   ar
    43    39    40   ar
    44    40    41   ar
    45    41    33   ar
    46     6     1   ar
    47    41    36   ar
    48    12     7    1
    49    47    42   ar
    50    20    15   ar
    51    30    31    1
    52    23    24    1
@<TRIPOS>MOLECULE
*****
 47 52 0 0 0
SMALL
GASTEIGER

@<TRIPOS>ATOM
      1 C         -25.1912   50.0954   -9.1283 C.ar    1  UNL1        0.0702
      2 C         -26.0127   50.4092  -10.2213 C.ar    1  UNL1        0.0191
      3 C         -27.0836   49.5787  -10.5560 C.ar    1  UNL1        0.0356
      4 C         -27.3453   48.4312   -9.7845 C.ar    1  UNL1        0.1318
      5 N         -26.5432   48.1648   -8.7151 N.ar    1  UNL1       -0.2279
      6 C         -25.4956   48.9588   -8.3707 C.ar    1  UNL1        0.1149
      7 N         -28.4504   47.5479  -10.0932 N.pl3   1  UNL1       -0.2932
      8 C         -29.8400   47.9819   -9.8751 C.3     1  UNL1        0.0923
      9 C         -30.6800   47.8099  -11.1522 C.3     1  UNL1        0.0252
     10 C         -30.2713   46.5742  -11.9968 C.3     1  UNL1        0.0472
     11 C         -29.4860   45.5456  -11.1615 C.3     1  UNL1        0.0252
     12 C         -28.2058   46.1878  -10.6071 C.3     1  UNL1        0.0923
     13 C         -31.4677   45.9198  -12.7164 C.3     1  UNL1        0.2054
     14 O         -31.0749   45.3074  -13.9490 O.3     1  UNL1       -0.4755
     15 C         -30.6593   45.9562  -15.1246 C.ar    1  UNL1        0.1387
     16 C         -30.4443   45.2890  -16.3413 C.ar    1  UNL1        0.0366
     17 C         -30.0416   45.9986  -17.4726 C.ar    1  UNL1       -0.0010
     18 C         -29.8606   47.3954  -17.4320 C.ar    1  UNL1       -0.0161
     19 C         -30.0372   48.0658  -16.1905 C.ar    1  UNL1        0.0745
     20 C         -30.4586   47.3372  -15.0656 C.ar    1  UNL1        0.0430
     21 C         -29.7549   49.5075  -16.0091 C.2     1  UNL1        0.3378
     22 O         -28.5811   49.8986  -15.7735 O.2     1  UNL1       -0.2451
     23 O         -30.7856   50.4436  -16.0428 O.3     1  UNL1       -0.4771
     24 H         -31.7396   50.1732  -16.2498 H       1  UNL1        0.2954
     25 C         -29.4833   48.1354  -18.7134 C.3     1  UNL1        0.0226
     26 C         -27.9977   48.5263  -18.7379 C.3     1  UNL1        0.0047
     27 C         -30.3766   49.3649  -18.9078 C.3     1  UNL1        0.0047
     28 C         -23.1360   51.4899   -9.6549 C.2     1  UNL1        0.2839
     29 O         -23.0597   51.0487  -10.8331 O.2     1  UNL1       -0.2665
     30 N         -24.0946   50.9393   -8.7369 N.am    1  UNL1       -0.2766
     31 H         -23.9384   51.0920   -7.7147 H       1  UNL1        0.1553
     32 C         -23.3162   54.6199  -10.3204 C.3     1  UNL1        0.0345
     33 C         -22.2870   53.9141   -9.4898 C.ar    1  UNL1        0.0202
     34 C         -22.2115   52.5467   -9.2022 C.ar    1  UNL1        0.1946
     35 O         -21.1631   52.3030   -8.4360 O.2     1  UNL1       -0.4492
     36 C         -20.5543   53.4419   -8.2122 C.ar    1  UNL1        0.1452
     37 C         -19.4075   53.6511   -7.4544 C.ar    1  UNL1        0.0375
     38 C         -18.9206   54.9649   -7.3427 C.ar    1  UNL1        0.0031
     39 C         -19.5833   56.0448   -7.9865 C.ar    1  UNL1        0.0002
     40 C         -20.7480   55.7883   -8.7492 C.ar    1  UNL1        0.0028
     41 C         -21.2031   54.4719   -8.8388 C.ar    1  UNL1        0.0337
     42 C         -19.0597   57.4286   -7.8611 C.ar    1  UNL1        0.0000
     43 C         -19.3121   58.3832   -8.8649 C.ar    1  UNL1        0.0000
     44 C         -18.8179   59.6856   -8.7442 C.ar    1  UNL1        0.0000
     45 C         -18.0690   60.0502   -7.6232 C.ar    1  UNL1        0.0000
     46 C         -17.8122   59.1128   -6.6202 C.ar    1  UNL1        0.0000
     47 C         -18.3031   57.8086   -6.7361 C.ar    1  UNL1        0.0000
@<TRIPOS>BOND
     1    32    33    1
     2    33    34   ar
     3    34    28    1
     4    28    29    2
     5    28    30   am
     6    30     1    1
     7     1     2   ar
     8     2     3   ar
     9     3     4   ar
    10     4     7    1
    11     7     8    1
    12     8     9    1
    13     9    10    1
    14    10    13    1
    15    13    14    1
    16    14    15    1
    17    15    16   ar
    18    16    17   ar
    19    17    18   ar
    20    18    25    1
    21    25    26    1
    22    25    27    1
    23    18    19   ar
    24    19    21    1
    25    21    22    2
    26    21    23    1
    27    19    20   ar
    28    10    11    1
    29    11    12    1
    30     4     5   ar
    31     5     6   ar
    32    34    35   ar
    33    35    36   ar
    34    36    37   ar
    35    37    38   ar
    36    38    39   ar
    37    39    42    1
    38    42    43   ar
    39    43    44   ar
    40    44    45   ar
    41    45    46   ar
    42    46    47   ar
    43    39    40   ar
    44    40    41   ar
    45    41    33   ar
    46     6     1   ar
    47    41    36   ar
    48    12     7    1
    49    47    42   ar
    50    20    15   ar
    51    30    31    1
    52    23    24    1
@<TRIPOS>MOLECULE
*****
 47 52 0 0 0
SMALL
GASTEIGER

@<TRIPOS>ATOM
      1 C         -25.1713   50.0366   -9.1795 C.ar    1  UNL1        0.0702
      2 C         -25.9797   50.3248  -10.2892 C.ar    1  UNL1        0.0191
      3 C         -27.0532   49.4925  -10.6108 C.ar    1  UNL1        0.0356
      4 C         -27.3309   48.3695   -9.8095 C.ar    1  UNL1        0.1318
      5 N         -26.5414   48.1283   -8.7249 N.ar    1  UNL1       -0.2279
      6 C         -25.4915   48.9245   -8.3927 C.ar    1  UNL1        0.1149
      7 N         -28.4393   47.4854  -10.1040 N.pl3   1  UNL1       -0.2932
      8 C         -28.1975   46.1049  -10.5540 C.3     1  UNL1        0.0923
      9 C         -28.9566   45.0959   -9.6754 C.3     1  UNL1        0.0252
     10 C         -30.3252   45.6252   -9.1713 C.3     1  UNL1        0.0472
     11 C         -30.8360   46.7974  -10.0299 C.3     1  UNL1        0.0252
     12 C         -29.8309   47.9578   -9.9846 C.3     1  UNL1        0.0923
     13 C         -31.3868   44.5139   -9.0467 C.3     1  UNL1        0.2054
     14 O         -31.5834   44.1183   -7.6853 O.3     1  UNL1       -0.4755
     15 C         -30.9951   44.6875   -6.5426 C.ar    1  UNL1        0.1387
     16 C         -31.5106   44.5275   -5.2463 C.ar    1  UNL1        0.0366
     17 C         -30.8686   45.1129   -4.1553 C.ar    1  UNL1       -0.0010
     18 C         -29.6836   45.8577   -4.3190 C.ar    1  UNL1       -0.0161
     19 C         -29.1842   46.0555   -5.6356 C.ar    1  UNL1        0.0745
     20 C         -29.8350   45.4448   -6.7206 C.ar    1  UNL1        0.0430
     21 C         -28.0196   46.9201   -5.9311 C.2     1  UNL1        0.3378
     22 O         -28.0641   48.1525   -5.6753 O.2     1  UNL1       -0.2451
     23 O         -26.8827   46.3971   -6.5425 O.3     1  UNL1       -0.4771
     24 H         -26.7985   45.4083   -6.7457 H       1  UNL1        0.2954
     25 C         -28.9823   46.4228   -3.0859 C.3     1  UNL1        0.0226
     26 C         -27.9347   45.4508   -2.5217 C.3     1  UNL1        0.0047
     27 C         -30.0063   46.8078   -2.0133 C.3     1  UNL1        0.0047
     28 C         -23.1736   51.5008   -9.7372 C.2     1  UNL1        0.2839
     29 O         -23.1498   51.1213  -10.9389 O.2     1  UNL1       -0.2665
     30 N         -24.0726   50.8838   -8.8013 N.am    1  UNL1       -0.2766
     31 H         -23.8666   50.9882   -7.7819 H       1  UNL1        0.1553
     32 C         -23.3606   54.6377  -10.3676 C.3     1  UNL1        0.0345
     33 C         -22.3261   53.9240   -9.5506 C.ar    1  UNL1        0.0202
     34 C         -22.2476   52.5536   -9.2783 C.ar    1  UNL1        0.1946
     35 O         -21.1947   52.3028   -8.5206 O.2     1  UNL1       -0.4492
     36 C         -20.5858   53.4398   -8.2879 C.ar    1  UNL1        0.1452
     37 C         -19.4349   53.6419   -7.5343 C.ar    1  UNL1        0.0375
     38 C         -18.9487   54.9550   -7.4112 C.ar    1  UNL1        0.0031
     39 C         -19.6160   56.0410   -8.0394 C.ar    1  UNL1        0.0002
     40 C         -20.7848   55.7917   -8.7983 C.ar    1  UNL1        0.0028
     41 C         -21.2391   54.4758   -8.8997 C.ar    1  UNL1        0.0337
     42 C         -19.0931   57.4240   -7.9020 C.ar    1  UNL1        0.0000
     43 C         -18.3301   57.7923   -6.7774 C.ar    1  UNL1        0.0000
     44 C         -17.8388   59.0953   -6.6506 C.ar    1  UNL1        0.0000
     45 C         -18.1014   60.0431   -7.6421 C.ar    1  UNL1        0.0000
     46 C         -18.8564   59.6901   -8.7628 C.ar    1  UNL1        0.0000
     47 C         -19.3510   58.3889   -8.8944 C.ar    1  UNL1        0.0000
@<TRIPOS>BOND
     1    32    33    1
     2    33    34   ar
     3    34    28    1
     4    28    29    2
     5    28    30   am
     6    30     1    1
     7     1     2   ar
     8     2     3   ar
     9     3     4   ar
    10     4     7    1
    11     7     8    1
    12     8     9    1
    13     9    10    1
    14    10    13    1
    15    13    14    1
    16    14    15    1
    17    15    16   ar
    18    16    17   ar
    19    17    18   ar
    20    18    25    1
    21    25    26    1
    22    25    27    1
    23    18    19   ar
    24    19    21    1
    25    21    22    2
    26    21    23    1
    27    19    20   ar
    28    10    11    1
    29    11    12    1
    30     4     5   ar
    31     5     6   ar
    32    34    35   ar
    33    35    36   ar
    34    36    37   ar
    35    37    38   ar
    36    38    39   ar
    37    39    42    1
    38    42    43   ar
    39    43    44   ar
    40    44    45   ar
    41    45    46   ar
    42    46    47   ar
    43    39    40   ar
    44    40    41   ar
    45    41    33   ar
    46     6     1   ar
    47    41    36   ar
    48    12     7    1
    49    47    42   ar
    50    20    15   ar
    51    30    31    1
    52    23    24    1
@<TRIPOS>MOLECULE
*****
 47 52 0 0 0
SMALL
GASTEIGER

@<TRIPOS>ATOM
      1 C         -23.7872   51.5518   -8.8820 C.ar    1  UNL1        0.0702
      2 C         -24.2737   51.4907  -10.1964 C.ar    1  UNL1        0.0191
      3 C         -25.2459   50.5506  -10.5422 C.ar    1  UNL1        0.0356
      4 C         -25.7472   49.6720   -9.5638 C.ar    1  UNL1        0.1318
      5 N         -25.2713   49.7706   -8.2903 N.ar    1  UNL1       -0.2279
      6 C         -24.3255   50.6776   -7.9310 C.ar    1  UNL1        0.1149
      7 N         -26.7612   48.6876   -9.8793 N.pl3   1  UNL1       -0.2932
      8 C         -26.4603   47.2490   -9.7970 C.3     1  UNL1        0.0923
      9 C         -27.4830   46.5200   -8.9089 C.3     1  UNL1        0.0252
     10 C         -28.9145   47.1107   -9.0053 C.3     1  UNL1        0.0472
     11 C         -29.1054   47.9395  -10.2894 C.3     1  UNL1        0.0252
     12 C         -28.1065   49.1059  -10.3142 C.3     1  UNL1        0.0923
     13 C         -30.0142   46.0400   -8.8574 C.3     1  UNL1        0.2054
     14 O         -30.5460   46.0059   -7.5291 O.3     1  UNL1       -0.4755
     15 C         -29.8968   46.3947   -6.3445 C.ar    1  UNL1        0.1387
     16 C         -30.1282   47.6222   -5.7030 C.ar    1  UNL1        0.0366
     17 C         -29.4552   47.9387   -4.5232 C.ar    1  UNL1       -0.0010
     18 C         -28.5473   47.0352   -3.9357 C.ar    1  UNL1       -0.0161
     19 C         -28.2808   45.8101   -4.6066 C.ar    1  UNL1        0.0745
     20 C         -28.9802   45.5014   -5.7853 C.ar    1  UNL1        0.0430
     21 C         -27.2576   44.8465   -4.1424 C.2     1  UNL1        0.3378
     22 O         -27.4807   44.1197   -3.1383 O.2     1  UNL1       -0.2451
     23 O         -26.0181   44.7668   -4.7727 O.3     1  UNL1       -0.4771
     24 H         -25.8063   45.3185   -5.5954 H       1  UNL1        0.2954
     25 C         -27.8857   47.4005   -2.6089 C.3     1  UNL1        0.0226
     26 C         -28.8730   48.0605   -1.6342 C.3     1  UNL1        0.0047
     27 C         -26.6661   48.2974   -2.8445 C.3     1  UNL1        0.0047
     28 C         -21.9126   53.1865   -9.3912 C.2     1  UNL1        0.2839
     29 O         -21.7730   52.7588  -10.5686 O.2     1  UNL1       -0.2665
     30 N         -22.8050   52.5227   -8.4814 N.am    1  UNL1       -0.2766
     31 H         -22.6773   52.6925   -7.4580 H       1  UNL1        0.1553
     32 C         -22.4691   56.2722  -10.0559 C.3     1  UNL1        0.0345
     33 C         -21.3676   55.6961   -9.2181 C.ar    1  UNL1        0.0202
     34 C         -21.1276   54.3477   -8.9309 C.ar    1  UNL1        0.1946
     35 O         -20.0629   54.2328   -8.1570 O.2     1  UNL1       -0.4492
     36 C         -19.5996   55.4372   -7.9279 C.ar    1  UNL1        0.1452
     37 C         -18.4925   55.7838   -7.1613 C.ar    1  UNL1        0.0375
     38 C         -18.1707   57.1471   -7.0451 C.ar    1  UNL1        0.0031
     39 C         -18.9557   58.1389   -7.6930 C.ar    1  UNL1        0.0002
     40 C         -20.0747   57.7432   -8.4647 C.ar    1  UNL1        0.0028
     41 C         -20.3648   56.3812   -8.5586 C.ar    1  UNL1        0.0337
     42 C         -18.6061   59.5762   -7.5628 C.ar    1  UNL1        0.0000
     43 C         -17.3613   60.0539   -8.0152 C.ar    1  UNL1        0.0000
     44 C         -17.0347   61.4079   -7.8914 C.ar    1  UNL1        0.0000
     45 C         -17.9443   62.2987   -7.3174 C.ar    1  UNL1        0.0000
     46 C         -19.1826   61.8374   -6.8653 C.ar    1  UNL1        0.0000
     47 C         -19.5141   60.4844   -6.9857 C.ar    1  UNL1        0.0000
@<TRIPOS>BOND
     1    32    33    1
     2    33    34   ar
     3    34    28    1
     4    28    29    2
     5    28    30   am
     6    30     1    1
     7     1     2   ar
     8     2     3   ar
     9     3     4   ar
    10     4     7    1
    11     7     8    1
    12     8     9    1
    13     9    10    1
    14    10    13    1
    15    13    14    1
    16    14    15    1
    17    15    16   ar
    18    16    17   ar
    19    17    18   ar
    20    18    25    1
    21    25    26    1
    22    25    27    1
    23    18    19   ar
    24    19    21    1
    25    21    22    2
    26    21    23    1
    27    19    20   ar
    28    10    11    1
    29    11    12    1
    30     4     5   ar
    31     5     6   ar
    32    34    35   ar
    33    35    36   ar
    34    36    37   ar
    35    37    38   ar
    36    38    39   ar
    37    39    42    1
    38    42    43   ar
    39    43    44   ar
    40    44    45   ar
    41    45    46   ar
    42    46    47   ar
    43    39    40   ar
    44    40    41   ar
    45    41    33   ar
    46     6     1   ar
    47    41    36   ar
    48    12     7    1
    49    47    42   ar
    50    20    15   ar
    51    30    31    1
    52    23    24    1
@<TRIPOS>MOLECULE
*****
 47 52 0 0 0
SMALL
GASTEIGER

@<TRIPOS>ATOM
      1 C         -23.6798   51.5938   -8.8579 C.ar    1  UNL1        0.0702
      2 C         -24.2299   51.5612  -10.1480 C.ar    1  UNL1        0.0191
      3 C         -25.1965   50.6088  -10.4751 C.ar    1  UNL1        0.0356
      4 C         -25.6282   49.6887   -9.5016 C.ar    1  UNL1        0.1318
      5 N         -25.0916   49.7598   -8.2507 N.ar    1  UNL1       -0.2279
      6 C         -24.1499   50.6781   -7.9097 C.ar    1  UNL1        0.1149
      7 N         -26.6342   48.6902   -9.7979 N.pl3   1  UNL1       -0.2932
      8 C         -26.4146   47.2779   -9.4456 C.3     1  UNL1        0.0923
      9 C         -27.5821   46.7289   -8.6079 C.3     1  UNL1        0.0252
     10 C         -28.9579   47.3294   -9.0005 C.3     1  UNL1        0.0472
     11 C         -28.9323   47.9405  -10.4140 C.3     1  UNL1        0.0252
     12 C         -27.8863   49.0630  -10.4813 C.3     1  UNL1        0.0923
     13 C         -30.1161   46.3238   -8.8425 C.3     1  UNL1        0.2054
     14 O         -30.8866   46.5830   -7.6645 O.3     1  UNL1       -0.4755
     15 C         -30.4023   46.9511   -6.3973 C.ar    1  UNL1        0.1387
     16 C         -29.7612   46.0568   -5.5249 C.ar    1  UNL1        0.0366
     17 C         -29.2959   46.4937   -4.2847 C.ar    1  UNL1       -0.0010
     18 C         -29.4364   47.8374   -3.8843 C.ar    1  UNL1       -0.0161
     19 C         -30.1226   48.7338   -4.7489 C.ar    1  UNL1        0.0745
     20 C         -30.5700   48.2799   -6.0010 C.ar    1  UNL1        0.0430
     21 C         -30.4319   50.1321   -4.3743 C.2     1  UNL1        0.3378
     22 O         -31.4879   50.4001   -3.7426 O.2     1  UNL1       -0.2451
     23 O         -29.5913   51.1738   -4.7591 O.3     1  UNL1       -0.4771
     24 H         -28.7225   50.9991   -5.2498 H       1  UNL1        0.2954
     25 C         -28.8516   48.2810   -2.5453 C.3     1  UNL1        0.0226
     26 C         -27.3431   48.0041   -2.4544 C.3     1  UNL1        0.0047
     27 C         -29.6011   47.6188   -1.3847 C.3     1  UNL1        0.0047
     28 C         -21.8590   53.2763   -9.4053 C.2     1  UNL1        0.2839
     29 O         -21.7588   52.8766  -10.5965 O.2     1  UNL1       -0.2665
     30 N         -22.7010   52.5755   -8.4755 N.am    1  UNL1       -0.2766
     31 H         -22.5355   52.7260   -7.4545 H       1  UNL1        0.1553
     32 C         -22.3999   56.3525  -10.1248 C.3     1  UNL1        0.0345
     33 C         -21.3117   55.7873   -9.2624 C.ar    1  UNL1        0.0202
     34 C         -21.0786   54.4430   -8.9513 C.ar    1  UNL1        0.1946
     35 O         -20.0255   54.3380   -8.1603 O.2     1  UNL1       -0.4492
     36 C         -19.5632   55.5450   -7.9427 C.ar    1  UNL1        0.1452
     37 C         -18.4668   55.9013   -7.1654 C.ar    1  UNL1        0.0375
     38 C         -18.1441   57.2656   -7.0652 C.ar    1  UNL1        0.0031
     39 C         -18.9176   58.2488   -7.7395 C.ar    1  UNL1        0.0002
     40 C         -20.0260   57.8433   -8.5213 C.ar    1  UNL1        0.0028
     41 C         -20.3173   56.4806   -8.5988 C.ar    1  UNL1        0.0337
     42 C         -18.5671   59.6873   -7.6259 C.ar    1  UNL1        0.0000
     43 C         -19.5013   60.6142   -7.1253 C.ar    1  UNL1        0.0000
     44 C         -19.1685   61.9682   -7.0194 C.ar    1  UNL1        0.0000
     45 C         -17.9031   62.4117   -7.4096 C.ar    1  UNL1        0.0000
     46 C         -16.9673   61.5021   -7.9072 C.ar    1  UNL1        0.0000
     47 C         -17.2949   60.1471   -8.0162 C.ar    1  UNL1        0.0000
@<TRIPOS>BOND
     1    32    33    1
     2    33    34   ar
     3    34    28    1
     4    28    29    2
     5    28    30   am
     6    30     1    1
     7     1     2   ar
     8     2     3   ar
     9     3     4   ar
    10     4     7    1
    11     7     8    1
    12     8     9    1
    13     9    10    1
    14    10    13    1
    15    13    14    1
    16    14    15    1
    17    15    16   ar
    18    16    17   ar
    19    17    18   ar
    20    18    25    1
    21    25    26    1
    22    25    27    1
    23    18    19   ar
    24    19    21    1
    25    21    22    2
    26    21    23    1
    27    19    20   ar
    28    10    11    1
    29    11    12    1
    30     4     5   ar
    31     5     6   ar
    32    34    35   ar
    33    35    36   ar
    34    36    37   ar
    35    37    38   ar
    36    38    39   ar
    37    39    42    1
    38    42    43   ar
    39    43    44   ar
    40    44    45   ar
    41    45    46   ar
    42    46    47   ar
    43    39    40   ar
    44    40    41   ar
    45    41    33   ar
    46     6     1   ar
    47    41    36   ar
    48    12     7    1
    49    47    42   ar
    50    20    15   ar
    51    30    31    1
    52    23    24    1
