@<TRIPOS>MOLECULE
*****
 50 55 0 0 0
SMALL
GASTEIGER

@<TRIPOS>ATOM
      1 C           7.5961   74.1876   25.0332 C.3     1  UNL1        0.1535
      2 N           6.2368   73.2631   26.9984 N.am    1  UNL1       -0.2825
      3 C           6.3440   74.1615   25.8825 C.2     1  UNL1        0.2443
      4 O           5.3477   74.8580   25.5447 O.2     1  UNL1       -0.2730
      5 H           6.7973   72.3812   26.9772 H       1  UNL1        0.1549
      6 C           4.5537   74.8410   29.9646 C.ar    1  UNL1        0.1171
      7 C           5.4073   74.6739   28.8613 C.ar    1  UNL1        0.0367
      8 C           5.3585   73.4840   28.1149 C.ar    1  UNL1        0.0535
      9 C           4.4756   72.4711   28.5082 C.ar    1  UNL1        0.0353
     10 C           3.6403   72.6720   29.6076 C.ar    1  UNL1        0.1002
     11 N           3.6960   73.8382   30.3021 N.ar    1  UNL1       -0.2409
     12 C           3.6232   77.1975   30.4812 C.3     1  UNL1        0.0789
     13 C           4.5803   76.0823   30.7680 C.2     1  UNL1        0.1910
     14 O           5.4121   76.2143   31.7067 O.2     1  UNL1       -0.2897
     15 N           8.2339   75.5076   25.0947 N.am    1  UNL1       -0.2945
     16 C           9.6159   75.6795   25.4457 C.2     1  UNL1        0.2483
     17 O          10.2951   74.6901   25.8341 O.2     1  UNL1       -0.2701
     18 H           7.7367   76.3059   24.6384 H       1  UNL1        0.1501
     19 C          10.2743   76.9945   25.2880 C.ar    1  UNL1        0.0808
     20 C           9.7029   78.1293   25.8846 C.ar    1  UNL1        0.0080
     21 C          10.3316   79.3730   25.7929 C.ar    1  UNL1        0.0148
     22 C          11.5434   79.5120   25.0947 C.ar    1  UNL1        0.0502
     23 C          12.1012   78.3795   24.4752 C.ar    1  UNL1        0.0443
     24 C          11.4746   77.1329   24.5667 C.ar    1  UNL1        0.1457
     25 F          12.0214   76.0775   23.9114 F       1  UNL1       -0.2040
     26 N          12.1979   80.7975   25.0065 N.pl3   1  UNL1       -0.3040
     27 C          13.6673   80.8687   24.9828 C.3     1  UNL1        0.1122
     28 C          14.1709   82.2572   25.3891 C.3     1  UNL1        0.1122
     29 N          13.4966   83.3060   24.6101 N.pl3   1  UNL1       -0.3040
     30 C          12.0911   83.1342   24.2100 C.3     1  UNL1        0.1122
     31 C          11.4036   82.0344   25.0250 C.3     1  UNL1        0.1122
     32 C          14.1802   84.5443   24.3122 C.ar    1  UNL1        0.0488
     33 C          14.7759   84.7503   23.0545 C.ar    1  UNL1        0.0154
     34 C          15.4394   85.9465   22.7709 C.ar    1  UNL1        0.0135
     35 C          15.5206   86.9552   23.7353 C.ar    1  UNL1        0.0683
     36 CL         16.3645   88.4464   23.3399 Cl      1  UNL1       -0.0814
     37 C          14.9327   86.7624   24.9956 C.ar    1  UNL1        0.0694
     38 CL         15.0098   88.0063   26.2363 Cl      1  UNL1       -0.0813
     39 C          14.2686   85.5631   25.2790 C.ar    1  UNL1        0.0268
     40 C           7.3132   73.8099   23.5609 C.3     1  UNL1        0.0569
     41 C           8.4513   74.1711   22.6427 C.ar    1  UNL1       -0.0017
     42 C           8.5582   75.3229   21.8677 C.ar    1  UNL1        0.0681
     43 N           9.7675   75.3778   21.2650 N.ar    1  UNL1       -0.3523
     44 C          10.4283   74.2745   21.6558 C.ar    1  UNL1        0.0563
     45 C          11.7304   73.9064   21.3192 C.ar    1  UNL1        0.0170
     46 C          12.2399   72.7148   21.8672 C.ar    1  UNL1        0.0015
     47 C          11.4445   71.9250   22.7262 C.ar    1  UNL1        0.0001
     48 C          10.1330   72.3195   23.0451 C.ar    1  UNL1        0.0012
     49 C           9.6574   73.5106   22.4943 C.ar    1  UNL1        0.0131
     50 H          10.1197   76.1362   20.6396 H       1  UNL1        0.1660
@<TRIPOS>BOND
     1    12    13    1
     2    13    14    2
     3    13     6    1
     4     6     7   ar
     5     7     8   ar
     6     8     2    1
     7     2     3   am
     8     3     4    2
     9     3     1    1
    10     1    40    1
    11    40    41    1
    12    41    42   ar
    13    42    43   ar
    14    43    44   ar
    15    44    45   ar
    16    45    46   ar
    17    46    47   ar
    18    47    48   ar
    19    48    49   ar
    20     1    15    1
    21    15    16   am
    22    16    17    2
    23    16    19    1
    24    19    20   ar
    25    20    21   ar
    26    21    22   ar
    27    22    26    1
    28    26    27    1
    29    27    28    1
    30    28    29    1
    31    29    32    1
    32    32    33   ar
    33    33    34   ar
    34    34    35   ar
    35    35    36    1
    36    35    37   ar
    37    37    38    1
    38    37    39   ar
    39    29    30    1
    40    30    31    1
    41    22    23   ar
    42    23    24   ar
    43    24    25    1
    44     8     9   ar
    45     9    10   ar
    46    10    11   ar
    47    11     6   ar
    48    49    41   ar
    49    24    19   ar
    50    49    44   ar
    51    31    26    1
    52    39    32   ar
    53     2     5    1
    54    43    50    1
    55    15    18    1
@<TRIPOS>MOLECULE
*****
 50 55 0 0 0
SMALL
GASTEIGER

@<TRIPOS>ATOM
      1 C          14.3559   84.8051   23.2516 C.3     1  UNL1        0.1535
      2 N          13.4855   85.7079   21.0175 N.am    1  UNL1       -0.2825
      3 C          14.4932   85.0002   21.7574 C.2     1  UNL1        0.2443
      4 O          15.4457   84.4472   21.1420 O.2     1  UNL1       -0.2730
      5 H          12.5111   85.7167   21.3954 H       1  UNL1        0.1549
      6 C          14.3187   86.2892   17.3997 C.ar    1  UNL1        0.1171
      7 C          14.0543   85.6186   18.6056 C.ar    1  UNL1        0.0367
      8 C          13.7324   86.3558   19.7581 C.ar    1  UNL1        0.0535
      9 C          13.7122   87.7538   19.6866 C.ar    1  UNL1        0.0353
     10 C          13.9772   88.3868   18.4718 C.ar    1  UNL1        0.1002
     11 N          14.2697   87.6500   17.3686 N.ar    1  UNL1       -0.2409
     12 C          14.9677   84.0774   16.2281 C.3     1  UNL1        0.0789
     13 C          14.6581   85.5411   16.1699 C.2     1  UNL1        0.1910
     14 O          14.6897   86.1308   15.0555 O.2     1  UNL1       -0.2897
     15 N          13.6750   83.5392   23.5464 N.am    1  UNL1       -0.2945
     16 C          13.6149   82.9873   24.8710 C.2     1  UNL1        0.2483
     17 O          14.2625   83.5279   25.8088 O.2     1  UNL1       -0.2701
     18 H          13.0183   83.1646   22.8245 H       1  UNL1        0.1501
     19 C          12.7423   81.8298   25.1649 C.ar    1  UNL1        0.0808
     20 C          11.4248   82.0498   25.5962 C.ar    1  UNL1        0.0080
     21 C          10.5654   80.9743   25.8318 C.ar    1  UNL1        0.0148
     22 C          11.0069   79.6527   25.6491 C.ar    1  UNL1        0.0502
     23 C          12.3350   79.4331   25.2424 C.ar    1  UNL1        0.0443
     24 C          13.1971   80.5079   25.0044 C.ar    1  UNL1        0.1457
     25 F          14.4847   80.2489   24.6622 F       1  UNL1       -0.2040
     26 N          10.1152   78.5402   25.8853 N.pl3   1  UNL1       -0.3040
     27 C          10.6172   77.3321   26.5586 C.3     1  UNL1        0.1122
     28 C           9.7257   76.1185   26.2773 C.3     1  UNL1        0.1122
     29 N           8.3160   76.4305   26.5551 N.pl3   1  UNL1       -0.3040
     30 C           7.7991   77.7838   26.2972 C.3     1  UNL1        0.1122
     31 C           8.7346   78.5794   25.3816 C.3     1  UNL1        0.1122
     32 C           7.4137   75.3907   26.9953 C.ar    1  UNL1        0.0488
     33 C           6.9709   74.3990   26.1010 C.ar    1  UNL1        0.0154
     34 C           6.0956   73.3976   26.5284 C.ar    1  UNL1        0.0135
     35 C           5.6472   73.3689   27.8521 C.ar    1  UNL1        0.0683
     36 CL          4.5458   72.0921   28.3514 Cl      1  UNL1       -0.0814
     37 C           6.0790   74.3536   28.7550 C.ar    1  UNL1        0.0694
     38 CL          5.5409   74.3528   30.4293 Cl      1  UNL1       -0.0813
     39 C           6.9556   75.3570   28.3256 C.ar    1  UNL1        0.0268
     40 C          13.6046   85.9746   23.9285 C.3     1  UNL1        0.0569
     41 C          14.5394   87.0050   24.5058 C.ar    1  UNL1       -0.0017
     42 C          15.2515   87.9687   23.7965 C.ar    1  UNL1        0.0681
     43 N          15.8912   88.8050   24.6451 N.ar    1  UNL1       -0.3523
     44 C          15.5860   88.3826   25.8841 C.ar    1  UNL1        0.0563
     45 C          15.9873   88.9506   27.0927 C.ar    1  UNL1        0.0170
     46 C          15.5251   88.3599   28.2831 C.ar    1  UNL1        0.0015
     47 C          14.6853   87.2254   28.2395 C.ar    1  UNL1        0.0001
     48 C          14.3000   86.6717   27.0057 C.ar    1  UNL1        0.0012
     49 C          14.7660   87.2841   25.8413 C.ar    1  UNL1        0.0131
     50 H          16.4845   89.6242   24.3858 H       1  UNL1        0.1660
@<TRIPOS>BOND
     1    12    13    1
     2    13    14    2
     3    13     6    1
     4     6     7   ar
     5     7     8   ar
     6     8     2    1
     7     2     3   am
     8     3     4    2
     9     3     1    1
    10     1    40    1
    11    40    41    1
    12    41    42   ar
    13    42    43   ar
    14    43    44   ar
    15    44    45   ar
    16    45    46   ar
    17    46    47   ar
    18    47    48   ar
    19    48    49   ar
    20     1    15    1
    21    15    16   am
    22    16    17    2
    23    16    19    1
    24    19    20   ar
    25    20    21   ar
    26    21    22   ar
    27    22    26    1
    28    26    27    1
    29    27    28    1
    30    28    29    1
    31    29    32    1
    32    32    33   ar
    33    33    34   ar
    34    34    35   ar
    35    35    36    1
    36    35    37   ar
    37    37    38    1
    38    37    39   ar
    39    29    30    1
    40    30    31    1
    41    22    23   ar
    42    23    24   ar
    43    24    25    1
    44     8     9   ar
    45     9    10   ar
    46    10    11   ar
    47    11     6   ar
    48    49    41   ar
    49    24    19   ar
    50    49    44   ar
    51    31    26    1
    52    39    32   ar
    53     2     5    1
    54    43    50    1
    55    15    18    1
@<TRIPOS>MOLECULE
*****
 50 55 0 0 0
SMALL
GASTEIGER

@<TRIPOS>ATOM
      1 C          14.2422   85.0313   23.9374 C.3     1  UNL1        0.1535
      2 N          13.6739   84.9240   21.4415 N.am    1  UNL1       -0.2825
      3 C          14.6594   85.0127   22.4830 C.2     1  UNL1        0.2443
      4 O          15.8850   84.9688   22.1871 O.2     1  UNL1       -0.2730
      5 H          12.7603   84.4677   21.6645 H       1  UNL1        0.1549
      6 C          14.5945   84.9915   17.7990 C.ar    1  UNL1        0.1171
      7 C          14.3593   84.5047   19.0957 C.ar    1  UNL1        0.0367
      8 C          13.8970   85.3774   20.0957 C.ar    1  UNL1        0.0535
      9 C          13.7090   86.7293   19.7837 C.ar    1  UNL1        0.0353
     10 C          13.9500   87.1779   18.4847 C.ar    1  UNL1        0.1002
     11 N          14.3807   86.3100   17.5325 N.ar    1  UNL1       -0.2409
     12 C          14.1638   83.0914   16.0990 C.3     1  UNL1        0.0789
     13 C          15.0791   84.0974   16.7252 C.2     1  UNL1        0.1910
     14 O          16.2723   84.1740   16.3244 O.2     1  UNL1       -0.2897
     15 N          13.2376   83.9944   24.1995 N.am    1  UNL1       -0.2945
     16 C          13.5912   82.6244   24.4461 C.2     1  UNL1        0.2483
     17 O          14.7894   82.2506   24.3213 O.2     1  UNL1       -0.2701
     18 H          12.2731   84.3092   24.4513 H       1  UNL1        0.1501
     19 C          12.5750   81.6581   24.9164 C.ar    1  UNL1        0.0808
     20 C          11.3287   82.1272   25.3603 C.ar    1  UNL1        0.0080
     21 C          10.3345   81.2321   25.7617 C.ar    1  UNL1        0.0148
     22 C          10.5671   79.8464   25.7361 C.ar    1  UNL1        0.0502
     23 C          11.8252   79.3790   25.3162 C.ar    1  UNL1        0.0443
     24 C          12.8217   80.2728   24.9124 C.ar    1  UNL1        0.1457
     25 F          14.0375   79.7808   24.5628 F       1  UNL1       -0.2040
     26 N           9.5355   78.9200   26.1441 N.pl3   1  UNL1       -0.3040
     27 C           9.2125   77.7651   25.2917 C.3     1  UNL1        0.1122
     28 C           7.8189   77.2090   25.6005 C.3     1  UNL1        0.1122
     29 N           7.6610   76.9665   27.0420 N.pl3   1  UNL1       -0.3040
     30 C           8.3162   77.8576   28.0123 C.3     1  UNL1        0.1122
     31 C           8.7534   79.1741   27.3627 C.3     1  UNL1        0.1122
     32 C           6.7924   75.9109   27.5114 C.ar    1  UNL1        0.0488
     33 C           6.8316   74.6341   26.9219 C.ar    1  UNL1        0.0154
     34 C           5.9880   73.6170   27.3750 C.ar    1  UNL1        0.0135
     35 C           5.0920   73.8558   28.4211 C.ar    1  UNL1        0.0683
     36 CL          4.0467   72.5496   28.9628 Cl      1  UNL1       -0.0814
     37 C           5.0404   75.1258   29.0173 C.ar    1  UNL1        0.0694
     38 CL          3.9297   75.4677   30.3373 Cl      1  UNL1       -0.0813
     39 C           5.8857   76.1446   28.5622 C.ar    1  UNL1        0.0268
     40 C          13.6976   86.4111   24.3731 C.3     1  UNL1        0.0569
     41 C          14.6054   87.1078   25.3524 C.ar    1  UNL1       -0.0017
     42 C          14.4288   87.1933   26.7309 C.ar    1  UNL1        0.0681
     43 N          15.4996   87.7819   27.3101 N.ar    1  UNL1       -0.3523
     44 C          16.3540   88.0645   26.3118 C.ar    1  UNL1        0.0563
     45 C          17.6155   88.6487   26.4198 C.ar    1  UNL1        0.0170
     46 C          18.3604   88.8292   25.2399 C.ar    1  UNL1        0.0015
     47 C          17.8323   88.4302   23.9924 C.ar    1  UNL1        0.0001
     48 C          16.5552   87.8470   23.9136 C.ar    1  UNL1        0.0012
     49 C          15.8430   87.6719   25.1011 C.ar    1  UNL1        0.0131
     50 H          15.6389   87.9600   28.3296 H       1  UNL1        0.1660
@<TRIPOS>BOND
     1    12    13    1
     2    13    14    2
     3    13     6    1
     4     6     7   ar
     5     7     8   ar
     6     8     2    1
     7     2     3   am
     8     3     4    2
     9     3     1    1
    10     1    40    1
    11    40    41    1
    12    41    42   ar
    13    42    43   ar
    14    43    44   ar
    15    44    45   ar
    16    45    46   ar
    17    46    47   ar
    18    47    48   ar
    19    48    49   ar
    20     1    15    1
    21    15    16   am
    22    16    17    2
    23    16    19    1
    24    19    20   ar
    25    20    21   ar
    26    21    22   ar
    27    22    26    1
    28    26    27    1
    29    27    28    1
    30    28    29    1
    31    29    32    1
    32    32    33   ar
    33    33    34   ar
    34    34    35   ar
    35    35    36    1
    36    35    37   ar
    37    37    38    1
    38    37    39   ar
    39    29    30    1
    40    30    31    1
    41    22    23   ar
    42    23    24   ar
    43    24    25    1
    44     8     9   ar
    45     9    10   ar
    46    10    11   ar
    47    11     6   ar
    48    49    41   ar
    49    24    19   ar
    50    49    44   ar
    51    31    26    1
    52    39    32   ar
    53     2     5    1
    54    43    50    1
    55    15    18    1
@<TRIPOS>MOLECULE
*****
 50 55 0 0 0
SMALL
GASTEIGER

@<TRIPOS>ATOM
      1 C           7.6175   74.2504   24.9235 C.3     1  UNL1        0.1535
      2 N           6.3142   73.3504   26.9373 N.am    1  UNL1       -0.2825
      3 C           6.3772   74.2119   25.7895 C.2     1  UNL1        0.2443
      4 O           5.3537   74.8620   25.4408 O.2     1  UNL1       -0.2730
      5 H           6.9044   72.4877   26.9396 H       1  UNL1        0.1549
      6 C           4.6539   74.9493   29.9050 C.ar    1  UNL1        0.1171
      7 C           5.5016   74.7730   28.7987 C.ar    1  UNL1        0.0367
      8 C           5.4422   73.5807   28.0569 C.ar    1  UNL1        0.0535
      9 C           4.5550   72.5746   28.4579 C.ar    1  UNL1        0.0353
     10 C           3.7258   72.7846   29.5602 C.ar    1  UNL1        0.1002
     11 N           3.7916   73.9530   30.2501 N.ar    1  UNL1       -0.2409
     12 C           4.0384   77.4432   30.2006 C.3     1  UNL1        0.0789
     13 C           4.6915   76.1934   30.7038 C.2     1  UNL1        0.1910
     14 O           5.2759   76.2140   31.8211 O.2     1  UNL1       -0.2897
     15 N           8.2184   75.5888   24.9419 N.am    1  UNL1       -0.2945
     16 C           9.2148   75.9726   25.9026 C.2     1  UNL1        0.2483
     17 O           9.5141   75.1910   26.8463 O.2     1  UNL1       -0.2701
     18 H           8.0954   76.1852   24.0922 H       1  UNL1        0.1501
     19 C           9.9485   77.2485   25.7568 C.ar    1  UNL1        0.0808
     20 C          11.2957   77.2297   25.3633 C.ar    1  UNL1        0.0080
     21 C          11.9961   78.4225   25.1698 C.ar    1  UNL1        0.0148
     22 C          11.3668   79.6624   25.3735 C.ar    1  UNL1        0.0502
     23 C          10.0248   79.6793   25.7933 C.ar    1  UNL1        0.0443
     24 C           9.3208   78.4868   25.9863 C.ar    1  UNL1        0.1457
     25 F           8.0431   78.5488   26.4401 F       1  UNL1       -0.2040
     26 N          12.0894   80.8967   25.1657 N.pl3   1  UNL1       -0.3040
     27 C          13.5560   80.8737   25.0502 C.3     1  UNL1        0.1122
     28 C          14.1656   82.2494   25.3376 C.3     1  UNL1        0.1122
     29 N          13.5067   83.2905   24.5354 N.pl3   1  UNL1       -0.3040
     30 C          12.0710   83.1841   24.2311 C.3     1  UNL1        0.1122
     31 C          11.3725   82.1801   25.1533 C.3     1  UNL1        0.1122
     32 C          14.2421   84.4634   24.1199 C.ar    1  UNL1        0.0488
     33 C          14.8652   84.5104   22.8594 C.ar    1  UNL1        0.0154
     34 C          15.5788   85.6438   22.4623 C.ar    1  UNL1        0.0135
     35 C          15.6836   86.7471   23.3143 C.ar    1  UNL1        0.0683
     36 CL         16.5906   88.1549   22.7779 Cl      1  UNL1       -0.0814
     37 C          15.0689   86.7133   24.5761 C.ar    1  UNL1        0.0694
     38 CL         15.1744   88.0803   25.6774 Cl      1  UNL1       -0.0813
     39 C          14.3546   85.5768   24.9734 C.ar    1  UNL1        0.0268
     40 C           7.3273   73.8259   23.4654 C.3     1  UNL1        0.0569
     41 C           8.3709   72.8880   22.9179 C.ar    1  UNL1       -0.0017
     42 C           8.1395   71.6861   22.2541 C.ar    1  UNL1        0.0681
     43 N           9.3003   71.1694   21.7912 N.ar    1  UNL1       -0.3523
     44 C          10.2628   72.0358   22.1512 C.ar    1  UNL1        0.0563
     45 C          11.6256   71.9491   21.8693 C.ar    1  UNL1        0.0170
     46 C          12.4585   72.9895   22.3205 C.ar    1  UNL1        0.0015
     47 C          11.9176   74.0786   23.0386 C.ar    1  UNL1        0.0001
     48 C          10.5394   74.1373   23.3116 C.ar    1  UNL1        0.0012
     49 C           9.7362   73.0960   22.8438 C.ar    1  UNL1        0.0131
     50 H           9.4177   70.2861   21.2468 H       1  UNL1        0.1660
@<TRIPOS>BOND
     1    12    13    1
     2    13    14    2
     3    13     6    1
     4     6     7   ar
     5     7     8   ar
     6     8     2    1
     7     2     3   am
     8     3     4    2
     9     3     1    1
    10     1    40    1
    11    40    41    1
    12    41    42   ar
    13    42    43   ar
    14    43    44   ar
    15    44    45   ar
    16    45    46   ar
    17    46    47   ar
    18    47    48   ar
    19    48    49   ar
    20     1    15    1
    21    15    16   am
    22    16    17    2
    23    16    19    1
    24    19    20   ar
    25    20    21   ar
    26    21    22   ar
    27    22    26    1
    28    26    27    1
    29    27    28    1
    30    28    29    1
    31    29    32    1
    32    32    33   ar
    33    33    34   ar
    34    34    35   ar
    35    35    36    1
    36    35    37   ar
    37    37    38    1
    38    37    39   ar
    39    29    30    1
    40    30    31    1
    41    22    23   ar
    42    23    24   ar
    43    24    25    1
    44     8     9   ar
    45     9    10   ar
    46    10    11   ar
    47    11     6   ar
    48    49    41   ar
    49    24    19   ar
    50    49    44   ar
    51    31    26    1
    52    39    32   ar
    53     2     5    1
    54    43    50    1
    55    15    18    1
@<TRIPOS>MOLECULE
*****
 50 55 0 0 0
SMALL
GASTEIGER

@<TRIPOS>ATOM
      1 C          10.7055   78.9260   25.7269 C.3     1  UNL1        0.1535
      2 N           9.3501   79.1330   27.8911 N.am    1  UNL1       -0.2825
      3 C          10.3492   79.6580   27.0023 C.2     1  UNL1        0.2443
      4 O          10.8573   80.7894   27.2338 O.2     1  UNL1       -0.2730
      5 H           8.6057   78.5193   27.4891 H       1  UNL1        0.1549
      6 C           9.3279   81.0488   31.1237 C.ar    1  UNL1        0.1171
      7 C           9.3636   80.7793   29.7454 C.ar    1  UNL1        0.0367
      8 C           9.2861   79.4514   29.2916 C.ar    1  UNL1        0.0535
      9 C           9.2055   78.4162   30.2308 C.ar    1  UNL1        0.0353
     10 C           9.1697   78.7204   31.5920 C.ar    1  UNL1        0.1002
     11 N           9.2296   80.0136   32.0034 N.ar    1  UNL1       -0.2409
     12 C           9.0499   82.7490   33.0520 C.3     1  UNL1        0.0789
     13 C           9.4054   82.4357   31.6317 C.2     1  UNL1        0.1910
     14 O           9.7734   83.3716   30.8709 O.2     1  UNL1       -0.2897
     15 N           9.4926   78.5479   24.9928 N.am    1  UNL1       -0.2945
     16 C           9.4458   78.4946   23.5583 C.2     1  UNL1        0.2483
     17 O          10.4308   78.8963   22.8804 O.2     1  UNL1       -0.2701
     18 H           8.7302   78.0760   25.5301 H       1  UNL1        0.1501
     19 C           8.2798   77.9053   22.8649 C.ar    1  UNL1        0.0808
     20 C           7.5494   76.8821   23.4890 C.ar    1  UNL1        0.0080
     21 C           6.4148   76.3442   22.8774 C.ar    1  UNL1        0.0148
     22 C           5.9892   76.8122   21.6225 C.ar    1  UNL1        0.0502
     23 C           6.7371   77.8189   20.9864 C.ar    1  UNL1        0.0443
     24 C           7.8724   78.3602   21.5971 C.ar    1  UNL1        0.1457
     25 F           8.5928   79.2941   20.9254 F       1  UNL1       -0.2040
     26 N           4.8107   76.2610   20.9932 N.pl3   1  UNL1       -0.3040
     27 C           4.2175   75.0195   21.5144 C.3     1  UNL1        0.1122
     28 C           3.3326   74.3350   20.4680 C.3     1  UNL1        0.1122
     29 N           2.3625   75.2843   19.9028 N.pl3   1  UNL1       -0.3040
     30 C           2.7361   76.6961   19.7231 C.3     1  UNL1        0.1122
     31 C           4.2544   76.8896   19.7863 C.3     1  UNL1        0.1122
     32 C           1.0746   74.8195   19.4397 C.ar    1  UNL1        0.0488
     33 C           0.0252   75.7273   19.2076 C.ar    1  UNL1        0.0154
     34 C          -1.2197   75.2747   18.7638 C.ar    1  UNL1        0.0135
     35 C          -1.4389   73.9115   18.5454 C.ar    1  UNL1        0.0683
     36 CL         -3.0199   73.3813   17.9869 Cl      1  UNL1       -0.0814
     37 C          -0.4015   72.9938   18.7751 C.ar    1  UNL1        0.0694
     38 CL         -0.6344   71.2709   18.5106 Cl      1  UNL1       -0.0813
     39 C           0.8455   73.4483   19.2203 C.ar    1  UNL1        0.0268
     40 C          11.5696   77.6718   25.9931 C.3     1  UNL1        0.0569
     41 C          12.6042   77.4448   24.9223 C.ar    1  UNL1       -0.0017
     42 C          12.4957   76.5837   23.8335 C.ar    1  UNL1        0.0681
     43 N          13.5576   76.7270   23.0085 N.ar    1  UNL1       -0.3523
     44 C          14.3337   77.6744   23.5624 C.ar    1  UNL1        0.0563
     45 C          15.5274   78.1893   23.0583 C.ar    1  UNL1        0.0170
     46 C          16.1675   79.2054   23.7914 C.ar    1  UNL1        0.0015
     47 C          15.6088   79.6758   25.0001 C.ar    1  UNL1        0.0001
     48 C          14.4053   79.1349   25.4862 C.ar    1  UNL1        0.0012
     49 C          13.7879   78.1347   24.7333 C.ar    1  UNL1        0.0131
     50 H          13.7259   76.2172   22.1129 H       1  UNL1        0.1660
@<TRIPOS>BOND
     1    12    13    1
     2    13    14    2
     3    13     6    1
     4     6     7   ar
     5     7     8   ar
     6     8     2    1
     7     2     3   am
     8     3     4    2
     9     3     1    1
    10     1    40    1
    11    40    41    1
    12    41    42   ar
    13    42    43   ar
    14    43    44   ar
    15    44    45   ar
    16    45    46   ar
    17    46    47   ar
    18    47    48   ar
    19    48    49   ar
    20     1    15    1
    21    15    16   am
    22    16    17    2
    23    16    19    1
    24    19    20   ar
    25    20    21   ar
    26    21    22   ar
    27    22    26    1
    28    26    27    1
    29    27    28    1
    30    28    29    1
    31    29    32    1
    32    32    33   ar
    33    33    34   ar
    34    34    35   ar
    35    35    36    1
    36    35    37   ar
    37    37    38    1
    38    37    39   ar
    39    29    30    1
    40    30    31    1
    41    22    23   ar
    42    23    24   ar
    43    24    25    1
    44     8     9   ar
    45     9    10   ar
    46    10    11   ar
    47    11     6   ar
    48    49    41   ar
    49    24    19   ar
    50    49    44   ar
    51    31    26    1
    52    39    32   ar
    53     2     5    1
    54    43    50    1
    55    15    18    1
@<TRIPOS>MOLECULE
*****
 50 55 0 0 0
SMALL
GASTEIGER

@<TRIPOS>ATOM
      1 C          10.7766   79.7051   25.2913 C.3     1  UNL1        0.1535
      2 N           9.4397   79.6482   27.4762 N.am    1  UNL1       -0.2825
      3 C          10.4530   80.2594   26.6616 C.2     1  UNL1        0.2443
      4 O          11.0027   81.3276   27.0471 O.2     1  UNL1       -0.2730
      5 H           8.6717   79.1248   26.9980 H       1  UNL1        0.1549
      6 C           9.4059   81.0925   30.9451 C.ar    1  UNL1        0.1171
      7 C           9.4219   81.0193   29.5422 C.ar    1  UNL1        0.0367
      8 C           9.3938   79.7652   28.9083 C.ar    1  UNL1        0.0535
      9 C           9.3816   78.6068   29.6945 C.ar    1  UNL1        0.0353
     10 C           9.3636   78.7166   31.0853 C.ar    1  UNL1        0.1002
     11 N           9.3747   79.9415   31.6727 N.ar    1  UNL1       -0.2409
     12 C           8.9821   82.5123   33.0641 C.3     1  UNL1        0.0789
     13 C           9.4326   82.3973   31.6409 C.2     1  UNL1        0.1910
     14 O           9.8371   83.4297   31.0403 O.2     1  UNL1       -0.2897
     15 N           9.5598   79.2204   24.6301 N.am    1  UNL1       -0.2945
     16 C           9.4224   79.1838   23.2009 C.2     1  UNL1        0.2483
     17 O          10.3161   79.6902   22.4688 O.2     1  UNL1       -0.2701
     18 H           8.8845   78.6680   25.2060 H       1  UNL1        0.1501
     19 C           8.2753   78.4929   22.5727 C.ar    1  UNL1        0.0808
     20 C           7.8084   77.2889   23.1227 C.ar    1  UNL1        0.0080
     21 C           6.6957   76.6435   22.5786 C.ar    1  UNL1        0.0148
     22 C           6.0288   77.1838   21.4658 C.ar    1  UNL1        0.0502
     23 C           6.5137   78.3762   20.8996 C.ar    1  UNL1        0.0443
     24 C           7.6265   79.0252   21.4432 C.ar    1  UNL1        0.1457
     25 F           8.0907   80.1461   20.8346 F       1  UNL1       -0.2040
     26 N           4.8728   76.5200   20.9077 N.pl3   1  UNL1       -0.3040
     27 C           4.1042   75.5749   21.7329 C.3     1  UNL1        0.1122
     28 C           3.2687   74.6238   20.8703 C.3     1  UNL1        0.1122
     29 N           2.4656   75.3740   19.8935 N.pl3   1  UNL1       -0.3040
     30 C           2.9986   76.6103   19.2998 C.3     1  UNL1        0.1122
     31 C           4.5136   76.7223   19.4966 C.3     1  UNL1        0.1122
     32 C           1.1927   74.8553   19.4464 C.ar    1  UNL1        0.0488
     33 C           0.1401   75.7270   19.1125 C.ar    1  UNL1        0.0154
     34 C          -1.0904   75.2226   18.6846 C.ar    1  UNL1        0.0135
     35 C          -1.2918   73.8430   18.5835 C.ar    1  UNL1        0.0683
     36 CL         -2.8550   73.2474   18.0410 Cl      1  UNL1       -0.0814
     37 C          -0.2510   72.9612   18.9156 C.ar    1  UNL1        0.0694
     38 CL         -0.4617   71.2191   18.8004 Cl      1  UNL1       -0.0813
     39 C           0.9815   73.4676   19.3450 C.ar    1  UNL1        0.0268
     40 C          11.8276   78.5727   25.3508 C.3     1  UNL1        0.0569
     41 C          11.2056   77.2027   25.2807 C.ar    1  UNL1       -0.0017
     42 C          10.4679   76.5746   26.2808 C.ar    1  UNL1        0.0681
     43 N           9.9563   75.4070   25.8297 N.ar    1  UNL1       -0.3523
     44 C          10.3588   75.2934   24.5523 C.ar    1  UNL1        0.0563
     45 C          10.0531   74.2677   23.6586 C.ar    1  UNL1        0.0170
     46 C          10.5597   74.3627   22.3494 C.ar    1  UNL1        0.0015
     47 C          11.3548   75.4658   21.9683 C.ar    1  UNL1        0.0001
     48 C          11.6501   76.4837   22.8925 C.ar    1  UNL1        0.0012
     49 C          11.1264   76.3676   24.1811 C.ar    1  UNL1        0.0131
     50 H           9.3538   74.7416   26.3631 H       1  UNL1        0.1660
@<TRIPOS>BOND
     1    12    13    1
     2    13    14    2
     3    13     6    1
     4     6     7   ar
     5     7     8   ar
     6     8     2    1
     7     2     3   am
     8     3     4    2
     9     3     1    1
    10     1    40    1
    11    40    41    1
    12    41    42   ar
    13    42    43   ar
    14    43    44   ar
    15    44    45   ar
    16    45    46   ar
    17    46    47   ar
    18    47    48   ar
    19    48    49   ar
    20     1    15    1
    21    15    16   am
    22    16    17    2
    23    16    19    1
    24    19    20   ar
    25    20    21   ar
    26    21    22   ar
    27    22    26    1
    28    26    27    1
    29    27    28    1
    30    28    29    1
    31    29    32    1
    32    32    33   ar
    33    33    34   ar
    34    34    35   ar
    35    35    36    1
    36    35    37   ar
    37    37    38    1
    38    37    39   ar
    39    29    30    1
    40    30    31    1
    41    22    23   ar
    42    23    24   ar
    43    24    25    1
    44     8     9   ar
    45     9    10   ar
    46    10    11   ar
    47    11     6   ar
    48    49    41   ar
    49    24    19   ar
    50    49    44   ar
    51    31    26    1
    52    39    32   ar
    53     2     5    1
    54    43    50    1
    55    15    18    1
@<TRIPOS>MOLECULE
*****
 50 55 0 0 0
SMALL
GASTEIGER

@<TRIPOS>ATOM
      1 C           8.5175   74.6390   23.9616 C.3     1  UNL1        0.1535
      2 N           6.3728   75.8941   24.5855 N.am    1  UNL1       -0.2825
      3 C           7.0270   74.6682   24.2206 C.2     1  UNL1        0.2443
      4 O           6.3732   73.5892   24.2187 O.2     1  UNL1       -0.2730
      5 H           6.9381   76.6310   25.0650 H       1  UNL1        0.1549
      6 C           3.0376   76.3860   22.9257 C.ar    1  UNL1        0.1171
      7 C           4.4053   76.1114   23.0920 C.ar    1  UNL1        0.0367
      8 C           4.9716   76.1394   24.3781 C.ar    1  UNL1        0.0535
      9 C           4.1612   76.4730   25.4699 C.ar    1  UNL1        0.0353
     10 C           2.8062   76.7376   25.2686 C.ar    1  UNL1        0.1002
     11 N           2.2804   76.6876   24.0170 N.ar    1  UNL1       -0.2409
     12 C           2.6906   75.2402   20.6339 C.3     1  UNL1        0.0789
     13 C           2.4126   76.3622   21.5856 C.2     1  UNL1        0.1910
     14 O           1.6359   77.2898   21.2298 O.2     1  UNL1       -0.2897
     15 N           9.1440   75.8873   24.4111 N.am    1  UNL1       -0.2945
     16 C          10.5576   76.1200   24.3088 C.2     1  UNL1        0.2483
     17 O          11.3235   75.1906   23.9338 O.2     1  UNL1       -0.2701
     18 H           8.5188   76.7080   24.5798 H       1  UNL1        0.1501
     19 C          11.1200   77.4627   24.5701 C.ar    1  UNL1        0.0808
     20 C          12.5103   77.6197   24.6823 C.ar    1  UNL1        0.0080
     21 C          13.0691   78.8845   24.8785 C.ar    1  UNL1        0.0148
     22 C          12.2488   80.0215   24.9753 C.ar    1  UNL1        0.0502
     23 C          10.8546   79.8594   24.8891 C.ar    1  UNL1        0.0443
     24 C          10.2926   78.5945   24.6912 C.ar    1  UNL1        0.1457
     25 F           8.9406   78.4775   24.6643 F       1  UNL1       -0.2040
     26 N          12.8276   81.3313   25.1705 N.pl3   1  UNL1       -0.3040
     27 C          12.1732   82.5131   24.5876 C.3     1  UNL1        0.1122
     28 C          13.1457   83.6897   24.4585 C.3     1  UNL1        0.1122
     29 N          13.8345   83.9402   25.7331 N.pl3   1  UNL1       -0.3040
     30 C          14.1733   82.8145   26.6180 C.3     1  UNL1        0.1122
     31 C          14.1090   81.4756   25.8765 C.3     1  UNL1        0.1122
     32 C          14.2603   85.2773   26.0796 C.ar    1  UNL1        0.0488
     33 C          14.3022   85.6912   27.4235 C.ar    1  UNL1        0.0154
     34 C          14.7102   86.9855   27.7551 C.ar    1  UNL1        0.0135
     35 C          15.0818   87.8874   26.7537 C.ar    1  UNL1        0.0683
     36 CL         15.5895   89.5076   27.2117 Cl      1  UNL1       -0.0814
     37 C          15.0426   87.4887   25.4081 C.ar    1  UNL1        0.0694
     38 CL         15.5038   88.5912   24.1179 Cl      1  UNL1       -0.0813
     39 C          14.6330   86.1918   25.0768 C.ar    1  UNL1        0.0268
     40 C           8.8484   74.3933   22.4714 C.3     1  UNL1        0.0569
     41 C           7.9037   75.1111   21.5436 C.ar    1  UNL1       -0.0017
     42 C           6.7935   74.5648   20.9051 C.ar    1  UNL1        0.0681
     43 N           6.1032   75.5257   20.2502 N.ar    1  UNL1       -0.3523
     44 C           6.7632   76.6751   20.4730 C.ar    1  UNL1        0.0563
     45 C           6.4142   77.9494   20.0273 C.ar    1  UNL1        0.0170
     46 C           7.2375   79.0266   20.4034 C.ar    1  UNL1        0.0015
     47 C           8.3801   78.8082   21.2040 C.ar    1  UNL1        0.0001
     48 C           8.7096   77.5111   21.6358 C.ar    1  UNL1        0.0012
     49 C           7.8698   76.4632   21.2551 C.ar    1  UNL1        0.0131
     50 H           5.2242   75.3988   19.7009 H       1  UNL1        0.1660
@<TRIPOS>BOND
     1    12    13    1
     2    13    14    2
     3    13     6    1
     4     6     7   ar
     5     7     8   ar
     6     8     2    1
     7     2     3   am
     8     3     4    2
     9     3     1    1
    10     1    40    1
    11    40    41    1
    12    41    42   ar
    13    42    43   ar
    14    43    44   ar
    15    44    45   ar
    16    45    46   ar
    17    46    47   ar
    18    47    48   ar
    19    48    49   ar
    20     1    15    1
    21    15    16   am
    22    16    17    2
    23    16    19    1
    24    19    20   ar
    25    20    21   ar
    26    21    22   ar
    27    22    26    1
    28    26    27    1
    29    27    28    1
    30    28    29    1
    31    29    32    1
    32    32    33   ar
    33    33    34   ar
    34    34    35   ar
    35    35    36    1
    36    35    37   ar
    37    37    38    1
    38    37    39   ar
    39    29    30    1
    40    30    31    1
    41    22    23   ar
    42    23    24   ar
    43    24    25    1
    44     8     9   ar
    45     9    10   ar
    46    10    11   ar
    47    11     6   ar
    48    49    41   ar
    49    24    19   ar
    50    49    44   ar
    51    31    26    1
    52    39    32   ar
    53     2     5    1
    54    43    50    1
    55    15    18    1
@<TRIPOS>MOLECULE
*****
 50 55 0 0 0
SMALL
GASTEIGER

@<TRIPOS>ATOM
      1 C          13.8202   85.5867   23.2716 C.3     1  UNL1        0.1535
      2 N          14.4943   86.3496   25.6227 N.am    1  UNL1       -0.2825
      3 C          13.6496   86.4949   24.4698 C.2     1  UNL1        0.2443
      4 O          12.6912   87.3149   24.4983 O.2     1  UNL1       -0.2730
      5 H          14.9129   85.4109   25.8122 H       1  UNL1        0.1549
      6 C          14.1296   88.7472   28.4930 C.ar    1  UNL1        0.1171
      7 C          13.8621   87.6835   27.6151 C.ar    1  UNL1        0.0367
      8 C          14.7491   87.4096   26.5598 C.ar    1  UNL1        0.0535
      9 C          15.8719   88.2278   26.3865 C.ar    1  UNL1        0.0353
     10 C          16.1080   89.2741   27.2788 C.ar    1  UNL1        0.1002
     11 N          15.2434   89.5071   28.3004 N.ar    1  UNL1       -0.2409
     12 C          11.8097   89.4997   29.3520 C.3     1  UNL1        0.0789
     13 C          13.2163   89.0587   29.6139 C.2     1  UNL1        0.1910
     14 O          13.6147   88.9550   30.8059 O.2     1  UNL1       -0.2897
     15 N          13.1732   84.2914   23.5095 N.am    1  UNL1       -0.2945
     16 C          13.5710   83.4164   24.5767 C.2     1  UNL1        0.2483
     17 O          14.5856   83.6930   25.2732 O.2     1  UNL1       -0.2701
     18 H          12.2518   84.1195   23.0466 H       1  UNL1        0.1501
     19 C          12.7600   82.2271   24.9164 C.ar    1  UNL1        0.0808
     20 C          11.3743   82.3633   25.0936 C.ar    1  UNL1        0.0080
     21 C          10.5795   81.2474   25.3649 C.ar    1  UNL1        0.0148
     22 C          11.1542   79.9695   25.4735 C.ar    1  UNL1        0.0502
     23 C          12.5461   79.8383   25.3219 C.ar    1  UNL1        0.0443
     24 C          13.3439   80.9536   25.0487 C.ar    1  UNL1        0.1457
     25 F          14.6883   80.7890   24.9600 F       1  UNL1       -0.2040
     26 N          10.3307   78.8137   25.7466 N.pl3   1  UNL1       -0.3040
     27 C          10.7613   77.8318   26.7542 C.3     1  UNL1        0.1122
     28 C          10.0688   76.4798   26.5557 C.3     1  UNL1        0.1122
     29 N           8.6120   76.6494   26.4527 N.pl3   1  UNL1       -0.3040
     30 C           8.0565   77.8491   25.8069 C.3     1  UNL1        0.1122
     31 C           9.1099   78.5740   24.9634 C.3     1  UNL1        0.1122
     32 C           7.7238   75.6015   26.9025 C.ar    1  UNL1        0.0488
     33 C           7.1353   74.7156   25.9816 C.ar    1  UNL1        0.0154
     34 C           6.2741   73.7063   26.4188 C.ar    1  UNL1        0.0135
     35 C           5.9851   73.5642   27.7791 C.ar    1  UNL1        0.0683
     36 CL          4.8962   72.2813   28.2897 Cl      1  UNL1       -0.0814
     37 C           6.5635   74.4427   28.7092 C.ar    1  UNL1        0.0694
     38 CL          6.2284   74.2975   30.4294 Cl      1  UNL1       -0.0813
     39 C           7.4259   75.4542   28.2700 C.ar    1  UNL1        0.0268
     40 C          15.3071   85.3711   22.9070 C.3     1  UNL1        0.0569
     41 C          15.9054   86.5560   22.1951 C.ar    1  UNL1       -0.0017
     42 C          15.4576   87.1204   21.0036 C.ar    1  UNL1        0.0681
     43 N          16.1517   88.2465   20.7226 N.ar    1  UNL1       -0.3523
     44 C          17.0303   88.4024   21.7278 C.ar    1  UNL1        0.0563
     45 C          17.9444   89.4416   21.8968 C.ar    1  UNL1        0.0170
     46 C          18.7563   89.4237   23.0458 C.ar    1  UNL1        0.0015
     47 C          18.6405   88.3775   23.9873 C.ar    1  UNL1        0.0001
     48 C          17.7120   87.3403   23.7885 C.ar    1  UNL1        0.0012
     49 C          16.9137   87.3890   22.6446 C.ar    1  UNL1        0.0131
     50 H          16.0151   88.8755   19.9004 H       1  UNL1        0.1660
@<TRIPOS>BOND
     1    12    13    1
     2    13    14    2
     3    13     6    1
     4     6     7   ar
     5     7     8   ar
     6     8     2    1
     7     2     3   am
     8     3     4    2
     9     3     1    1
    10     1    40    1
    11    40    41    1
    12    41    42   ar
    13    42    43   ar
    14    43    44   ar
    15    44    45   ar
    16    45    46   ar
    17    46    47   ar
    18    47    48   ar
    19    48    49   ar
    20     1    15    1
    21    15    16   am
    22    16    17    2
    23    16    19    1
    24    19    20   ar
    25    20    21   ar
    26    21    22   ar
    27    22    26    1
    28    26    27    1
    29    27    28    1
    30    28    29    1
    31    29    32    1
    32    32    33   ar
    33    33    34   ar
    34    34    35   ar
    35    35    36    1
    36    35    37   ar
    37    37    38    1
    38    37    39   ar
    39    29    30    1
    40    30    31    1
    41    22    23   ar
    42    23    24   ar
    43    24    25    1
    44     8     9   ar
    45     9    10   ar
    46    10    11   ar
    47    11     6   ar
    48    49    41   ar
    49    24    19   ar
    50    49    44   ar
    51    31    26    1
    52    39    32   ar
    53     2     5    1
    54    43    50    1
    55    15    18    1
@<TRIPOS>MOLECULE
*****
 50 55 0 0 0
SMALL
GASTEIGER

@<TRIPOS>ATOM
      1 C          10.6233   79.8796   25.1238 C.3     1  UNL1        0.1535
      2 N           9.1609   79.6990   27.2197 N.am    1  UNL1       -0.2825
      3 C          10.3315   80.2191   26.5692 C.2     1  UNL1        0.2443
      4 O          11.0647   81.0484   27.1745 O.2     1  UNL1       -0.2730
      5 H           8.3344   79.4564   26.6278 H       1  UNL1        0.1549
      6 C           7.9193   78.6781   30.6163 C.ar    1  UNL1        0.1171
      7 C           8.0184   78.7779   29.2184 C.ar    1  UNL1        0.0367
      8 C           9.0448   79.5477   28.6446 C.ar    1  UNL1        0.0535
      9 C           9.9340   80.2285   29.4848 C.ar    1  UNL1        0.0353
     10 C           9.8078   80.1049   30.8689 C.ar    1  UNL1        0.1002
     11 N           8.8166   79.3411   31.3975 N.ar    1  UNL1       -0.2409
     12 C           6.5641   76.4820   30.7789 C.3     1  UNL1        0.0789
     13 C           6.8517   77.8740   31.2495 C.2     1  UNL1        0.1910
     14 O           6.1707   78.3544   32.1960 O.2     1  UNL1       -0.2897
     15 N           9.4146   79.3835   24.4560 N.am    1  UNL1       -0.2945
     16 C           9.3300   79.2308   23.0304 C.2     1  UNL1        0.2483
     17 O          10.2694   79.6419   22.2959 O.2     1  UNL1       -0.2701
     18 H           8.6975   78.9057   25.0478 H       1  UNL1        0.1501
     19 C           8.1819   78.5297   22.4156 C.ar    1  UNL1        0.0808
     20 C           7.7202   77.3313   22.9822 C.ar    1  UNL1        0.0080
     21 C           6.6068   76.6768   22.4507 C.ar    1  UNL1        0.0148
     22 C           5.9339   77.2020   21.3344 C.ar    1  UNL1        0.0502
     23 C           6.4134   78.3886   20.7517 C.ar    1  UNL1        0.0443
     24 C           7.5270   79.0467   21.2826 C.ar    1  UNL1        0.1457
     25 F           7.9859   80.1613   20.6585 F       1  UNL1       -0.2040
     26 N           4.7770   76.5288   20.7893 N.pl3   1  UNL1       -0.3040
     27 C           4.0144   75.5917   21.6291 C.3     1  UNL1        0.1122
     28 C           3.1775   74.6284   20.7816 C.3     1  UNL1        0.1122
     29 N           2.3682   75.3649   19.7995 N.pl3   1  UNL1       -0.3040
     30 C           2.8955   76.5953   19.1888 C.3     1  UNL1        0.1122
     31 C           4.4111   76.7134   19.3775 C.3     1  UNL1        0.1122
     32 C           1.0947   74.8378   19.3643 C.ar    1  UNL1        0.0488
     33 C           0.0254   75.7015   19.0644 C.ar    1  UNL1        0.0154
     34 C          -1.2056   75.1890   18.6479 C.ar    1  UNL1        0.0135
     35 C          -1.3910   73.8089   18.5245 C.ar    1  UNL1        0.0683
     36 CL         -2.9553   73.2029   17.9974 Cl      1  UNL1       -0.0814
     37 C          -0.3334   72.9349   18.8226 C.ar    1  UNL1        0.0694
     38 CL         -0.5236   71.1926   18.6785 Cl      1  UNL1       -0.0813
     39 C           0.8996   73.4495   19.2406 C.ar    1  UNL1        0.0268
     40 C          11.7624   78.8436   24.9839 C.3     1  UNL1        0.0569
     41 C          11.2663   77.4241   25.0693 C.ar    1  UNL1       -0.0017
     42 C          10.6749   76.8173   26.1741 C.ar    1  UNL1        0.0681
     43 N          10.2381   75.5775   25.8565 N.ar    1  UNL1       -0.3523
     44 C          10.5427   75.3967   24.5599 C.ar    1  UNL1        0.0563
     45 C          10.2606   74.2801   23.7739 C.ar    1  UNL1        0.0170
     46 C          10.6466   74.3129   22.4213 C.ar    1  UNL1        0.0015
     47 C          11.3020   75.4461   21.8916 C.ar    1  UNL1        0.0001
     48 C          11.5770   76.5565   22.7094 C.ar    1  UNL1        0.0012
     49 C          11.1744   76.4997   24.0446 C.ar    1  UNL1        0.0131
     50 H           9.7458   74.9078   26.4885 H       1  UNL1        0.1660
@<TRIPOS>BOND
     1    12    13    1
     2    13    14    2
     3    13     6    1
     4     6     7   ar
     5     7     8   ar
     6     8     2    1
     7     2     3   am
     8     3     4    2
     9     3     1    1
    10     1    40    1
    11    40    41    1
    12    41    42   ar
    13    42    43   ar
    14    43    44   ar
    15    44    45   ar
    16    45    46   ar
    17    46    47   ar
    18    47    48   ar
    19    48    49   ar
    20     1    15    1
    21    15    16   am
    22    16    17    2
    23    16    19    1
    24    19    20   ar
    25    20    21   ar
    26    21    22   ar
    27    22    26    1
    28    26    27    1
    29    27    28    1
    30    28    29    1
    31    29    32    1
    32    32    33   ar
    33    33    34   ar
    34    34    35   ar
    35    35    36    1
    36    35    37   ar
    37    37    38    1
    38    37    39   ar
    39    29    30    1
    40    30    31    1
    41    22    23   ar
    42    23    24   ar
    43    24    25    1
    44     8     9   ar
    45     9    10   ar
    46    10    11   ar
    47    11     6   ar
    48    49    41   ar
    49    24    19   ar
    50    49    44   ar
    51    31    26    1
    52    39    32   ar
    53     2     5    1
    54    43    50    1
    55    15    18    1
