@<TRIPOS>MOLECULE
*****
 35 39 0 0 0
SMALL
GASTEIGER

@<TRIPOS>ATOM
      1 C         -22.5187   -7.7385  -14.4713 C.2     1  UNL1        0.2491
      2 O         -22.9420   -6.8261  -15.2324 O.2     1  UNL1       -0.2699
      3 N         -22.1515   -7.4139  -13.1182 N.am    1  UNL1       -0.2760
      4 C         -23.0080   -6.5098  -12.3388 C.3     1  UNL1        0.0954
      5 C         -22.2854   -5.9887  -11.0880 C.3     1  UNL1        0.0399
      6 C         -21.6640   -7.1246  -10.2223 C.3     1  UNL1        0.0645
      7 C         -21.0402   -8.2568  -11.1064 C.3     1  UNL1        0.0399
      8 C         -20.8608   -7.8494  -12.5705 C.3     1  UNL1        0.0954
      9 C         -20.5477   -6.4856   -9.3220 C.3     1  UNL1        0.0477
     10 C         -20.1980   -7.3902   -8.1796 C.ar    1  UNL1        0.0220
     11 C         -19.0987   -7.4146   -7.3536 C.ar    1  UNL1        0.0923
     12 N         -19.3460   -8.3042   -6.3591 N.ar    1  UNL1       -0.2534
     13 N         -20.5679   -8.8098   -6.5055 N.ar    1  UNL1       -0.1651
     14 C         -21.0849   -8.2528   -7.6140 C.ar    1  UNL1        0.1515
     15 C         -22.4182   -8.4266   -8.1678 C.2     1  UNL1        0.2650
     16 O         -23.2773   -9.1482   -7.5960 O.2     1  UNL1       -0.2684
     17 N         -22.7304   -7.7237   -9.3809 N.am    1  UNL1       -0.3023
     18 H         -23.7028   -7.8010   -9.7560 H       1  UNL1        0.1497
     19 C         -23.9097  -13.7041  -14.8852 C.ar    1  UNL1        0.2303
     20 N         -23.9610  -12.4178  -14.4374 N.ar    1  UNL1       -0.2113
     21 C         -23.1659  -11.4428  -14.9527 C.ar    1  UNL1        0.0846
     22 C         -23.2519  -10.1358  -14.4627 C.ar    1  UNL1        0.0237
     23 C         -22.4260   -9.1247  -14.9841 C.ar    1  UNL1        0.0551
     24 C         -21.5317   -9.4364  -16.0237 C.ar    1  UNL1        0.0046
     25 C         -21.4428  -10.7414  -16.5180 C.ar    1  UNL1        0.0017
     26 C         -22.2554  -11.7506  -15.9848 C.ar    1  UNL1        0.0183
     27 C         -22.1879  -13.0663  -16.4586 C.ar    1  UNL1        0.0120
     28 C         -23.0160  -14.0489  -15.9088 C.ar    1  UNL1        0.0832
     29 I         -22.9022  -16.0307  -16.6346 I       1  UNL1       -0.0377
     30 C         -25.8124  -14.3721  -13.4475 C.3     1  UNL1        0.2542
     31 O         -24.7414  -14.6822  -14.3310 O.3     1  UNL1       -0.4558
     32 C         -18.4449   -8.6149   -5.2312 C.3     1  UNL1        0.0867
     33 C         -17.3747   -7.5133   -5.1040 C.3     1  UNL1        0.0244
     34 C         -19.2652   -8.6955   -3.9309 C.3     1  UNL1        0.0244
     35 C         -17.7355   -9.9671   -5.4598 C.3     1  UNL1        0.0244
@<TRIPOS>BOND
     1    30    31    1
     2    31    19    1
     3    19    20   ar
     4    20    21   ar
     5    21    22   ar
     6    22    23   ar
     7    23     1    1
     8     1     2    2
     9     1     3   am
    10     3     4    1
    11     4     5    1
    12     5     6    1
    13     6     7    1
    14     7     8    1
    15     6     9    1
    16     9    10    1
    17    10    11   ar
    18    11    12   ar
    19    12    32    1
    20    32    33    1
    21    32    34    1
    22    32    35    1
    23    12    13   ar
    24    13    14   ar
    25    14    15    1
    26    15    16    2
    27    15    17   am
    28    23    24   ar
    29    24    25   ar
    30    25    26   ar
    31    26    27   ar
    32    27    28   ar
    33    28    29    1
    34    28    19   ar
    35    26    21   ar
    36     8     3    1
    37    14    10   ar
    38    17     6    1
    39    17    18    1
@<TRIPOS>MOLECULE
*****
 35 39 0 0 0
SMALL
GASTEIGER

@<TRIPOS>ATOM
      1 C         -20.4954  -10.5504  -11.1765 C.2     1  UNL1        0.2491
      2 O         -19.8705  -11.6227  -11.4017 O.2     1  UNL1       -0.2699
      3 N         -21.4178  -10.0517  -12.1621 N.am    1  UNL1       -0.2760
      4 C         -22.3224  -10.9907  -12.8393 C.3     1  UNL1        0.0954
      5 C         -22.9497  -10.3633  -14.0927 C.3     1  UNL1        0.0399
      6 C         -23.6122   -8.9806  -13.8188 C.3     1  UNL1        0.0645
      7 C         -22.7728   -8.1202  -12.8150 C.3     1  UNL1        0.0399
      8 C         -21.3539   -8.6529  -12.6035 C.3     1  UNL1        0.0954
      9 C         -23.7284   -8.2243  -15.1897 C.3     1  UNL1        0.0477
     10 C         -24.7138   -7.0989  -15.0988 C.ar    1  UNL1        0.0220
     11 C         -24.9013   -5.9984  -15.9020 C.ar    1  UNL1        0.0923
     12 N         -26.0422   -5.3819  -15.5023 N.ar    1  UNL1       -0.2534
     13 N         -26.5973   -6.0702  -14.5082 N.ar    1  UNL1       -0.1651
     14 C         -25.7875   -7.1147  -14.2637 C.ar    1  UNL1        0.1515
     15 C         -25.9831   -8.1993  -13.3152 C.2     1  UNL1        0.2650
     16 O         -27.0219   -8.2726  -12.6072 O.2     1  UNL1       -0.2684
     17 N         -24.9578   -9.2018  -13.2318 N.am    1  UNL1       -0.3023
     18 H         -25.1157  -10.0126  -12.5916 H       1  UNL1        0.1497
     19 C         -17.6545   -9.1506   -5.9168 C.ar    1  UNL1        0.2303
     20 N         -17.8937   -9.7844   -7.0995 N.ar    1  UNL1       -0.2113
     21 C         -18.9619   -9.4732   -7.8810 C.ar    1  UNL1        0.0846
     22 C         -19.1689  -10.1497   -9.0874 C.ar    1  UNL1        0.0237
     23 C         -20.2765   -9.8399   -9.8957 C.ar    1  UNL1        0.0551
     24 C         -21.1590   -8.8225   -9.4910 C.ar    1  UNL1        0.0046
     25 C         -20.9557   -8.1423   -8.2863 C.ar    1  UNL1        0.0017
     26 C         -19.8601   -8.4649   -7.4747 C.ar    1  UNL1        0.0183
     27 C         -19.6314   -7.8019   -6.2629 C.ar    1  UNL1        0.0120
     28 C         -18.5261   -8.1439   -5.4787 C.ar    1  UNL1        0.0832
     29 I         -18.1946   -7.1342   -3.6516 I       1  UNL1       -0.0377
     30 C         -16.0445  -10.8263   -5.0602 C.3     1  UNL1        0.2542
     31 O         -16.5465   -9.4974   -5.1372 O.3     1  UNL1       -0.4558
     32 C         -26.6380   -4.1792  -16.1179 C.3     1  UNL1        0.0867
     33 C         -26.5339   -4.2764  -17.6524 C.3     1  UNL1        0.0244
     34 C         -28.1168   -4.0735  -15.7028 C.3     1  UNL1        0.0244
     35 C         -25.8960   -2.9074  -15.6532 C.3     1  UNL1        0.0244
@<TRIPOS>BOND
     1    30    31    1
     2    31    19    1
     3    19    20   ar
     4    20    21   ar
     5    21    22   ar
     6    22    23   ar
     7    23     1    1
     8     1     2    2
     9     1     3   am
    10     3     4    1
    11     4     5    1
    12     5     6    1
    13     6     7    1
    14     7     8    1
    15     6     9    1
    16     9    10    1
    17    10    11   ar
    18    11    12   ar
    19    12    32    1
    20    32    33    1
    21    32    34    1
    22    32    35    1
    23    12    13   ar
    24    13    14   ar
    25    14    15    1
    26    15    16    2
    27    15    17   am
    28    23    24   ar
    29    24    25   ar
    30    25    26   ar
    31    26    27   ar
    32    27    28   ar
    33    28    29    1
    34    28    19   ar
    35    26    21   ar
    36     8     3    1
    37    14    10   ar
    38    17     6    1
    39    17    18    1
@<TRIPOS>MOLECULE
*****
 35 39 0 0 0
SMALL
GASTEIGER

@<TRIPOS>ATOM
      1 C         -26.5139   -5.5092  -13.3449 C.2     1  UNL1        0.2491
      2 O         -26.9247   -4.8177  -12.3734 O.2     1  UNL1       -0.2699
      3 N         -25.9531   -6.8111  -13.0963 N.am    1  UNL1       -0.2760
      4 C         -26.6064   -7.7014  -12.1272 C.3     1  UNL1        0.0954
      5 C         -25.6860   -8.8606  -11.7182 C.3     1  UNL1        0.0399
      6 C         -25.0913   -9.6287  -12.9356 C.3     1  UNL1        0.0645
      7 C         -24.7048   -8.6602  -14.1041 C.3     1  UNL1        0.0399
      8 C         -24.6604   -7.1905  -13.6800 C.3     1  UNL1        0.0954
      9 C         -23.8119  -10.3933  -12.4420 C.3     1  UNL1        0.0477
     10 C         -23.4269  -11.4723  -13.4079 C.ar    1  UNL1        0.0220
     11 C         -22.2450  -12.1568  -13.5701 C.ar    1  UNL1        0.0923
     12 N         -22.4653  -13.1625  -14.4541 N.ar    1  UNL1       -0.2534
     13 N         -23.7433  -13.1607  -14.8236 N.ar    1  UNL1       -0.1651
     14 C         -24.3271  -12.1314  -14.1863 C.ar    1  UNL1        0.1515
     15 C         -25.7284  -11.7433  -14.2036 C.2     1  UNL1        0.2650
     16 O         -26.5852  -12.4068  -14.8449 O.2     1  UNL1       -0.2684
     17 N         -26.1068  -10.5869  -13.4403 N.am    1  UNL1       -0.3023
     18 H         -27.1200  -10.3330  -13.4045 H       1  UNL1        0.1497
     19 C         -29.1099   -2.4686  -18.0042 C.ar    1  UNL1        0.2303
     20 N         -28.9637   -2.9850  -16.7514 N.ar    1  UNL1       -0.2113
     21 C         -27.8681   -3.7055  -16.3920 C.ar    1  UNL1        0.0846
     22 C         -27.7597   -4.2171  -15.0949 C.ar    1  UNL1        0.0237
     23 C         -26.6343   -4.9711  -14.7193 C.ar    1  UNL1        0.0551
     24 C         -25.6053   -5.1816  -15.6545 C.ar    1  UNL1        0.0046
     25 C         -25.7083   -4.6712  -16.9522 C.ar    1  UNL1        0.0017
     26 C         -26.8389   -3.9343  -17.3287 C.ar    1  UNL1        0.0183
     27 C         -26.9705   -3.4117  -18.6209 C.ar    1  UNL1        0.0120
     28 C         -28.1088   -2.6764  -18.9632 C.ar    1  UNL1        0.0832
     29 I         -28.2929   -1.8943  -20.9182 I       1  UNL1       -0.0377
     30 C         -31.5179   -1.9574  -17.7325 C.3     1  UNL1        0.2542
     31 O         -30.2512   -1.7335  -18.3400 O.3     1  UNL1       -0.4558
     32 C         -21.4736  -14.1671  -14.8876 C.3     1  UNL1        0.0867
     33 C         -20.1981  -14.0393  -14.0321 C.3     1  UNL1        0.0244
     34 C         -22.0707  -15.5766  -14.7233 C.3     1  UNL1        0.0244
     35 C         -21.0965  -13.9532  -16.3695 C.3     1  UNL1        0.0244
@<TRIPOS>BOND
     1    30    31    1
     2    31    19    1
     3    19    20   ar
     4    20    21   ar
     5    21    22   ar
     6    22    23   ar
     7    23     1    1
     8     1     2    2
     9     1     3   am
    10     3     4    1
    11     4     5    1
    12     5     6    1
    13     6     7    1
    14     7     8    1
    15     6     9    1
    16     9    10    1
    17    10    11   ar
    18    11    12   ar
    19    12    32    1
    20    32    33    1
    21    32    34    1
    22    32    35    1
    23    12    13   ar
    24    13    14   ar
    25    14    15    1
    26    15    16    2
    27    15    17   am
    28    23    24   ar
    29    24    25   ar
    30    25    26   ar
    31    26    27   ar
    32    27    28   ar
    33    28    29    1
    34    28    19   ar
    35    26    21   ar
    36     8     3    1
    37    14    10   ar
    38    17     6    1
    39    17    18    1
@<TRIPOS>MOLECULE
*****
 35 39 0 0 0
SMALL
GASTEIGER

@<TRIPOS>ATOM
      1 C         -24.0162  -10.0758   -8.7548 C.2     1  UNL1        0.2491
      2 O         -24.4454  -11.1212   -8.1946 O.2     1  UNL1       -0.2699
      3 N         -24.8128   -9.4440   -9.7733 N.am    1  UNL1       -0.2760
      4 C         -26.2618   -9.3091   -9.5711 C.3     1  UNL1        0.0954
      5 C         -26.9838   -8.9671  -10.8826 C.3     1  UNL1        0.0399
      6 C         -26.3629   -7.7452  -11.6223 C.3     1  UNL1        0.0645
      7 C         -24.7993   -7.7422  -11.5330 C.3     1  UNL1        0.0399
      8 C         -24.2190   -9.0788  -11.0654 C.3     1  UNL1        0.0954
      9 C         -26.8031   -7.8213  -13.1274 C.3     1  UNL1        0.0477
     10 C         -26.6182   -6.4985  -13.8070 C.ar    1  UNL1        0.0220
     11 C         -26.5533   -6.1724  -15.1416 C.ar    1  UNL1        0.0923
     12 N         -26.5670   -4.8190  -15.2397 N.ar    1  UNL1       -0.2534
     13 N         -26.6760   -4.2842  -14.0264 N.ar    1  UNL1       -0.1651
     14 C         -26.7067   -5.3075  -13.1557 C.ar    1  UNL1        0.1515
     15 C         -26.8822   -5.2538  -11.7132 C.2     1  UNL1        0.2650
     16 O         -27.0621   -4.1608  -11.1143 O.2     1  UNL1       -0.2684
     17 N         -26.8685   -6.4980  -10.9955 N.am    1  UNL1       -0.3023
     18 H         -27.0472   -6.4723   -9.9662 H       1  UNL1        0.1497
     19 C         -19.6894   -8.1606   -4.8427 C.ar    1  UNL1        0.2303
     20 N         -20.8810   -8.6684   -5.2667 N.ar    1  UNL1       -0.2113
     21 C         -21.1675   -8.8296   -6.5859 C.ar    1  UNL1        0.0846
     22 C         -22.4037   -9.3545   -6.9761 C.ar    1  UNL1        0.0237
     23 C         -22.7103   -9.5149   -8.3386 C.ar    1  UNL1        0.0551
     24 C         -21.7491   -9.1676   -9.3045 C.ar    1  UNL1        0.0046
     25 C         -20.5111   -8.6436   -8.9196 C.ar    1  UNL1        0.0017
     26 C         -20.2148   -8.4692   -7.5613 C.ar    1  UNL1        0.0183
     27 C         -18.9844   -7.9460   -7.1457 C.ar    1  UNL1        0.0120
     28 C         -18.7178   -7.7894   -5.7826 C.ar    1  UNL1        0.0832
     29 I         -16.8558   -6.9979   -5.1711 I       1  UNL1       -0.0377
     30 C         -20.4282   -8.1755   -2.4789 C.3     1  UNL1        0.2542
     31 O         -19.4290   -8.0069   -3.4773 O.3     1  UNL1       -0.4558
     32 C         -26.5500   -4.0416  -16.4950 C.3     1  UNL1        0.0867
     33 C         -25.9094   -2.6628  -16.2424 C.3     1  UNL1        0.0244
     34 C         -25.7379   -4.8056  -17.5566 C.3     1  UNL1        0.0244
     35 C         -27.9859   -3.8288  -17.0212 C.3     1  UNL1        0.0244
@<TRIPOS>BOND
     1    30    31    1
     2    31    19    1
     3    19    20   ar
     4    20    21   ar
     5    21    22   ar
     6    22    23   ar
     7    23     1    1
     8     1     2    2
     9     1     3   am
    10     3     4    1
    11     4     5    1
    12     5     6    1
    13     6     7    1
    14     7     8    1
    15     6     9    1
    16     9    10    1
    17    10    11   ar
    18    11    12   ar
    19    12    32    1
    20    32    33    1
    21    32    34    1
    22    32    35    1
    23    12    13   ar
    24    13    14   ar
    25    14    15    1
    26    15    16    2
    27    15    17   am
    28    23    24   ar
    29    24    25   ar
    30    25    26   ar
    31    26    27   ar
    32    27    28   ar
    33    28    29    1
    34    28    19   ar
    35    26    21   ar
    36     8     3    1
    37    14    10   ar
    38    17     6    1
    39    17    18    1
@<TRIPOS>MOLECULE
*****
 35 39 0 0 0
SMALL
GASTEIGER

@<TRIPOS>ATOM
      1 C         -21.7406   -7.1468   -9.2310 C.2     1  UNL1        0.2491
      2 O         -22.2800   -6.1984   -8.5982 O.2     1  UNL1       -0.2699
      3 N         -22.1820   -7.4431  -10.5683 N.am    1  UNL1       -0.2760
      4 C         -22.4357   -6.3378  -11.5023 C.3     1  UNL1        0.0954
      5 C         -23.2408   -6.8061  -12.7233 C.3     1  UNL1        0.0399
      6 C         -22.6238   -8.0543  -13.4211 C.3     1  UNL1        0.0645
      7 C         -22.0536   -9.0800  -12.3841 C.3     1  UNL1        0.0399
      8 C         -22.5270   -8.8174  -10.9528 C.3     1  UNL1        0.0954
      9 C         -23.7546   -8.7378  -14.2690 C.3     1  UNL1        0.0477
     10 C         -23.1714   -9.6698  -15.2873 C.ar    1  UNL1        0.0220
     11 C         -23.7441  -10.6952  -16.0028 C.ar    1  UNL1        0.0923
     12 N         -22.8440  -11.1076  -16.9309 N.ar    1  UNL1       -0.2534
     13 N         -21.7467  -10.3594  -16.8524 N.ar    1  UNL1       -0.1651
     14 C         -21.9474   -9.4850  -15.8516 C.ar    1  UNL1        0.1515
     15 C         -21.0732   -8.4104  -15.4096 C.2     1  UNL1        0.2650
     16 O         -19.9816   -8.1718  -15.9902 O.2     1  UNL1       -0.2684
     17 N         -21.5117   -7.6115  -14.2994 N.am    1  UNL1       -0.3023
     18 H         -20.9144   -6.8042  -14.0101 H       1  UNL1        0.1497
     19 C         -17.8369   -8.7566   -4.7741 C.ar    1  UNL1        0.2303
     20 N         -18.8287   -8.0647   -5.4026 N.ar    1  UNL1       -0.2113
     21 C         -19.2245   -8.3623   -6.6689 C.ar    1  UNL1        0.0846
     22 C         -20.2468   -7.6255   -7.2755 C.ar    1  UNL1        0.0237
     23 C         -20.6545   -7.9214   -8.5879 C.ar    1  UNL1        0.0551
     24 C         -20.0417   -8.9851   -9.2741 C.ar    1  UNL1        0.0046
     25 C         -19.0201   -9.7256   -8.6716 C.ar    1  UNL1        0.0017
     26 C         -18.6044   -9.4175   -7.3695 C.ar    1  UNL1        0.0183
     27 C         -17.5835  -10.1405   -6.7408 C.ar    1  UNL1        0.0120
     28 C         -17.1956   -9.8112   -5.4389 C.ar    1  UNL1        0.0832
     29 I         -15.6526  -10.9118   -4.5034 I       1  UNL1       -0.0377
     30 C         -18.3583   -8.4435   -2.3733 C.3     1  UNL1        0.2542
     31 O         -17.4540   -8.4222   -3.4713 O.3     1  UNL1       -0.4558
     32 C         -23.0614  -12.1655  -17.9379 C.3     1  UNL1        0.0867
     33 C         -21.7423  -12.9222  -18.1881 C.3     1  UNL1        0.0244
     34 C         -24.1332  -13.1446  -17.4253 C.3     1  UNL1        0.0244
     35 C         -23.5396  -11.5543  -19.2727 C.3     1  UNL1        0.0244
@<TRIPOS>BOND
     1    30    31    1
     2    31    19    1
     3    19    20   ar
     4    20    21   ar
     5    21    22   ar
     6    22    23   ar
     7    23     1    1
     8     1     2    2
     9     1     3   am
    10     3     4    1
    11     4     5    1
    12     5     6    1
    13     6     7    1
    14     7     8    1
    15     6     9    1
    16     9    10    1
    17    10    11   ar
    18    11    12   ar
    19    12    32    1
    20    32    33    1
    21    32    34    1
    22    32    35    1
    23    12    13   ar
    24    13    14   ar
    25    14    15    1
    26    15    16    2
    27    15    17   am
    28    23    24   ar
    29    24    25   ar
    30    25    26   ar
    31    26    27   ar
    32    27    28   ar
    33    28    29    1
    34    28    19   ar
    35    26    21   ar
    36     8     3    1
    37    14    10   ar
    38    17     6    1
    39    17    18    1
@<TRIPOS>MOLECULE
*****
 35 39 0 0 0
SMALL
GASTEIGER

@<TRIPOS>ATOM
      1 C         -20.9250   -7.8251   -8.5692 C.2     1  UNL1        0.2491
      2 O         -21.2235   -6.7028   -8.0770 O.2     1  UNL1       -0.2699
      3 N         -21.6511   -8.3086   -9.7137 N.am    1  UNL1       -0.2760
      4 C         -21.9637   -7.3817  -10.8100 C.3     1  UNL1        0.0954
      5 C         -23.0397   -7.9558  -11.7431 C.3     1  UNL1        0.0399
      6 C         -22.7108   -9.3929  -12.2453 C.3     1  UNL1        0.0645
      7 C         -22.0608  -10.2690  -11.1216 C.3     1  UNL1        0.0399
      8 C         -22.2112   -9.6657   -9.7233 C.3     1  UNL1        0.0954
      9 C         -24.0537  -10.0553  -12.7172 C.3     1  UNL1        0.0477
     10 C         -23.7869  -11.2433  -13.5909 C.ar    1  UNL1        0.0220
     11 C         -24.5966  -12.2933  -13.9560 C.ar    1  UNL1        0.0923
     12 N         -23.9473  -13.0063  -14.9107 N.ar    1  UNL1       -0.2534
     13 N         -22.7821  -12.4264  -15.1863 N.ar    1  UNL1       -0.1651
     14 C         -22.6858  -11.3538  -14.3821 C.ar    1  UNL1        0.1515
     15 C         -21.6310  -10.3537  -14.3420 C.2     1  UNL1        0.2650
     16 O         -20.6563  -10.3957  -15.1382 O.2     1  UNL1       -0.2684
     17 N         -21.7530   -9.2980  -13.3756 N.am    1  UNL1       -0.3023
     18 H         -21.0269   -8.5463  -13.3764 H       1  UNL1        0.1497
     19 C         -16.2666  -11.8220   -8.4329 C.ar    1  UNL1        0.2303
     20 N         -17.2913  -11.0855   -8.9479 N.ar    1  UNL1       -0.2113
     21 C         -18.0180  -10.2278   -8.1833 C.ar    1  UNL1        0.0846
     22 C         -19.0614   -9.4917   -8.7537 C.ar    1  UNL1        0.0237
     23 C         -19.8231   -8.6102   -7.9669 C.ar    1  UNL1        0.0551
     24 C         -19.5061   -8.4559   -6.6056 C.ar    1  UNL1        0.0046
     25 C         -18.4629   -9.1886   -6.0308 C.ar    1  UNL1        0.0017
     26 C         -17.7163  -10.0789   -6.8137 C.ar    1  UNL1        0.0183
     27 C         -16.6670  -10.8266   -6.2659 C.ar    1  UNL1        0.0120
     28 C         -15.9380  -11.7024   -7.0754 C.ar    1  UNL1        0.0832
     29 I         -14.3570  -12.8246   -6.2336 I       1  UNL1       -0.0377
     30 C         -14.2925  -12.3461   -9.8336 C.3     1  UNL1        0.2542
     31 O         -15.5411  -12.6962   -9.2484 O.3     1  UNL1       -0.4558
     32 C         -24.4719  -14.1967  -15.6094 C.3     1  UNL1        0.0867
     33 C         -25.8691  -14.5462  -15.0607 C.3     1  UNL1        0.0244
     34 C         -24.5642  -13.9029  -17.1178 C.3     1  UNL1        0.0244
     35 C         -23.5399  -15.4084  -15.3919 C.3     1  UNL1        0.0244
@<TRIPOS>BOND
     1    30    31    1
     2    31    19    1
     3    19    20   ar
     4    20    21   ar
     5    21    22   ar
     6    22    23   ar
     7    23     1    1
     8     1     2    2
     9     1     3   am
    10     3     4    1
    11     4     5    1
    12     5     6    1
    13     6     7    1
    14     7     8    1
    15     6     9    1
    16     9    10    1
    17    10    11   ar
    18    11    12   ar
    19    12    32    1
    20    32    33    1
    21    32    34    1
    22    32    35    1
    23    12    13   ar
    24    13    14   ar
    25    14    15    1
    26    15    16    2
    27    15    17   am
    28    23    24   ar
    29    24    25   ar
    30    25    26   ar
    31    26    27   ar
    32    27    28   ar
    33    28    29    1
    34    28    19   ar
    35    26    21   ar
    36     8     3    1
    37    14    10   ar
    38    17     6    1
    39    17    18    1
@<TRIPOS>MOLECULE
*****
 35 39 0 0 0
SMALL
GASTEIGER

@<TRIPOS>ATOM
      1 C         -24.8099   -5.6543  -12.6090 C.2     1  UNL1        0.2491
      2 O         -24.2999   -4.7758  -11.8614 O.2     1  UNL1       -0.2699
      3 N         -24.2169   -6.9644  -12.6635 N.am    1  UNL1       -0.2760
      4 C         -23.7752   -7.6051  -11.4173 C.3     1  UNL1        0.0954
      5 C         -22.8481   -8.7974  -11.6952 C.3     1  UNL1        0.0399
      6 C         -23.4450   -9.8120  -12.7150 C.3     1  UNL1        0.0645
      7 C         -24.2084   -9.0907  -13.8767 C.3     1  UNL1        0.0399
      8 C         -23.9106   -7.5917  -13.9551 C.3     1  UNL1        0.0954
      9 C         -22.2577  -10.6510  -13.3078 C.3     1  UNL1        0.0477
     10 C         -22.7597  -11.9051  -13.9567 C.ar    1  UNL1        0.0220
     11 C         -22.1632  -12.7528  -14.8607 C.ar    1  UNL1        0.0923
     12 N         -22.9583  -13.8445  -14.9936 N.ar    1  UNL1       -0.2534
     13 N         -24.0078  -13.7342  -14.1834 N.ar    1  UNL1       -0.1651
     14 C         -23.8856  -12.5533  -13.5534 C.ar    1  UNL1        0.1515
     15 C         -24.7416  -11.9950  -12.5190 C.2     1  UNL1        0.2650
     16 O         -25.7311  -12.6324  -12.0714 O.2     1  UNL1       -0.2684
     17 N         -24.4032  -10.6969  -12.0057 N.am    1  UNL1       -0.3023
     18 H         -24.9818  -10.3121  -11.2251 H       1  UNL1        0.1497
     19 C         -28.0463   -3.0738  -17.1435 C.ar    1  UNL1        0.2303
     20 N         -26.9609   -3.4001  -16.3865 N.ar    1  UNL1       -0.2113
     21 C         -27.0603   -4.1966  -15.2892 C.ar    1  UNL1        0.0846
     22 C         -25.9198   -4.5056  -14.5412 C.ar    1  UNL1        0.0237
     23 C         -26.0167   -5.3206  -13.3999 C.ar    1  UNL1        0.0551
     24 C         -27.2695   -5.8447  -13.0346 C.ar    1  UNL1        0.0046
     25 C         -28.4127   -5.5398  -13.7799 C.ar    1  UNL1        0.0017
     26 C         -28.3156   -4.7135  -14.9072 C.ar    1  UNL1        0.0183
     27 C         -29.4427   -4.3900  -15.6722 C.ar    1  UNL1        0.0120
     28 C         -29.3112   -3.5671  -16.7944 C.ar    1  UNL1        0.0832
     29 I         -31.0222   -3.0875  -17.9389 I       1  UNL1       -0.0377
     30 C         -27.5987   -2.7562  -19.5585 C.3     1  UNL1        0.2542
     31 O         -27.9076   -2.2503  -18.2652 O.3     1  UNL1       -0.4558
     32 C         -22.6773  -15.0227  -15.8382 C.3     1  UNL1        0.0867
     33 C         -22.2083  -16.1946  -14.9540 C.3     1  UNL1        0.0244
     34 C         -23.9562  -15.4228  -16.5964 C.3     1  UNL1        0.0244
     35 C         -21.5674  -14.7037  -16.8630 C.3     1  UNL1        0.0244
@<TRIPOS>BOND
     1    30    31    1
     2    31    19    1
     3    19    20   ar
     4    20    21   ar
     5    21    22   ar
     6    22    23   ar
     7    23     1    1
     8     1     2    2
     9     1     3   am
    10     3     4    1
    11     4     5    1
    12     5     6    1
    13     6     7    1
    14     7     8    1
    15     6     9    1
    16     9    10    1
    17    10    11   ar
    18    11    12   ar
    19    12    32    1
    20    32    33    1
    21    32    34    1
    22    32    35    1
    23    12    13   ar
    24    13    14   ar
    25    14    15    1
    26    15    16    2
    27    15    17   am
    28    23    24   ar
    29    24    25   ar
    30    25    26   ar
    31    26    27   ar
    32    27    28   ar
    33    28    29    1
    34    28    19   ar
    35    26    21   ar
    36     8     3    1
    37    14    10   ar
    38    17     6    1
    39    17    18    1
@<TRIPOS>MOLECULE
*****
 35 39 0 0 0
SMALL
GASTEIGER

@<TRIPOS>ATOM
      1 C         -24.6612   -8.8990  -11.7637 C.2     1  UNL1        0.2491
      2 O         -24.5784   -9.1142  -10.5237 O.2     1  UNL1       -0.2699
      3 N         -25.4831   -7.8170  -12.2380 N.am    1  UNL1       -0.2760
      4 C         -25.4457   -6.5262  -11.5374 C.3     1  UNL1        0.0954
      5 C         -26.6320   -5.6356  -11.9345 C.3     1  UNL1        0.0399
      6 C         -26.7910   -5.4794  -13.4760 C.3     1  UNL1        0.0645
      7 C         -26.4940   -6.8186  -14.2316 C.3     1  UNL1        0.0399
      8 C         -26.4635   -8.0386  -13.3082 C.3     1  UNL1        0.0954
      9 C         -28.2678   -5.0306  -13.7629 C.3     1  UNL1        0.0477
     10 C         -28.3945   -4.4548  -15.1407 C.ar    1  UNL1        0.0220
     11 C         -29.5004   -4.2421  -15.9301 C.ar    1  UNL1        0.0923
     12 N         -29.1064   -3.5245  -17.0124 N.ar    1  UNL1       -0.2534
     13 N         -27.8090   -3.2462  -16.9158 N.ar    1  UNL1       -0.1651
     14 C         -27.3772   -3.8133  -15.7763 C.ar    1  UNL1        0.1515
     15 C         -26.0502   -3.7436  -15.1858 C.2     1  UNL1        0.2650
     16 O         -25.1291   -3.0708  -15.7191 O.2     1  UNL1       -0.2684
     17 N         -25.8331   -4.4512  -13.9548 N.am    1  UNL1       -0.3023
     18 H         -24.8980   -4.3623  -13.4965 H       1  UNL1        0.1497
     19 C         -23.4731  -13.8600  -15.1799 C.ar    1  UNL1        0.2303
     20 N         -24.1434  -13.0446  -14.3177 N.ar    1  UNL1       -0.2113
     21 C         -23.6671  -11.8209  -13.9651 C.ar    1  UNL1        0.0846
     22 C         -24.3883  -11.0171  -13.0765 C.ar    1  UNL1        0.0237
     23 C         -23.8971   -9.7549  -12.7000 C.ar    1  UNL1        0.0551
     24 C         -22.6858   -9.2976  -13.2490 C.ar    1  UNL1        0.0046
     25 C         -21.9616  -10.0969  -14.1389 C.ar    1  UNL1        0.0017
     26 C         -22.4454  -11.3615  -14.4992 C.ar    1  UNL1        0.0183
     27 C         -21.7420  -12.1845  -15.3869 C.ar    1  UNL1        0.0120
     28 C         -22.2545  -13.4388  -15.7302 C.ar    1  UNL1        0.0832
     29 I         -21.1806  -14.6697  -17.0715 I       1  UNL1       -0.0377
     30 C         -25.1282  -15.2751  -16.3597 C.3     1  UNL1        0.2542
     31 O         -23.9917  -15.1136  -15.5194 O.3     1  UNL1       -0.4558
     32 C         -29.9834   -3.0439  -18.0988 C.3     1  UNL1        0.0867
     33 C         -29.1579   -2.2181  -19.1048 C.3     1  UNL1        0.0244
     34 C         -30.6175   -4.2511  -18.8137 C.3     1  UNL1        0.0244
     35 C         -31.1082   -2.1501  -17.5332 C.3     1  UNL1        0.0244
@<TRIPOS>BOND
     1    30    31    1
     2    31    19    1
     3    19    20   ar
     4    20    21   ar
     5    21    22   ar
     6    22    23   ar
     7    23     1    1
     8     1     2    2
     9     1     3   am
    10     3     4    1
    11     4     5    1
    12     5     6    1
    13     6     7    1
    14     7     8    1
    15     6     9    1
    16     9    10    1
    17    10    11   ar
    18    11    12   ar
    19    12    32    1
    20    32    33    1
    21    32    34    1
    22    32    35    1
    23    12    13   ar
    24    13    14   ar
    25    14    15    1
    26    15    16    2
    27    15    17   am
    28    23    24   ar
    29    24    25   ar
    30    25    26   ar
    31    26    27   ar
    32    27    28   ar
    33    28    29    1
    34    28    19   ar
    35    26    21   ar
    36     8     3    1
    37    14    10   ar
    38    17     6    1
    39    17    18    1
@<TRIPOS>MOLECULE
*****
 35 39 0 0 0
SMALL
GASTEIGER

@<TRIPOS>ATOM
      1 C         -22.5872   -8.1672  -13.1802 C.2     1  UNL1        0.2491
      2 O         -23.0029   -7.2535  -13.9439 O.2     1  UNL1       -0.2699
      3 N         -21.9949   -7.8149  -11.9169 N.am    1  UNL1       -0.2760
      4 C         -22.6177   -6.7648  -11.0995 C.3     1  UNL1        0.0954
      5 C         -21.6673   -6.2695   -9.9997 C.3     1  UNL1        0.0399
      6 C         -21.0688   -7.4240   -9.1425 C.3     1  UNL1        0.0645
      7 C         -20.7167   -8.6761  -10.0149 C.3     1  UNL1        0.0399
      8 C         -20.7005   -8.3803  -11.5162 C.3     1  UNL1        0.0954
      9 C         -19.7675   -6.8828   -8.4507 C.3     1  UNL1        0.0477
     10 C         -19.3689   -7.7574   -7.3009 C.ar    1  UNL1        0.0220
     11 C         -18.1739   -7.8752   -6.6304 C.ar    1  UNL1        0.0923
     12 N         -18.3812   -8.6668   -5.5478 N.ar    1  UNL1       -0.2534
     13 N         -19.6629   -9.0188   -5.4906 N.ar    1  UNL1       -0.1651
     14 C         -20.2625   -8.4648   -6.5583 C.ar    1  UNL1        0.1515
     15 C         -21.6722   -8.4976   -6.9136 C.2     1  UNL1        0.2650
     16 O         -22.5209   -9.0687   -6.1792 O.2     1  UNL1       -0.2684
     17 N         -22.0681   -7.8316   -8.1231 N.am    1  UNL1       -0.3023
     18 H         -23.0862   -7.8049   -8.3574 H       1  UNL1        0.1497
     19 C         -21.7306  -13.1348  -16.6851 C.ar    1  UNL1        0.2303
     20 N         -21.6240  -11.8404  -16.2717 N.ar    1  UNL1       -0.2113
     21 C         -22.2345  -11.3915  -15.1428 C.ar    1  UNL1        0.0846
     22 C         -22.0981  -10.0544  -14.7561 C.ar    1  UNL1        0.0237
     23 C         -22.7344   -9.5811  -13.5954 C.ar    1  UNL1        0.0551
     24 C         -23.4871  -10.4741  -12.8121 C.ar    1  UNL1        0.0046
     25 C         -23.6255  -11.8122  -13.1937 C.ar    1  UNL1        0.0017
     26 C         -23.0039  -12.2770  -14.3601 C.ar    1  UNL1        0.0183
     27 C         -23.1253  -13.6109  -14.7680 C.ar    1  UNL1        0.0120
     28 C         -22.4883  -14.0443  -15.9341 C.ar    1  UNL1        0.0832
     29 I         -22.6814  -16.0610  -16.5369 I       1  UNL1       -0.0377
     30 C         -21.3078  -12.9498  -19.1183 C.3     1  UNL1        0.2542
     31 O         -21.0904  -13.5619  -17.8526 O.3     1  UNL1       -0.4558
     32 C         -17.3721   -9.0250   -4.5310 C.3     1  UNL1        0.0867
     33 C         -16.2098   -8.0139   -4.5753 C.3     1  UNL1        0.0244
     34 C         -18.0246   -9.0062   -3.1367 C.3     1  UNL1        0.0244
     35 C         -16.8077  -10.4367   -4.8002 C.3     1  UNL1        0.0244
@<TRIPOS>BOND
     1    30    31    1
     2    31    19    1
     3    19    20   ar
     4    20    21   ar
     5    21    22   ar
     6    22    23   ar
     7    23     1    1
     8     1     2    2
     9     1     3   am
    10     3     4    1
    11     4     5    1
    12     5     6    1
    13     6     7    1
    14     7     8    1
    15     6     9    1
    16     9    10    1
    17    10    11   ar
    18    11    12   ar
    19    12    32    1
    20    32    33    1
    21    32    34    1
    22    32    35    1
    23    12    13   ar
    24    13    14   ar
    25    14    15    1
    26    15    16    2
    27    15    17   am
    28    23    24   ar
    29    24    25   ar
    30    25    26   ar
    31    26    27   ar
    32    27    28   ar
    33    28    29    1
    34    28    19   ar
    35    26    21   ar
    36     8     3    1
    37    14    10   ar
    38    17     6    1
    39    17    18    1
