@<TRIPOS>MOLECULE
*****
 38 42 0 0 0
SMALL
GASTEIGER

@<TRIPOS>ATOM
      1 C          49.8462   11.4452  -21.8491 C.2     1  UNL1        0.2506
      2 O          50.7226   10.6264  -22.2399 O.2     1  UNL1       -0.2699
      3 N          49.0792   12.1916  -22.8148 N.am    1  UNL1       -0.2680
      4 C          48.7280   13.5906  -22.5469 C.3     1  UNL1        0.1412
      5 C          47.2534   13.6989  -22.1638 C.3     1  UNL1        0.2268
      6 O          46.4736   12.6894  -22.8013 O.3     1  UNL1       -0.4730
      7 C          46.4775   12.5080  -24.1869 C.ar    1  UNL1        0.1466
      8 C          45.2944   12.7496  -24.8989 C.ar    1  UNL1        0.0913
      9 CL         43.8361   13.2528  -24.0570 Cl      1  UNL1       -0.0791
     10 C          45.2649   12.6107  -26.2877 C.ar    1  UNL1        0.0144
     11 C          46.4123   12.2114  -26.9889 C.ar    1  UNL1        0.0008
     12 C          47.5906   11.9444  -26.2720 C.ar    1  UNL1        0.0005
     13 C          47.6429   12.0905  -24.8750 C.ar    1  UNL1        0.0325
     14 C          48.9167   11.6501  -24.1720 C.3     1  UNL1        0.1236
     15 C          46.3756   12.0590  -28.4655 C.ar    1  UNL1        0.0015
     16 C          46.6332   10.7950  -29.0666 C.ar    1  UNL1        0.0016
     17 C          46.6011   10.6414  -30.4654 C.ar    1  UNL1        0.0206
     18 C          46.3098   11.7632  -31.2339 C.ar    1  UNL1        0.0985
     19 N          46.2290   11.8454  -32.5741 N.ar    1  UNL1       -0.2241
     20 C          45.9235   13.1541  -32.7784 C.ar    1  UNL1        0.1750
     21 N          45.8151   13.8691  -31.6328 N.ar    1  UNL1       -0.3349
     22 C          46.0611   12.9750  -30.6682 C.ar    1  UNL1        0.0757
     23 C          46.0820   13.1722  -29.2904 C.ar    1  UNL1        0.0185
     24 H          45.5908   14.8837  -31.5301 H       1  UNL1        0.1675
     25 C          50.6262   12.0721  -19.5304 C.ar    1  UNL1        0.0503
     26 C          50.3541   12.1525  -18.1499 C.ar    1  UNL1        0.0328
     27 C          49.1088   11.7658  -17.6399 C.ar    1  UNL1        0.1069
     28 C          48.1156   11.3080  -18.5097 C.ar    1  UNL1        0.0186
     29 C          48.3680   11.2212  -19.8780 C.ar    1  UNL1        0.0071
     30 C          49.6121   11.6033  -20.4001 C.ar    1  UNL1        0.0667
     31 S          48.7844   11.8945  -15.9142 S.O2    1  UNL1        0.0105
     32 C          50.3060   11.7083  -15.0135 C.3     1  UNL1        0.1816
     33 O          47.8173   10.8217  -15.4981 O.2     1  UNL1       -0.1686
     34 O          48.1793   13.2352  -15.6052 O.2     1  UNL1       -0.1686
     35 N          51.8960   12.5116  -20.0597 N.pl3   1  UNL1       -0.3325
     36 H          52.6066   11.7960  -20.3327 H       1  UNL1        0.1468
     37 C          52.4811   14.2386  -21.7136 C.3     1  UNL1        0.0229
     38 C          52.2779   13.9139  -20.2370 C.3     1  UNL1        0.0871
@<TRIPOS>BOND
     1    37    38    1
     2    38    35    1
     3    35    25    1
     4    25    26   ar
     5    26    27   ar
     6    27    31    1
     7    31    32    1
     8    31    33    2
     9    31    34    2
    10    27    28   ar
    11    28    29   ar
    12    29    30   ar
    13    30     1    1
    14     1     2    2
    15     1     3   am
    16     3     4    1
    17     4     5    1
    18     5     6    1
    19     6     7    1
    20     7     8   ar
    21     8     9    1
    22     8    10   ar
    23    10    11   ar
    24    11    15    1
    25    15    16   ar
    26    16    17   ar
    27    17    18   ar
    28    18    19   ar
    29    19    20   ar
    30    20    21   ar
    31    21    22   ar
    32    22    23   ar
    33    11    12   ar
    34    12    13   ar
    35    13    14    1
    36    30    25   ar
    37    14     3    1
    38    13     7   ar
    39    23    15   ar
    40    22    18   ar
    41    35    36    1
    42    21    24    1
@<TRIPOS>MOLECULE
*****
 38 42 0 0 0
SMALL
GASTEIGER

@<TRIPOS>ATOM
      1 C          48.4591   10.6410  -20.8477 C.2     1  UNL1        0.2506
      2 O          48.2794    9.4006  -20.9907 O.2     1  UNL1       -0.2699
      3 N          48.5685   11.4893  -22.0081 N.am    1  UNL1       -0.2680
      4 C          49.5176   12.6080  -22.0099 C.3     1  UNL1        0.1412
      5 C          48.7726   13.9304  -21.8390 C.3     1  UNL1        0.2268
      6 O          47.4647   13.8688  -22.4040 O.3     1  UNL1       -0.4730
      7 C          47.2428   13.4949  -23.7319 C.ar    1  UNL1        0.1466
      8 C          46.7146   14.4446  -24.6175 C.ar    1  UNL1        0.0913
      9 CL         46.3255   16.0642  -24.0571 Cl      1  UNL1       -0.0791
     10 C          46.5079   14.1208  -25.9596 C.ar    1  UNL1        0.0144
     11 C          46.8091   12.8370  -26.4380 C.ar    1  UNL1        0.0008
     12 C          47.3142   11.8779  -25.5443 C.ar    1  UNL1        0.0005
     13 C          47.5404   12.1889  -24.1924 C.ar    1  UNL1        0.0325
     14 C          47.9591   11.0531  -23.2729 C.3     1  UNL1        0.1236
     15 C          46.5824   12.4944  -27.8649 C.ar    1  UNL1        0.0015
     16 C          46.6939   11.1471  -28.3096 C.ar    1  UNL1        0.0016
     17 C          46.4812   10.8132  -29.6604 C.ar    1  UNL1        0.0206
     18 C          46.1597   11.8419  -30.5391 C.ar    1  UNL1        0.0985
     19 N          45.9190   11.7524  -31.8595 N.ar    1  UNL1       -0.2241
     20 C          45.6631   13.0412  -32.2079 C.ar    1  UNL1        0.1750
     21 N          45.7362   13.9068  -31.1682 N.ar    1  UNL1       -0.3349
     22 C          46.0497   13.1323  -30.1231 C.ar    1  UNL1        0.0757
     23 C          46.2511   13.5073  -28.7977 C.ar    1  UNL1        0.0185
     24 H          45.5825   14.9395  -31.1828 H       1  UNL1        0.1675
     25 C          47.5829   12.1387  -19.0129 C.ar    1  UNL1        0.0503
     26 C          47.7380   12.6717  -17.7174 C.ar    1  UNL1        0.0328
     27 C          48.8165   12.2919  -16.9094 C.ar    1  UNL1        0.1069
     28 C          49.7446   11.3615  -17.3845 C.ar    1  UNL1        0.0186
     29 C          49.6068   10.8250  -18.6638 C.ar    1  UNL1        0.0071
     30 C          48.5322   11.1995  -19.4832 C.ar    1  UNL1        0.0667
     31 S          48.9786   12.9550  -15.2865 S.O2    1  UNL1        0.0105
     32 C          50.6894   12.9185  -14.8036 C.3     1  UNL1        0.1816
     33 O          48.1644   12.1398  -14.3213 O.2     1  UNL1       -0.1686
     34 O          48.4801   14.3728  -15.2602 O.2     1  UNL1       -0.1686
     35 N          46.4467   12.4990  -19.8285 N.pl3   1  UNL1       -0.3325
     36 H          46.4798   13.3850  -20.3810 H       1  UNL1        0.1468
     37 C          44.2171   12.1121  -18.8590 C.3     1  UNL1        0.0229
     38 C          45.2199   11.7068  -19.9347 C.3     1  UNL1        0.0871
@<TRIPOS>BOND
     1    37    38    1
     2    38    35    1
     3    35    25    1
     4    25    26   ar
     5    26    27   ar
     6    27    31    1
     7    31    32    1
     8    31    33    2
     9    31    34    2
    10    27    28   ar
    11    28    29   ar
    12    29    30   ar
    13    30     1    1
    14     1     2    2
    15     1     3   am
    16     3     4    1
    17     4     5    1
    18     5     6    1
    19     6     7    1
    20     7     8   ar
    21     8     9    1
    22     8    10   ar
    23    10    11   ar
    24    11    15    1
    25    15    16   ar
    26    16    17   ar
    27    17    18   ar
    28    18    19   ar
    29    19    20   ar
    30    20    21   ar
    31    21    22   ar
    32    22    23   ar
    33    11    12   ar
    34    12    13   ar
    35    13    14    1
    36    30    25   ar
    37    14     3    1
    38    13     7   ar
    39    23    15   ar
    40    22    18   ar
    41    35    36    1
    42    21    24    1
@<TRIPOS>MOLECULE
*****
 38 42 0 0 0
SMALL
GASTEIGER

@<TRIPOS>ATOM
      1 C          50.1233   11.8616  -22.1963 C.2     1  UNL1        0.2506
      2 O          51.1189   11.2305  -22.6453 O.2     1  UNL1       -0.2699
      3 N          49.2035   12.4949  -23.1079 N.am    1  UNL1       -0.2680
      4 C          48.6163   13.7958  -22.7690 C.3     1  UNL1        0.1412
      5 C          47.1596   13.6211  -22.3442 C.3     1  UNL1        0.2268
      6 O          46.5527   12.5134  -23.0064 O.3     1  UNL1       -0.4730
      7 C          46.5436   12.3903  -24.3983 C.ar    1  UNL1        0.1466
      8 C          45.3135   12.4424  -25.0686 C.ar    1  UNL1        0.0913
      9 CL         43.8171   12.6405  -24.1685 Cl      1  UNL1       -0.0791
     10 C          45.2636   12.3553  -26.4611 C.ar    1  UNL1        0.0144
     11 C          46.4404   12.1976  -27.2082 C.ar    1  UNL1        0.0008
     12 C          47.6704   12.1196  -26.5340 C.ar    1  UNL1        0.0005
     13 C          47.7416   12.2175  -25.1337 C.ar    1  UNL1        0.0325
     14 C          49.0962   11.9869  -24.4834 C.3     1  UNL1        0.1236
     15 C          46.3830   12.0994  -28.6887 C.ar    1  UNL1        0.0015
     16 C          46.6385   10.8598  -29.3397 C.ar    1  UNL1        0.0016
     17 C          46.5868   10.7576  -30.7426 C.ar    1  UNL1        0.0206
     18 C          46.2785   11.9052  -31.4649 C.ar    1  UNL1        0.0985
     19 N          46.1778   12.0362  -32.7999 N.ar    1  UNL1       -0.2241
     20 C          45.8624   13.3497  -32.9515 C.ar    1  UNL1        0.1750
     21 N          45.7669   14.0215  -31.7788 N.ar    1  UNL1       -0.3349
     22 C          46.0316   13.0939  -30.8515 C.ar    1  UNL1        0.0757
     23 C          46.0716   13.2405  -29.4677 C.ar    1  UNL1        0.0185
     24 H          45.5388   15.0303  -31.6355 H       1  UNL1        0.1675
     25 C          49.5908   10.7603  -19.9869 C.ar    1  UNL1        0.0503
     26 C          49.3524   10.8903  -18.6039 C.ar    1  UNL1        0.0328
     27 C          49.4192   12.1412  -17.9785 C.ar    1  UNL1        0.1069
     28 C          49.7408   13.2751  -18.7291 C.ar    1  UNL1        0.0186
     29 C          49.9788   13.1647  -20.0983 C.ar    1  UNL1        0.0071
     30 C          49.9124   11.9177  -20.7362 C.ar    1  UNL1        0.0667
     31 S          49.1380   12.2765  -16.2457 S.O2    1  UNL1        0.0105
     32 C          50.6997   12.3771  -15.4017 C.3     1  UNL1        0.1816
     33 O          48.3782   11.0743  -15.7593 O.2     1  UNL1       -0.1686
     34 O          48.3291   13.5090  -15.9527 O.2     1  UNL1       -0.1686
     35 N          49.5636    9.4636  -20.6223 N.pl3   1  UNL1       -0.3325
     36 H          50.3130    8.7720  -20.3954 H       1  UNL1        0.1468
     37 C          47.2014    9.6782  -21.2812 C.3     1  UNL1        0.0229
     38 C          48.5508    9.0374  -21.5899 C.3     1  UNL1        0.0871
@<TRIPOS>BOND
     1    37    38    1
     2    38    35    1
     3    35    25    1
     4    25    26   ar
     5    26    27   ar
     6    27    31    1
     7    31    32    1
     8    31    33    2
     9    31    34    2
    10    27    28   ar
    11    28    29   ar
    12    29    30   ar
    13    30     1    1
    14     1     2    2
    15     1     3   am
    16     3     4    1
    17     4     5    1
    18     5     6    1
    19     6     7    1
    20     7     8   ar
    21     8     9    1
    22     8    10   ar
    23    10    11   ar
    24    11    15    1
    25    15    16   ar
    26    16    17   ar
    27    17    18   ar
    28    18    19   ar
    29    19    20   ar
    30    20    21   ar
    31    21    22   ar
    32    22    23   ar
    33    11    12   ar
    34    12    13   ar
    35    13    14    1
    36    30    25   ar
    37    14     3    1
    38    13     7   ar
    39    23    15   ar
    40    22    18   ar
    41    35    36    1
    42    21    24    1
@<TRIPOS>MOLECULE
*****
 38 42 0 0 0
SMALL
GASTEIGER

@<TRIPOS>ATOM
      1 C          49.0209   10.9391  -20.6880 C.2     1  UNL1        0.2506
      2 O          49.0352    9.6848  -20.8213 O.2     1  UNL1       -0.2699
      3 N          48.9677   11.7848  -21.8542 N.am    1  UNL1       -0.2680
      4 C          49.7287   13.0387  -21.8843 C.3     1  UNL1        0.1412
      5 C          48.7893   14.2289  -21.7003 C.3     1  UNL1        0.2268
      6 O          47.4942   13.9581  -22.2322 O.3     1  UNL1       -0.4730
      7 C          47.3022   13.5433  -23.5527 C.ar    1  UNL1        0.1466
      8 C          46.6101   14.3912  -24.4287 C.ar    1  UNL1        0.0913
      9 CL         45.9847   15.9339  -23.8654 Cl      1  UNL1       -0.0791
     10 C          46.4247   14.0282  -25.7639 C.ar    1  UNL1        0.0144
     11 C          46.9126   12.8039  -26.2444 C.ar    1  UNL1        0.0008
     12 C          47.5835   11.9433  -25.3596 C.ar    1  UNL1        0.0005
     13 C          47.7903   12.2967  -24.0151 C.ar    1  UNL1        0.0325
     14 C          48.4043   11.2482  -23.1017 C.3     1  UNL1        0.1236
     15 C          46.7084   12.4186  -27.6638 C.ar    1  UNL1        0.0015
     16 C          46.8965   11.0704  -28.0792 C.ar    1  UNL1        0.0016
     17 C          46.7057   10.6962  -29.4227 C.ar    1  UNL1        0.0206
     18 C          46.3285   11.6861  -30.3237 C.ar    1  UNL1        0.0985
     19 N          46.0959   11.5548  -31.6420 N.ar    1  UNL1       -0.2241
     20 C          45.7686   12.8194  -32.0182 C.ar    1  UNL1        0.1750
     21 N          45.7907   13.7099  -30.9974 N.ar    1  UNL1       -0.3349
     22 C          46.1452   12.9769  -29.9356 C.ar    1  UNL1        0.0757
     23 C          46.3225   13.3910  -28.6185 C.ar    1  UNL1        0.0185
     24 H          45.5792   14.7317  -31.0344 H       1  UNL1        0.1675
     25 C          50.2514   11.7830  -18.6505 C.ar    1  UNL1        0.0503
     26 C          50.1983   12.2839  -17.3342 C.ar    1  UNL1        0.0328
     27 C          48.9702   12.5015  -16.6980 C.ar    1  UNL1        0.1069
     28 C          47.7798   12.2339  -17.3791 C.ar    1  UNL1        0.0186
     29 C          47.8140   11.7373  -18.6813 C.ar    1  UNL1        0.0071
     30 C          49.0379   11.5131  -19.3280 C.ar    1  UNL1        0.0667
     31 S          48.9278   13.1474  -15.0607 S.O2    1  UNL1        0.0105
     32 C          50.5790   13.1927  -14.4026 C.3     1  UNL1        0.1816
     33 O          48.0629   12.2762  -14.1935 O.2     1  UNL1       -0.1686
     34 O          48.3542   14.5367  -15.0726 O.2     1  UNL1       -0.1686
     35 N          51.5178   11.5997  -19.3203 N.pl3   1  UNL1       -0.3325
     36 H          51.6347   10.7908  -19.9710 H       1  UNL1        0.1468
     37 C          52.4316   13.8399  -19.7750 C.3     1  UNL1        0.0229
     38 C          52.6802   12.4727  -19.1458 C.3     1  UNL1        0.0871
@<TRIPOS>BOND
     1    37    38    1
     2    38    35    1
     3    35    25    1
     4    25    26   ar
     5    26    27   ar
     6    27    31    1
     7    31    32    1
     8    31    33    2
     9    31    34    2
    10    27    28   ar
    11    28    29   ar
    12    29    30   ar
    13    30     1    1
    14     1     2    2
    15     1     3   am
    16     3     4    1
    17     4     5    1
    18     5     6    1
    19     6     7    1
    20     7     8   ar
    21     8     9    1
    22     8    10   ar
    23    10    11   ar
    24    11    15    1
    25    15    16   ar
    26    16    17   ar
    27    17    18   ar
    28    18    19   ar
    29    19    20   ar
    30    20    21   ar
    31    21    22   ar
    32    22    23   ar
    33    11    12   ar
    34    12    13   ar
    35    13    14    1
    36    30    25   ar
    37    14     3    1
    38    13     7   ar
    39    23    15   ar
    40    22    18   ar
    41    35    36    1
    42    21    24    1
@<TRIPOS>MOLECULE
*****
 38 42 0 0 0
SMALL
GASTEIGER

@<TRIPOS>ATOM
      1 C          46.8673   12.1910  -20.5505 C.2     1  UNL1        0.2506
      2 O          45.7875   12.8431  -20.5439 O.2     1  UNL1       -0.2699
      3 N          47.2684   11.4779  -21.7374 N.am    1  UNL1       -0.2680
      4 C          47.9219   10.1698  -21.6196 C.3     1  UNL1        0.1412
      5 C          49.4171   10.3010  -21.9024 C.3     1  UNL1        0.2268
      6 O          49.6819   11.3504  -22.8310 O.3     1  UNL1       -0.4730
      7 C          49.0676   11.4094  -24.0847 C.ar    1  UNL1        0.1466
      8 C          49.8647   11.2742  -25.2299 C.ar    1  UNL1        0.0913
      9 CL         51.6021   11.0532  -25.0838 Cl      1  UNL1       -0.0791
     10 C          49.2858   11.2955  -26.5000 C.ar    1  UNL1        0.0144
     11 C          47.9019   11.4694  -26.6501 C.ar    1  UNL1        0.0008
     12 C          47.1071   11.6307  -25.5031 C.ar    1  UNL1        0.0005
     13 C          47.6702   11.5999  -24.2156 C.ar    1  UNL1        0.0325
     14 C          46.7560   11.9177  -23.0434 C.3     1  UNL1        0.1236
     15 C          47.2904   11.4975  -28.0029 C.ar    1  UNL1        0.0015
     16 C          47.2128   10.3104  -28.7841 C.ar    1  UNL1        0.0016
     17 C          46.6353   10.3278  -30.0676 C.ar    1  UNL1        0.0206
     18 C          46.1460   11.5402  -30.5415 C.ar    1  UNL1        0.0985
     19 N          45.5619   11.7856  -31.7281 N.ar    1  UNL1       -0.2241
     20 C          45.2888   13.1155  -31.6609 C.ar    1  UNL1        0.1750
     21 N          45.6767   13.6888  -30.4962 N.ar    1  UNL1       -0.3349
     22 C          46.2148   12.6797  -29.8017 C.ar    1  UNL1        0.0757
     23 C          46.7768   12.7083  -28.5285 C.ar    1  UNL1        0.0185
     24 H          45.5770   14.6881  -30.2100 H       1  UNL1        0.1675
     25 C          48.9256   12.9158  -19.2795 C.ar    1  UNL1        0.0503
     26 C          49.7087   12.8351  -18.1105 C.ar    1  UNL1        0.0328
     27 C          49.3029   12.0456  -17.0277 C.ar    1  UNL1        0.1069
     28 C          48.0993   11.3391  -17.0977 C.ar    1  UNL1        0.0186
     29 C          47.3128   11.4070  -18.2467 C.ar    1  UNL1        0.0071
     30 C          47.7100   12.1924  -19.3384 C.ar    1  UNL1        0.0667
     31 S          50.2871   11.9762  -15.5695 S.O2    1  UNL1        0.0105
     32 C          49.8543   13.3307  -14.5020 C.3     1  UNL1        0.1816
     33 O          51.7423   12.0666  -15.9344 O.2     1  UNL1       -0.1686
     34 O          50.0497   10.6767  -14.8525 O.2     1  UNL1       -0.1686
     35 N          49.3242   13.7641  -20.3783 N.pl3   1  UNL1       -0.3325
     36 H          48.5871   14.2494  -20.9374 H       1  UNL1        0.1468
     37 C          50.7865   14.3969  -22.2548 C.3     1  UNL1        0.0229
     38 C          50.7118   13.9932  -20.7856 C.3     1  UNL1        0.0871
@<TRIPOS>BOND
     1    37    38    1
     2    38    35    1
     3    35    25    1
     4    25    26   ar
     5    26    27   ar
     6    27    31    1
     7    31    32    1
     8    31    33    2
     9    31    34    2
    10    27    28   ar
    11    28    29   ar
    12    29    30   ar
    13    30     1    1
    14     1     2    2
    15     1     3   am
    16     3     4    1
    17     4     5    1
    18     5     6    1
    19     6     7    1
    20     7     8   ar
    21     8     9    1
    22     8    10   ar
    23    10    11   ar
    24    11    15    1
    25    15    16   ar
    26    16    17   ar
    27    17    18   ar
    28    18    19   ar
    29    19    20   ar
    30    20    21   ar
    31    21    22   ar
    32    22    23   ar
    33    11    12   ar
    34    12    13   ar
    35    13    14    1
    36    30    25   ar
    37    14     3    1
    38    13     7   ar
    39    23    15   ar
    40    22    18   ar
    41    35    36    1
    42    21    24    1
@<TRIPOS>MOLECULE
*****
 38 42 0 0 0
SMALL
GASTEIGER

@<TRIPOS>ATOM
      1 C          49.8164   10.9998  -20.5243 C.2     1  UNL1        0.2506
      2 O          49.7262    9.7630  -20.7554 O.2     1  UNL1       -0.2699
      3 N          49.6878   11.9438  -21.6061 N.am    1  UNL1       -0.2680
      4 C          50.5269   13.1469  -21.6312 C.3     1  UNL1        0.1412
      5 C          49.7020   14.3721  -21.2422 C.3     1  UNL1        0.2268
      6 O          48.3378   14.2273  -21.6318 O.3     1  UNL1       -0.4730
      7 C          47.9645   13.9395  -22.9473 C.ar    1  UNL1        0.1466
      8 C          47.2369   14.8999  -23.6639 C.ar    1  UNL1        0.0913
      9 CL         46.7921   16.4240  -22.9105 Cl      1  UNL1       -0.0791
     10 C          46.8721   14.6645  -24.9907 C.ar    1  UNL1        0.0144
     11 C          47.2129   13.4583  -25.6207 C.ar    1  UNL1        0.0008
     12 C          47.9196   12.4858  -24.8938 C.ar    1  UNL1        0.0005
     13 C          48.3060   12.7097  -23.5611 C.ar    1  UNL1        0.0325
     14 C          48.9464   11.5513  -22.8135 C.3     1  UNL1        0.1236
     15 C          46.8180   13.2090  -27.0303 C.ar    1  UNL1        0.0015
     16 C          46.2406   14.2487  -27.8121 C.ar    1  UNL1        0.0016
     17 C          45.8628   14.0212  -29.1488 C.ar    1  UNL1        0.0206
     18 C          46.0736   12.7511  -29.6745 C.ar    1  UNL1        0.0985
     19 N          45.7893   12.3153  -30.9149 N.ar    1  UNL1       -0.2241
     20 C          46.1946   11.0184  -30.8796 C.ar    1  UNL1        0.1750
     21 N          46.7095   10.6453  -29.6832 N.ar    1  UNL1       -0.3349
     22 C          46.6259   11.7517  -28.9353 C.ar    1  UNL1        0.0757
     23 C          47.0142   11.9321  -27.6108 C.ar    1  UNL1        0.0185
     24 H          47.0842    9.7094  -29.4112 H       1  UNL1        0.1675
     25 C          48.9589   11.5856  -18.2224 C.ar    1  UNL1        0.0503
     26 C          49.2252   12.0716  -16.9265 C.ar    1  UNL1        0.0328
     27 C          50.5245   12.4299  -16.5473 C.ar    1  UNL1        0.1069
     28 C          51.5754   12.2912  -17.4578 C.ar    1  UNL1        0.0186
     29 C          51.3296   11.8130  -18.7440 C.ar    1  UNL1        0.0071
     30 C          50.0322   11.4531  -19.1361 C.ar    1  UNL1        0.0667
     31 S          50.8371   13.0151  -14.9164 S.O2    1  UNL1        0.0105
     32 C          50.8129   11.6444  -13.7842 C.3     1  UNL1        0.1816
     33 O          49.7830   14.0122  -14.5241 O.2     1  UNL1       -0.1686
     34 O          52.1804   13.6872  -14.8619 O.2     1  UNL1       -0.1686
     35 N          47.6258   11.1762  -18.5979 N.pl3   1  UNL1       -0.3325
     36 H          47.4113   10.1566  -18.6747 H       1  UNL1        0.1468
     37 C          46.0375   11.9126  -20.3287 C.3     1  UNL1        0.0229
     38 C          46.5299   12.0999  -18.8971 C.3     1  UNL1        0.0871
@<TRIPOS>BOND
     1    37    38    1
     2    38    35    1
     3    35    25    1
     4    25    26   ar
     5    26    27   ar
     6    27    31    1
     7    31    32    1
     8    31    33    2
     9    31    34    2
    10    27    28   ar
    11    28    29   ar
    12    29    30   ar
    13    30     1    1
    14     1     2    2
    15     1     3   am
    16     3     4    1
    17     4     5    1
    18     5     6    1
    19     6     7    1
    20     7     8   ar
    21     8     9    1
    22     8    10   ar
    23    10    11   ar
    24    11    15    1
    25    15    16   ar
    26    16    17   ar
    27    17    18   ar
    28    18    19   ar
    29    19    20   ar
    30    20    21   ar
    31    21    22   ar
    32    22    23   ar
    33    11    12   ar
    34    12    13   ar
    35    13    14    1
    36    30    25   ar
    37    14     3    1
    38    13     7   ar
    39    23    15   ar
    40    22    18   ar
    41    35    36    1
    42    21    24    1
