@<TRIPOS>MOLECULE
*****
 43 47 0 0 0
SMALL
GASTEIGER

@<TRIPOS>ATOM
      1 C         -27.3751   48.6218   -7.2361 C.ar    1  UNL1        0.0848
      2 C         -28.2272   47.7831   -7.9920 C.ar    1  UNL1        0.1398
      3 C         -29.3814   47.2563   -7.4823 C.ar    1  UNL1        0.0325
      4 C         -29.7248   47.5379   -6.1720 C.ar    1  UNL1        0.0752
      5 N         -30.7749   47.1033   -5.4669 N.ar    1  UNL1       -0.3255
      6 C         -30.5955   47.6793   -4.2522 C.ar    1  UNL1        0.1984
      7 N         -29.4742   48.4409   -4.1632 N.ar    1  UNL1       -0.2140
      8 C         -28.9384   48.3449   -5.3956 C.ar    1  UNL1        0.0957
      9 C         -27.7470   48.9402   -5.8847 C.ar    1  UNL1        0.0040
     10 C         -30.0588   46.3993   -8.4882 C.3     1  UNL1        0.0709
     11 C         -29.1000   46.5142   -9.7205 C.3     1  UNL1        0.1375
     12 C         -28.5325   45.1453  -10.1174 C.3     1  UNL1        0.0439
     13 C         -29.8032   47.1700  -10.9162 C.3     1  UNL1        0.0439
     14 O         -28.0289   47.3588   -9.2899 O.3     1  UNL1       -0.4824
     15 H         -31.5298   46.4525   -5.7780 H       1  UNL1        0.1686
     16 N         -26.0405   50.4325   -8.3768 N.am    1  UNL1       -0.2806
     17 C         -26.1234   49.0947   -7.8598 C.2     1  UNL1        0.2522
     18 O         -25.1570   48.2958   -7.9945 O.2     1  UNL1       -0.2697
     19 H         -26.8855   51.0428   -8.3071 H       1  UNL1        0.1552
     20 C         -26.2208   50.9208  -11.2437 C.3     1  UNL1        0.0323
     21 C         -24.9623   51.2001  -10.4660 C.ar    1  UNL1       -0.0084
     22 C         -23.8455   51.7411  -11.1254 C.ar    1  UNL1        0.0008
     23 C         -22.6525   51.9981  -10.4296 C.ar    1  UNL1        0.0712
     24 C         -22.6055   51.7622   -9.0471 C.ar    1  UNL1        0.0051
     25 C         -23.7128   51.2354   -8.3807 C.ar    1  UNL1        0.0143
     26 C         -24.8935   50.9390   -9.0797 C.ar    1  UNL1        0.0465
     27 C         -21.4750   52.6188  -11.1391 C.3     1  UNL1        0.4186
     28 F         -20.6598   51.6419  -11.6845 F       1  UNL1       -0.1659
     29 F         -20.7411   53.3647  -10.2359 F       1  UNL1       -0.1659
     30 F         -21.9034   53.4450  -12.1637 F       1  UNL1       -0.1659
     31 C         -26.9220   49.8838   -5.0135 C.3     1  UNL1        0.0241
     32 C         -27.5002   51.3058   -4.9970 C.3     1  UNL1        0.0047
     33 C         -26.7691   49.3280   -3.5938 C.3     1  UNL1        0.0047
     34 N         -31.4680   47.4684   -3.1350 N.pl3   1  UNL1       -0.2816
     35 H         -32.4959   47.4317   -3.3176 H       1  UNL1        0.1551
     36 C         -31.0053   47.4004   -1.7775 C.ar    1  UNL1        0.0889
     37 C         -30.7889   48.5777   -1.0357 C.ar    1  UNL1        0.1543
     38 F         -30.9999   49.7957   -1.5955 F       1  UNL1       -0.2028
     39 C         -30.3190   48.5045    0.2789 C.ar    1  UNL1        0.0310
     40 C         -30.0492   47.2638    0.8594 C.ar    1  UNL1        0.0033
     41 C         -30.2411   46.0916    0.1250 C.ar    1  UNL1        0.0128
     42 C         -30.7108   46.1534   -1.1923 C.ar    1  UNL1        0.0733
     43 CL        -30.9565   44.6534   -2.0769 Cl      1  UNL1       -0.0809
@<TRIPOS>BOND
     1    20    21    1
     2    21    22   ar
     3    22    23   ar
     4    23    27    1
     5    27    28    1
     6    27    29    1
     7    27    30    1
     8    23    24   ar
     9    24    25   ar
    10    25    26   ar
    11    26    16    1
    12    16    17   am
    13    17    18    2
    14    17     1    1
    15     1     2   ar
    16     2     3   ar
    17     3     4   ar
    18     4     5   ar
    19     5     6   ar
    20     6    34    1
    21    34    36    1
    22    36    37   ar
    23    37    38    1
    24    37    39   ar
    25    39    40   ar
    26    40    41   ar
    27    41    42   ar
    28    42    43    1
    29     6     7   ar
    30     7     8   ar
    31     8     9   ar
    32     9    31    1
    33    31    32    1
    34    31    33    1
    35     3    10    1
    36    10    11    1
    37    11    12    1
    38    11    13    1
    39    11    14    1
    40    26    21   ar
    41     9     1   ar
    42    14     2    1
    43     8     4   ar
    44    42    36   ar
    45    16    19    1
    46     5    15    1
    47    34    35    1
@<TRIPOS>MOLECULE
*****
 43 47 0 0 0
SMALL
GASTEIGER

@<TRIPOS>ATOM
      1 C         -27.9483   50.9930   -8.5494 C.ar    1  UNL1        0.0848
      2 C         -29.0780   50.8291   -9.3847 C.ar    1  UNL1        0.1398
      3 C         -30.2434   50.2665   -8.9434 C.ar    1  UNL1        0.0325
      4 C         -30.3198   49.8233   -7.6349 C.ar    1  UNL1        0.0752
      5 N         -31.3353   49.2155   -7.0119 N.ar    1  UNL1       -0.3255
      6 C         -30.8512   48.9989   -5.7636 C.ar    1  UNL1        0.1984
      7 N         -29.5757   49.4304   -5.5842 N.ar    1  UNL1       -0.2140
      8 C         -29.2581   49.9584   -6.7824 C.ar    1  UNL1        0.0957
      9 C         -28.0373   50.5614   -7.1812 C.ar    1  UNL1        0.0040
     10 C         -31.2450   50.2019  -10.0377 C.3     1  UNL1        0.0709
     11 C         -30.4698   50.8480  -11.2346 C.3     1  UNL1        0.1375
     12 C         -30.3186   49.8625  -12.4005 C.3     1  UNL1        0.0439
     13 C         -31.1499   52.1391  -11.7089 C.3     1  UNL1        0.0439
     14 O         -29.1741   51.1667  -10.7191 O.3     1  UNL1       -0.4824
     15 H         -32.2631   48.9493   -7.4098 H       1  UNL1        0.1686
     16 N         -25.5218   50.7690   -9.1995 N.am    1  UNL1       -0.2806
     17 C         -26.7187   51.5610   -9.1364 C.2     1  UNL1        0.2522
     18 O         -26.7110   52.7633   -9.5171 O.2     1  UNL1       -0.2697
     19 H         -25.5496   49.7992   -8.8119 H       1  UNL1        0.1552
     20 C         -25.1501   51.2603  -12.0474 C.3     1  UNL1        0.0323
     21 C         -24.0638   51.5389  -11.0429 C.ar    1  UNL1       -0.0084
     22 C         -22.8415   52.0806  -11.4757 C.ar    1  UNL1        0.0008
     23 C         -21.8039   52.3370  -10.5641 C.ar    1  UNL1        0.0712
     24 C         -22.0224   52.0997   -9.1985 C.ar    1  UNL1        0.0051
     25 C         -23.2367   51.5722   -8.7569 C.ar    1  UNL1        0.0143
     26 C         -24.2616   51.2763   -9.6693 C.ar    1  UNL1        0.0465
     27 C         -20.5125   52.9585  -11.0344 C.3     1  UNL1        0.4186
     28 F         -20.7113   53.6831  -12.1970 F       1  UNL1       -0.1659
     29 F         -19.5891   51.9594  -11.2791 F       1  UNL1       -0.1659
     30 F         -20.0055   53.8157  -10.0730 F       1  UNL1       -0.1659
     31 C         -26.8916   50.7518   -6.1907 C.3     1  UNL1        0.0241
     32 C         -27.1293   51.9479   -5.2581 C.3     1  UNL1        0.0047
     33 C         -26.6336   49.4678   -5.3956 C.3     1  UNL1        0.0047
     34 N         -31.5834   48.3256   -4.7320 N.pl3   1  UNL1       -0.2816
     35 H         -32.5996   48.1441   -4.8927 H       1  UNL1        0.1551
     36 C         -31.0125   47.9769   -3.4616 C.ar    1  UNL1        0.0889
     37 C         -30.9400   48.9272   -2.4249 C.ar    1  UNL1        0.1543
     38 F         -31.3948   50.1917   -2.6136 F       1  UNL1       -0.2028
     39 C         -30.3644   48.5865   -1.1973 C.ar    1  UNL1        0.0310
     40 C         -29.8463   47.3057   -0.9968 C.ar    1  UNL1        0.0033
     41 C         -29.8950   46.3627   -2.0257 C.ar    1  UNL1        0.0128
     42 C         -30.4687   46.6934   -3.2590 C.ar    1  UNL1        0.0733
     43 CL        -30.5269   45.4716   -4.5227 Cl      1  UNL1       -0.0809
@<TRIPOS>BOND
     1    20    21    1
     2    21    22   ar
     3    22    23   ar
     4    23    27    1
     5    27    28    1
     6    27    29    1
     7    27    30    1
     8    23    24   ar
     9    24    25   ar
    10    25    26   ar
    11    26    16    1
    12    16    17   am
    13    17    18    2
    14    17     1    1
    15     1     2   ar
    16     2     3   ar
    17     3     4   ar
    18     4     5   ar
    19     5     6   ar
    20     6    34    1
    21    34    36    1
    22    36    37   ar
    23    37    38    1
    24    37    39   ar
    25    39    40   ar
    26    40    41   ar
    27    41    42   ar
    28    42    43    1
    29     6     7   ar
    30     7     8   ar
    31     8     9   ar
    32     9    31    1
    33    31    32    1
    34    31    33    1
    35     3    10    1
    36    10    11    1
    37    11    12    1
    38    11    13    1
    39    11    14    1
    40    26    21   ar
    41     9     1   ar
    42    14     2    1
    43     8     4   ar
    44    42    36   ar
    45    16    19    1
    46     5    15    1
    47    34    35    1
@<TRIPOS>MOLECULE
*****
 43 47 0 0 0
SMALL
GASTEIGER

@<TRIPOS>ATOM
      1 C         -27.7920   51.0958   -8.6438 C.ar    1  UNL1        0.0848
      2 C         -28.9004   51.0018   -9.5175 C.ar    1  UNL1        0.1398
      3 C         -30.0874   50.4369   -9.1415 C.ar    1  UNL1        0.0325
      4 C         -30.2084   49.9207   -7.8636 C.ar    1  UNL1        0.0752
      5 N         -31.2514   49.2974   -7.3047 N.ar    1  UNL1       -0.3255
      6 C         -30.8066   49.0001   -6.0584 C.ar    1  UNL1        0.1984
      7 N         -29.5294   49.3962   -5.8198 N.ar    1  UNL1       -0.2140
      8 C         -29.1689   49.9862   -6.9761 C.ar    1  UNL1        0.0957
      9 C         -27.9270   50.5878   -7.3059 C.ar    1  UNL1        0.0040
     10 C         -31.0587   50.4546  -10.2646 C.3     1  UNL1        0.0709
     11 C         -30.2389   51.1537  -11.4004 C.3     1  UNL1        0.1375
     12 C         -30.0720   50.2343  -12.6171 C.3     1  UNL1        0.0439
     13 C         -30.8827   52.4827  -11.8172 C.3     1  UNL1        0.0439
     14 O         -28.9529   51.4175  -10.8322 O.3     1  UNL1       -0.4824
     15 H         -32.1722   49.0723   -7.7424 H       1  UNL1        0.1686
     16 N         -25.3554   50.8602   -9.2509 N.am    1  UNL1       -0.2806
     17 C         -26.5367   51.6732   -9.1633 C.2     1  UNL1        0.2522
     18 O         -26.4942   52.8974   -9.4631 O.2     1  UNL1       -0.2697
     19 H         -25.4132   49.8679   -8.9291 H       1  UNL1        0.1552
     20 C         -24.8708   51.4345  -12.0660 C.3     1  UNL1        0.0323
     21 C         -23.8212   51.6710  -11.0130 C.ar    1  UNL1       -0.0084
     22 C         -22.5784   52.2131  -11.3822 C.ar    1  UNL1        0.0008
     23 C         -21.5740   52.4308  -10.4244 C.ar    1  UNL1        0.0712
     24 C         -21.8467   52.1541   -9.0760 C.ar    1  UNL1        0.0051
     25 C         -23.0817   51.6259   -8.6973 C.ar    1  UNL1        0.0143
     26 C         -24.0736   51.3686   -9.6567 C.ar    1  UNL1        0.0465
     27 C         -20.2600   53.0531  -10.8260 C.3     1  UNL1        0.4186
     28 F         -19.2400   52.1183  -10.7810 F       1  UNL1       -0.1659
     29 F         -19.9618   54.0867   -9.9579 F       1  UNL1       -0.1659
     30 F         -20.3309   53.5529  -12.1149 F       1  UNL1       -0.1659
     31 C         -26.8066   50.6991   -6.2753 C.3     1  UNL1        0.0241
     32 C         -27.1564   51.6805   -5.1478 C.3     1  UNL1        0.0047
     33 C         -26.4332   49.3212   -5.7189 C.3     1  UNL1        0.0047
     34 N         -31.5793   48.2825   -5.0880 N.pl3   1  UNL1       -0.2816
     35 H         -32.5558   48.6054   -4.9050 H       1  UNL1        0.1551
     36 C         -31.0469   47.2101   -4.2955 C.ar    1  UNL1        0.0889
     37 C         -31.0262   45.8936   -4.7950 C.ar    1  UNL1        0.1543
     38 F         -31.5221   45.6140   -6.0269 F       1  UNL1       -0.2028
     39 C         -30.5249   44.8511   -4.0100 C.ar    1  UNL1        0.0310
     40 C         -30.0538   45.1076   -2.7210 C.ar    1  UNL1        0.0033
     41 C         -30.0891   46.4064   -2.2091 C.ar    1  UNL1        0.0128
     42 C         -30.5895   47.4576   -2.9865 C.ar    1  UNL1        0.0733
     43 CL        -30.5997   49.0817   -2.3119 Cl      1  UNL1       -0.0809
@<TRIPOS>BOND
     1    20    21    1
     2    21    22   ar
     3    22    23   ar
     4    23    27    1
     5    27    28    1
     6    27    29    1
     7    27    30    1
     8    23    24   ar
     9    24    25   ar
    10    25    26   ar
    11    26    16    1
    12    16    17   am
    13    17    18    2
    14    17     1    1
    15     1     2   ar
    16     2     3   ar
    17     3     4   ar
    18     4     5   ar
    19     5     6   ar
    20     6    34    1
    21    34    36    1
    22    36    37   ar
    23    37    38    1
    24    37    39   ar
    25    39    40   ar
    26    40    41   ar
    27    41    42   ar
    28    42    43    1
    29     6     7   ar
    30     7     8   ar
    31     8     9   ar
    32     9    31    1
    33    31    32    1
    34    31    33    1
    35     3    10    1
    36    10    11    1
    37    11    12    1
    38    11    13    1
    39    11    14    1
    40    26    21   ar
    41     9     1   ar
    42    14     2    1
    43     8     4   ar
    44    42    36   ar
    45    16    19    1
    46     5    15    1
    47    34    35    1
@<TRIPOS>MOLECULE
*****
 43 47 0 0 0
SMALL
GASTEIGER

@<TRIPOS>ATOM
      1 C         -27.6670   49.2334   -7.1477 C.ar    1  UNL1        0.0848
      2 C         -27.7557   48.4657   -8.3324 C.ar    1  UNL1        0.1398
      3 C         -27.0763   48.7925   -9.4731 C.ar    1  UNL1        0.0325
      4 C         -26.2835   49.9263   -9.4789 C.ar    1  UNL1        0.0752
      5 N         -25.5706   50.4477  -10.4833 N.ar    1  UNL1       -0.3255
      6 C         -25.0136   51.5536   -9.9299 C.ar    1  UNL1        0.1984
      7 N         -25.3583   51.7536   -8.6312 N.ar    1  UNL1       -0.2140
      8 C         -26.1594   50.7048   -8.3604 C.ar    1  UNL1        0.0957
      9 C         -26.8190   50.3941   -7.1433 C.ar    1  UNL1        0.0040
     10 C         -27.3760   47.8263  -10.5602 C.3     1  UNL1        0.0709
     11 C         -28.3630   46.8341   -9.8585 C.3     1  UNL1        0.1375
     12 C         -29.7283   46.8148  -10.5578 C.3     1  UNL1        0.0439
     13 C         -27.7763   45.4180   -9.7892 C.3     1  UNL1        0.0439
     14 O         -28.5242   47.3367   -8.5290 O.3     1  UNL1       -0.4824
     15 H         -25.4929   50.0957  -11.4632 H       1  UNL1        0.1686
     16 N         -27.8978   48.0394   -4.9382 N.am    1  UNL1       -0.2806
     17 C         -28.4834   48.8280   -5.9866 C.2     1  UNL1        0.2522
     18 O         -29.7097   49.1209   -5.9578 O.2     1  UNL1       -0.2697
     19 H         -26.8956   47.7592   -5.0312 H       1  UNL1        0.1552
     20 C         -28.4475   45.1826   -4.7774 C.3     1  UNL1        0.0323
     21 C         -28.9089   46.1433   -3.7140 C.ar    1  UNL1       -0.0084
     22 C         -29.5989   45.6556   -2.5912 C.ar    1  UNL1        0.0008
     23 C         -30.0552   46.5294   -1.5902 C.ar    1  UNL1        0.0712
     24 C         -29.7617   47.8976   -1.6945 C.ar    1  UNL1        0.0051
     25 C         -29.0673   48.3907   -2.8001 C.ar    1  UNL1        0.0143
     26 C         -28.6452   47.5265   -3.8227 C.ar    1  UNL1        0.0465
     27 C         -30.7567   45.9894   -0.3690 C.3     1  UNL1        0.4186
     28 F         -31.5802   46.9516    0.1896 F       1  UNL1       -0.1659
     29 F         -29.8131   45.6067    0.5659 F       1  UNL1       -0.1659
     30 F         -31.5354   44.8934   -0.6987 F       1  UNL1       -0.1659
     31 C         -26.6140   51.2484   -5.8951 C.3     1  UNL1        0.0241
     32 C         -27.8833   52.0221   -5.5118 C.3     1  UNL1        0.0047
     33 C         -26.1045   50.3994   -4.7258 C.3     1  UNL1        0.0047
     34 N         -24.1814   52.4709  -10.6508 N.pl3   1  UNL1       -0.2816
     35 H         -24.6205   53.0332  -11.4139 H       1  UNL1        0.1551
     36 C         -22.7659   52.5828  -10.4379 C.ar    1  UNL1        0.0889
     37 C         -22.1790   52.0896   -9.2566 C.ar    1  UNL1        0.1543
     38 F         -22.9426   51.5138   -8.2938 F       1  UNL1       -0.2028
     39 C         -20.8030   52.2201   -9.0470 C.ar    1  UNL1        0.0310
     40 C         -20.0047   52.8520  -10.0024 C.ar    1  UNL1        0.0033
     41 C         -20.5806   53.3626  -11.1677 C.ar    1  UNL1        0.0128
     42 C         -21.9575   53.2377  -11.3874 C.ar    1  UNL1        0.0733
     43 CL        -22.6408   53.8780  -12.8761 Cl      1  UNL1       -0.0809
@<TRIPOS>BOND
     1    20    21    1
     2    21    22   ar
     3    22    23   ar
     4    23    27    1
     5    27    28    1
     6    27    29    1
     7    27    30    1
     8    23    24   ar
     9    24    25   ar
    10    25    26   ar
    11    26    16    1
    12    16    17   am
    13    17    18    2
    14    17     1    1
    15     1     2   ar
    16     2     3   ar
    17     3     4   ar
    18     4     5   ar
    19     5     6   ar
    20     6    34    1
    21    34    36    1
    22    36    37   ar
    23    37    38    1
    24    37    39   ar
    25    39    40   ar
    26    40    41   ar
    27    41    42   ar
    28    42    43    1
    29     6     7   ar
    30     7     8   ar
    31     8     9   ar
    32     9    31    1
    33    31    32    1
    34    31    33    1
    35     3    10    1
    36    10    11    1
    37    11    12    1
    38    11    13    1
    39    11    14    1
    40    26    21   ar
    41     9     1   ar
    42    14     2    1
    43     8     4   ar
    44    42    36   ar
    45    16    19    1
    46     5    15    1
    47    34    35    1
@<TRIPOS>MOLECULE
*****
 43 47 0 0 0
SMALL
GASTEIGER

@<TRIPOS>ATOM
      1 C         -27.2311   50.7644   -9.2201 C.ar    1  UNL1        0.0848
      2 C         -28.3296   50.9757  -10.0858 C.ar    1  UNL1        0.1398
      3 C         -29.6175   50.6966   -9.7212 C.ar    1  UNL1        0.0325
      4 C         -29.8589   50.1712   -8.4643 C.ar    1  UNL1        0.0752
      5 N         -31.0210   49.7932   -7.9208 N.ar    1  UNL1       -0.3255
      6 C         -30.6605   49.3458   -6.6922 C.ar    1  UNL1        0.1984
      7 N         -29.3256   49.4138   -6.4504 N.ar    1  UNL1       -0.2140
      8 C         -28.8341   49.9482   -7.5853 C.ar    1  UNL1        0.0957
      9 C         -27.4841   50.2479   -7.9028 C.ar    1  UNL1        0.0040
     10 C         -30.5562   50.9938  -10.8328 C.3     1  UNL1        0.0709
     11 C         -29.5926   51.5231  -11.9473 C.3     1  UNL1        0.1375
     12 C         -29.6512   50.6425  -13.2021 C.3     1  UNL1        0.0439
     13 C         -29.8987   52.9839  -12.3030 C.3     1  UNL1        0.0439
     14 O         -28.2809   51.4468  -11.3818 O.3     1  UNL1       -0.4824
     15 H         -31.9689   49.8140   -8.3580 H       1  UNL1        0.1686
     16 N         -25.1062   52.1218   -9.1662 N.am    1  UNL1       -0.2806
     17 C         -25.8739   51.0454   -9.7282 C.2     1  UNL1        0.2522
     18 O         -25.4250   50.3791  -10.7003 O.2     1  UNL1       -0.2697
     19 H         -25.5395   52.6946   -8.4075 H       1  UNL1        0.1552
     20 C         -22.7004   50.9790   -7.9847 C.3     1  UNL1        0.0323
     21 C         -22.6384   51.9656   -9.1203 C.ar    1  UNL1       -0.0084
     22 C         -21.3909   52.3301   -9.6547 C.ar    1  UNL1        0.0008
     23 C         -21.3004   53.2597  -10.7041 C.ar    1  UNL1        0.0712
     24 C         -22.4804   53.7805  -11.2568 C.ar    1  UNL1        0.0051
     25 C         -23.7249   53.4165  -10.7406 C.ar    1  UNL1        0.0143
     26 C         -23.8180   52.5191   -9.6652 C.ar    1  UNL1        0.0465
     27 C         -19.9590   53.6104  -11.2980 C.3     1  UNL1        0.4186
     28 F         -18.9428   52.9263  -10.6533 F       1  UNL1       -0.1659
     29 F         -19.7429   54.9691  -11.1634 F       1  UNL1       -0.1659
     30 F         -19.9185   53.2780  -12.6411 F       1  UNL1       -0.1659
     31 C         -26.3697   50.0439   -6.8799 C.3     1  UNL1        0.0241
     32 C         -26.6223   50.8335   -5.5877 C.3     1  UNL1        0.0047
     33 C         -26.1559   48.5547   -6.5901 C.3     1  UNL1        0.0047
     34 N         -31.5829   48.7943   -5.7441 N.pl3   1  UNL1       -0.2816
     35 H         -32.3876   48.2386   -6.1114 H       1  UNL1        0.1551
     36 C         -31.5055   49.0470   -4.3329 C.ar    1  UNL1        0.0889
     37 C         -31.4641   47.9789   -3.4161 C.ar    1  UNL1        0.1543
     38 F         -31.5113   46.6938   -3.8497 F       1  UNL1       -0.2028
     39 C         -31.4092   48.2325   -2.0425 C.ar    1  UNL1        0.0310
     40 C         -31.4083   49.5468   -1.5712 C.ar    1  UNL1        0.0033
     41 C         -31.4698   50.6125   -2.4716 C.ar    1  UNL1        0.0128
     42 C         -31.5255   50.3698   -3.8492 C.ar    1  UNL1        0.0733
     43 CL        -31.5836   51.7397   -4.9505 Cl      1  UNL1       -0.0809
@<TRIPOS>BOND
     1    20    21    1
     2    21    22   ar
     3    22    23   ar
     4    23    27    1
     5    27    28    1
     6    27    29    1
     7    27    30    1
     8    23    24   ar
     9    24    25   ar
    10    25    26   ar
    11    26    16    1
    12    16    17   am
    13    17    18    2
    14    17     1    1
    15     1     2   ar
    16     2     3   ar
    17     3     4   ar
    18     4     5   ar
    19     5     6   ar
    20     6    34    1
    21    34    36    1
    22    36    37   ar
    23    37    38    1
    24    37    39   ar
    25    39    40   ar
    26    40    41   ar
    27    41    42   ar
    28    42    43    1
    29     6     7   ar
    30     7     8   ar
    31     8     9   ar
    32     9    31    1
    33    31    32    1
    34    31    33    1
    35     3    10    1
    36    10    11    1
    37    11    12    1
    38    11    13    1
    39    11    14    1
    40    26    21   ar
    41     9     1   ar
    42    14     2    1
    43     8     4   ar
    44    42    36   ar
    45    16    19    1
    46     5    15    1
    47    34    35    1
@<TRIPOS>MOLECULE
*****
 43 47 0 0 0
SMALL
GASTEIGER

@<TRIPOS>ATOM
      1 C         -30.2600   49.1624  -10.1757 C.ar    1  UNL1        0.0848
      2 C         -30.2438   47.8010  -10.5591 C.ar    1  UNL1        0.1398
      3 C         -30.1496   47.4057  -11.8646 C.ar    1  UNL1        0.0325
      4 C         -30.0846   48.3710  -12.8536 C.ar    1  UNL1        0.0752
      5 N         -30.0278   48.2118  -14.1804 N.ar    1  UNL1       -0.3255
      6 C         -29.9974   49.4850  -14.6468 C.ar    1  UNL1        0.1984
      7 N         -30.0474   50.4304  -13.6727 N.ar    1  UNL1       -0.2140
      8 C         -30.0945   49.7029  -12.5397 C.ar    1  UNL1        0.0957
      9 C         -30.1610   50.1657  -11.2002 C.ar    1  UNL1        0.0040
     10 C         -30.1789   45.9248  -11.9704 C.3     1  UNL1        0.0709
     11 C         -30.2962   45.4881  -10.4716 C.3     1  UNL1        0.1375
     12 C         -31.5839   44.6932  -10.2195 C.3     1  UNL1        0.0439
     13 C         -29.0708   44.6779  -10.0283 C.3     1  UNL1        0.0439
     14 O         -30.3436   46.7068   -9.7243 O.3     1  UNL1       -0.4824
     15 H         -30.0360   47.3172  -14.7187 H       1  UNL1        0.1686
     16 N         -30.0258   48.5325   -7.7448 N.am    1  UNL1       -0.2806
     17 C         -30.4207   49.4858   -8.7444 C.2     1  UNL1        0.2522
     18 O         -30.9676   50.5723   -8.4114 O.2     1  UNL1       -0.2697
     19 H         -29.6390   47.6152   -8.0619 H       1  UNL1        0.1552
     20 C         -31.4743   46.5194   -6.2154 C.3     1  UNL1        0.0323
     21 C         -30.9177   47.7609   -5.5710 C.ar    1  UNL1       -0.0084
     22 C         -31.0681   47.9506   -4.1867 C.ar    1  UNL1        0.0008
     23 C         -30.5729   49.1061   -3.5597 C.ar    1  UNL1        0.0712
     24 C         -29.8697   50.0487   -4.3253 C.ar    1  UNL1        0.0051
     25 C         -29.7052   49.8644   -5.6989 C.ar    1  UNL1        0.0143
     26 C         -30.2339   48.7311   -6.3365 C.ar    1  UNL1        0.0465
     27 C         -30.7025   49.2781   -2.0668 C.3     1  UNL1        0.4186
     28 F         -31.5588   48.3289   -1.5359 F       1  UNL1       -0.1659
     29 F         -31.2029   50.5378   -1.7956 F       1  UNL1       -0.1659
     30 F         -29.4703   49.1400   -1.4513 F       1  UNL1       -0.1659
     31 C         -30.1103   51.6569  -10.8779 C.3     1  UNL1        0.0241
     32 C         -28.6779   52.1397  -10.6094 C.3     1  UNL1        0.0047
     33 C         -30.7780   52.4809  -11.9837 C.3     1  UNL1        0.0047
     34 N         -29.9732   49.8218  -16.0395 N.pl3   1  UNL1       -0.2816
     35 H         -30.7509   50.4104  -16.4137 H       1  UNL1        0.1551
     36 C         -28.9901   49.3140  -16.9546 C.ar    1  UNL1        0.0889
     37 C         -27.6555   49.7583  -16.8897 C.ar    1  UNL1        0.1543
     38 F         -27.2792   50.6841  -15.9716 F       1  UNL1       -0.2028
     39 C         -26.7081   49.2747  -17.7969 C.ar    1  UNL1        0.0310
     40 C         -27.0831   48.3579  -18.7808 C.ar    1  UNL1        0.0033
     41 C         -28.4087   47.9268  -18.8661 C.ar    1  UNL1        0.0128
     42 C         -29.3655   48.4051  -17.9631 C.ar    1  UNL1        0.0733
     43 CL        -31.0202   47.8235  -18.0929 Cl      1  UNL1       -0.0809
@<TRIPOS>BOND
     1    20    21    1
     2    21    22   ar
     3    22    23   ar
     4    23    27    1
     5    27    28    1
     6    27    29    1
     7    27    30    1
     8    23    24   ar
     9    24    25   ar
    10    25    26   ar
    11    26    16    1
    12    16    17   am
    13    17    18    2
    14    17     1    1
    15     1     2   ar
    16     2     3   ar
    17     3     4   ar
    18     4     5   ar
    19     5     6   ar
    20     6    34    1
    21    34    36    1
    22    36    37   ar
    23    37    38    1
    24    37    39   ar
    25    39    40   ar
    26    40    41   ar
    27    41    42   ar
    28    42    43    1
    29     6     7   ar
    30     7     8   ar
    31     8     9   ar
    32     9    31    1
    33    31    32    1
    34    31    33    1
    35     3    10    1
    36    10    11    1
    37    11    12    1
    38    11    13    1
    39    11    14    1
    40    26    21   ar
    41     9     1   ar
    42    14     2    1
    43     8     4   ar
    44    42    36   ar
    45    16    19    1
    46     5    15    1
    47    34    35    1
