@<TRIPOS>MOLECULE
*****
 52 57 0 0 0
SMALL
GASTEIGER

@<TRIPOS>ATOM
      1 N         -62.7538  -46.1911  -27.4810 N.am    1  UNL1       -0.2945
      2 C         -61.8019  -45.9047  -26.4393 C.2     1  UNL1        0.2483
      3 O         -60.7307  -46.5670  -26.3698 O.2     1  UNL1       -0.2701
      4 H         -63.4014  -45.4274  -27.7784 H       1  UNL1        0.1501
      5 C         -62.0449  -44.8236  -25.4512 C.ar    1  UNL1        0.0808
      6 C         -61.9571  -45.1118  -24.0781 C.ar    1  UNL1        0.0080
      7 C         -62.2104  -44.1249  -23.1230 C.ar    1  UNL1        0.0148
      8 C         -62.5637  -42.8239  -23.5158 C.ar    1  UNL1        0.0502
      9 C         -62.6654  -42.5362  -24.8875 C.ar    1  UNL1        0.0443
     10 C         -62.4122  -43.5209  -25.8473 C.ar    1  UNL1        0.1457
     11 F         -62.5824  -43.2020  -27.1547 F       1  UNL1       -0.2040
     12 N         -62.8374  -41.8067  -22.5267 N.pl3   1  UNL1       -0.3040
     13 C         -61.8103  -40.7996  -22.2171 C.3     1  UNL1        0.1123
     14 C         -62.0785  -40.1128  -20.8746 C.3     1  UNL1        0.1136
     15 N         -63.4638  -39.6250  -20.8122 N.pl3   1  UNL1       -0.2897
     16 C         -64.5495  -40.4380  -21.3861 C.3     1  UNL1        0.1136
     17 C         -64.0784  -41.8526  -21.7406 C.3     1  UNL1        0.1123
     18 C         -63.7649  -38.4220  -20.0689 C.ar    1  UNL1        0.1318
     19 C         -64.8424  -38.3678  -19.1675 C.ar    1  UNL1        0.0343
     20 C         -65.1001  -37.1876  -18.4684 C.ar    1  UNL1        0.0083
     21 C         -64.3031  -36.0529  -18.6775 C.ar    1  UNL1        0.0906
     22 C         -63.2238  -36.1525  -19.5682 C.ar    1  UNL1        0.1041
     23 N         -62.9906  -37.3129  -20.2358 N.ar    1  UNL1       -0.2292
     24 C         -64.5405  -34.7885  -17.8917 C.3     1  UNL1        0.4200
     25 F         -65.6035  -34.0771  -18.4208 F       1  UNL1       -0.1658
     26 F         -64.8308  -35.0822  -16.5706 F       1  UNL1       -0.1658
     27 F         -63.4043  -34.0028  -17.9394 F       1  UNL1       -0.1658
     28 C         -62.8455  -47.4659  -28.2125 C.3     1  UNL1        0.1535
     29 N         -63.0746  -48.5072  -25.8849 N.am    1  UNL1       -0.2827
     30 C         -63.2214  -48.6221  -27.3089 C.2     1  UNL1        0.2443
     31 O         -63.7882  -49.6390  -27.7955 O.2     1  UNL1       -0.2730
     32 H         -62.9760  -47.5510  -25.4785 H       1  UNL1        0.1549
     33 C         -62.1124  -49.8148  -24.0073 C.ar    1  UNL1        0.0399
     34 C         -62.1507  -50.9668  -23.2044 C.ar    1  UNL1        0.0982
     35 N         -63.1387  -51.8853  -23.3639 N.ar    1  UNL1       -0.2425
     36 C         -64.1098  -51.7335  -24.2995 C.ar    1  UNL1        0.1001
     37 C         -64.1103  -50.6160  -25.1332 C.ar    1  UNL1        0.0351
     38 C         -63.1103  -49.6385  -24.9940 C.ar    1  UNL1        0.0517
     39 C         -61.0001  -48.8169  -23.8192 C.3     1  UNL1        0.1715
     40 C         -60.4575  -47.6447  -21.9127 C.3     1  UNL1        0.1746
     41 O         -60.5064  -48.9247  -22.5011 O.3     1  UNL1       -0.3462
     42 C         -63.7250  -47.3323  -29.4818 C.3     1  UNL1        0.0569
     43 C         -64.1327  -45.9232  -29.8189 C.ar    1  UNL1       -0.0017
     44 C         -65.4184  -45.3910  -29.7602 C.ar    1  UNL1        0.0681
     45 N         -65.4055  -44.0818  -30.0977 N.ar    1  UNL1       -0.3523
     46 C         -64.1257  -43.7821  -30.3773 C.ar    1  UNL1        0.0563
     47 C         -63.6127  -42.5424  -30.7565 C.ar    1  UNL1        0.0170
     48 C         -62.2285  -42.4463  -30.9884 C.ar    1  UNL1        0.0015
     49 C         -61.3987  -43.5797  -30.8441 C.ar    1  UNL1        0.0001
     50 C         -61.9452  -44.8188  -30.4656 C.ar    1  UNL1        0.0012
     51 C         -63.3194  -44.8820  -30.2301 C.ar    1  UNL1        0.0131
     52 H         -66.2263  -43.4370  -30.1304 H       1  UNL1        0.1660
@<TRIPOS>BOND
     1    40    41    1
     2    41    39    1
     3    39    33    1
     4    33    34   ar
     5    34    35   ar
     6    35    36   ar
     7    36    37   ar
     8    37    38   ar
     9    38    29    1
    10    29    30   am
    11    30    31    2
    12    30    28    1
    13    28    42    1
    14    42    43    1
    15    43    44   ar
    16    44    45   ar
    17    45    46   ar
    18    46    47   ar
    19    47    48   ar
    20    48    49   ar
    21    49    50   ar
    22    50    51   ar
    23    28     1    1
    24     1     2   am
    25     2     3    2
    26     2     5    1
    27     5     6   ar
    28     6     7   ar
    29     7     8   ar
    30     8    12    1
    31    12    13    1
    32    13    14    1
    33    14    15    1
    34    15    18    1
    35    18    19   ar
    36    19    20   ar
    37    20    21   ar
    38    21    24    1
    39    24    25    1
    40    24    26    1
    41    24    27    1
    42    21    22   ar
    43    22    23   ar
    44    15    16    1
    45    16    17    1
    46     8     9   ar
    47     9    10   ar
    48    10    11    1
    49    38    33   ar
    50    51    43   ar
    51    10     5   ar
    52    51    46   ar
    53    17    12    1
    54    23    18   ar
    55    29    32    1
    56    45    52    1
    57     1     4    1
@<TRIPOS>MOLECULE
*****
 52 57 0 0 0
SMALL
GASTEIGER

@<TRIPOS>ATOM
      1 N         -65.6854  -53.7265  -24.2776 N.am    1  UNL1       -0.2945
      2 C         -64.5575  -53.0886  -23.6498 C.2     1  UNL1        0.2483
      3 O         -63.9563  -53.6676  -22.7042 O.2     1  UNL1       -0.2701
      4 H         -65.9126  -53.4643  -25.2628 H       1  UNL1        0.1501
      5 C         -64.0687  -51.7642  -24.1095 C.ar    1  UNL1        0.0808
      6 C         -64.7661  -51.0860  -25.1242 C.ar    1  UNL1        0.0080
      7 C         -64.3148  -49.8533  -25.6006 C.ar    1  UNL1        0.0148
      8 C         -63.1501  -49.2680  -25.0783 C.ar    1  UNL1        0.0502
      9 C         -62.4433  -49.9499  -24.0733 C.ar    1  UNL1        0.0443
     10 C         -62.8917  -51.1841  -23.5929 C.ar    1  UNL1        0.1457
     11 F         -62.1380  -51.8238  -22.6641 F       1  UNL1       -0.2040
     12 N         -62.6772  -47.9982  -25.5803 N.pl3   1  UNL1       -0.3040
     13 C         -62.2533  -47.8849  -26.9847 C.3     1  UNL1        0.1123
     14 C         -61.3818  -46.6463  -27.2141 C.3     1  UNL1        0.1136
     15 N         -62.0328  -45.4484  -26.6643 N.pl3   1  UNL1       -0.2897
     16 C         -62.7631  -45.5363  -25.3883 C.3     1  UNL1        0.1136
     17 C         -62.4956  -46.8615  -24.6665 C.3     1  UNL1        0.1123
     18 C         -61.8349  -44.1688  -27.3075 C.ar    1  UNL1        0.1318
     19 C         -60.6687  -43.4134  -27.0933 C.ar    1  UNL1        0.0343
     20 C         -60.5151  -42.1826  -27.7333 C.ar    1  UNL1        0.0083
     21 C         -61.5265  -41.6890  -28.5700 C.ar    1  UNL1        0.0906
     22 C         -62.6655  -42.4816  -28.7764 C.ar    1  UNL1        0.1041
     23 N         -62.7921  -43.6780  -28.1444 N.ar    1  UNL1       -0.2292
     24 C         -61.3505  -40.3851  -29.3058 C.3     1  UNL1        0.4200
     25 F         -61.2712  -40.6015  -30.6707 F       1  UNL1       -0.1658
     26 F         -62.4191  -39.5395  -29.0629 F       1  UNL1       -0.1658
     27 F         -60.1865  -39.7746  -28.8780 F       1  UNL1       -0.1658
     28 C         -66.5128  -54.7761  -23.6591 C.3     1  UNL1        0.1535
     29 N         -68.2205  -54.9773  -21.7623 N.am    1  UNL1       -0.2827
     30 C         -67.6383  -54.2032  -22.8227 C.2     1  UNL1        0.2443
     31 O         -67.9765  -52.9965  -22.9696 O.2     1  UNL1       -0.2730
     32 H         -67.6862  -55.8002  -21.4067 H       1  UNL1        0.1549
     33 C         -69.5106  -53.8181  -19.9867 C.ar    1  UNL1        0.0399
     34 C         -70.7489  -53.5708  -19.3712 C.ar    1  UNL1        0.0982
     35 N         -71.8903  -54.1007  -19.8822 N.ar    1  UNL1       -0.2425
     36 C         -71.8792  -54.8878  -20.9875 C.ar    1  UNL1        0.1001
     37 C         -70.6755  -55.1776  -21.6286 C.ar    1  UNL1        0.0351
     38 C         -69.4735  -54.6414  -21.1361 C.ar    1  UNL1        0.0517
     39 C         -68.2575  -53.2288  -19.3941 C.3     1  UNL1        0.1715
     40 C         -67.6498  -55.0779  -18.1635 C.3     1  UNL1        0.1746
     41 O         -67.2952  -54.2513  -19.2489 O.3     1  UNL1       -0.3462
     42 C         -66.9614  -55.8344  -24.6988 C.3     1  UNL1        0.0569
     43 C         -67.6982  -55.2761  -25.8865 C.ar    1  UNL1       -0.0017
     44 C         -67.1571  -54.9629  -27.1311 C.ar    1  UNL1        0.0681
     45 N         -68.1208  -54.5182  -27.9688 N.ar    1  UNL1       -0.3523
     46 C         -69.2650  -54.5393  -27.2644 C.ar    1  UNL1        0.0563
     47 C         -70.5376  -54.1854  -27.7109 C.ar    1  UNL1        0.0170
     48 C         -71.6075  -54.2975  -26.8045 C.ar    1  UNL1        0.0015
     49 C         -71.3833  -54.7491  -25.4856 C.ar    1  UNL1        0.0001
     50 C         -70.0876  -55.0939  -25.0615 C.ar    1  UNL1        0.0012
     51 C         -69.0473  -54.9847  -25.9855 C.ar    1  UNL1        0.0131
     52 H         -67.9967  -54.2222  -28.9625 H       1  UNL1        0.1660
@<TRIPOS>BOND
     1    40    41    1
     2    41    39    1
     3    39    33    1
     4    33    34   ar
     5    34    35   ar
     6    35    36   ar
     7    36    37   ar
     8    37    38   ar
     9    38    29    1
    10    29    30   am
    11    30    31    2
    12    30    28    1
    13    28    42    1
    14    42    43    1
    15    43    44   ar
    16    44    45   ar
    17    45    46   ar
    18    46    47   ar
    19    47    48   ar
    20    48    49   ar
    21    49    50   ar
    22    50    51   ar
    23    28     1    1
    24     1     2   am
    25     2     3    2
    26     2     5    1
    27     5     6   ar
    28     6     7   ar
    29     7     8   ar
    30     8    12    1
    31    12    13    1
    32    13    14    1
    33    14    15    1
    34    15    18    1
    35    18    19   ar
    36    19    20   ar
    37    20    21   ar
    38    21    24    1
    39    24    25    1
    40    24    26    1
    41    24    27    1
    42    21    22   ar
    43    22    23   ar
    44    15    16    1
    45    16    17    1
    46     8     9   ar
    47     9    10   ar
    48    10    11    1
    49    38    33   ar
    50    51    43   ar
    51    10     5   ar
    52    51    46   ar
    53    17    12    1
    54    23    18   ar
    55    29    32    1
    56    45    52    1
    57     1     4    1
@<TRIPOS>MOLECULE
*****
 52 57 0 0 0
SMALL
GASTEIGER

@<TRIPOS>ATOM
      1 N         -65.3426  -53.7471  -22.8971 N.am    1  UNL1       -0.2945
      2 C         -63.9702  -53.3119  -22.8844 C.2     1  UNL1        0.2483
      3 O         -63.0843  -54.0470  -22.3688 O.2     1  UNL1       -0.2701
      4 H         -65.9722  -53.3658  -23.6383 H       1  UNL1        0.1501
      5 C         -63.5681  -52.0173  -23.4898 C.ar    1  UNL1        0.0808
      6 C         -64.3495  -51.4654  -24.5198 C.ar    1  UNL1        0.0080
      7 C         -63.9814  -50.2651  -25.1313 C.ar    1  UNL1        0.0148
      8 C         -62.8184  -49.5867  -24.7324 C.ar    1  UNL1        0.0502
      9 C         -62.0281  -50.1427  -23.7122 C.ar    1  UNL1        0.0443
     10 C         -62.3929  -51.3440  -23.0967 C.ar    1  UNL1        0.1457
     11 F         -61.5617  -51.8633  -22.1588 F       1  UNL1       -0.2040
     12 N         -62.4320  -48.3510  -25.3740 N.pl3   1  UNL1       -0.3040
     13 C         -62.3023  -48.3028  -26.8389 C.3     1  UNL1        0.1123
     14 C         -61.4707  -47.0996  -27.2936 C.3     1  UNL1        0.1136
     15 N         -61.9702  -45.8636  -26.6744 N.pl3   1  UNL1       -0.2897
     16 C         -62.4255  -45.8821  -25.2738 C.3     1  UNL1        0.1136
     17 C         -62.0435  -47.1866  -24.5657 C.3     1  UNL1        0.1123
     18 C         -61.8816  -44.6153  -27.3985 C.ar    1  UNL1        0.1318
     19 C         -60.7836  -44.3250  -28.2271 C.ar    1  UNL1        0.0343
     20 C         -60.7354  -43.1087  -28.9099 C.ar    1  UNL1        0.0083
     21 C         -61.7652  -42.1693  -28.7557 C.ar    1  UNL1        0.0906
     22 C         -62.8547  -42.5042  -27.9377 C.ar    1  UNL1        0.1041
     23 N         -62.8811  -43.6957  -27.2847 N.ar    1  UNL1       -0.2292
     24 C         -61.7489  -40.8739  -29.5265 C.3     1  UNL1        0.4200
     25 F         -62.9615  -40.2177  -29.4041 F       1  UNL1       -0.1658
     26 F         -60.7537  -40.0366  -29.0528 F       1  UNL1       -0.1658
     27 F         -61.5144  -41.1418  -30.8621 F       1  UNL1       -0.1658
     28 C         -65.9195  -54.7450  -21.9805 C.3     1  UNL1        0.1535
     29 N         -67.5030  -54.5389  -19.9794 N.am    1  UNL1       -0.2827
     30 C         -67.2200  -54.2747  -21.3624 C.2     1  UNL1        0.2443
     31 O         -67.9977  -53.5352  -22.0260 O.2     1  UNL1       -0.2730
     32 H         -66.7067  -54.8018  -19.3583 H       1  UNL1        0.1549
     33 C         -69.1269  -55.0095  -18.1621 C.ar    1  UNL1        0.0399
     34 C         -70.4391  -54.9100  -17.6707 C.ar    1  UNL1        0.0982
     35 N         -71.3870  -54.2329  -18.3694 N.ar    1  UNL1       -0.2425
     36 C         -71.1103  -53.6416  -19.5590 C.ar    1  UNL1        0.1001
     37 C         -69.8278  -53.7228  -20.0997 C.ar    1  UNL1        0.0351
     38 C         -68.8168  -54.4070  -19.4035 C.ar    1  UNL1        0.0517
     39 C         -68.0966  -55.7757  -17.3747 C.3     1  UNL1        0.1715
     40 C         -66.3978  -55.4032  -15.8655 C.3     1  UNL1        0.1746
     41 O         -67.0569  -54.8961  -17.0036 O.3     1  UNL1       -0.3462
     42 C         -65.9923  -56.1469  -22.6375 C.3     1  UNL1        0.0569
     43 C         -67.2898  -56.4461  -23.3390 C.ar    1  UNL1       -0.0017
     44 C         -68.3469  -57.2079  -22.8469 C.ar    1  UNL1        0.0681
     45 N         -69.3667  -57.2330  -23.7344 N.ar    1  UNL1       -0.3523
     46 C         -68.9624  -56.5015  -24.7866 C.ar    1  UNL1        0.0563
     47 C         -69.6830  -56.2222  -25.9471 C.ar    1  UNL1        0.0170
     48 C         -69.0702  -55.4168  -26.9242 C.ar    1  UNL1        0.0015
     49 C         -67.7636  -54.9199  -26.7248 C.ar    1  UNL1        0.0001
     50 C         -67.0586  -55.2227  -25.5464 C.ar    1  UNL1        0.0012
     51 C         -67.6958  -56.0135  -24.5891 C.ar    1  UNL1        0.0131
     52 H         -70.2826  -57.7212  -23.6196 H       1  UNL1        0.1660
@<TRIPOS>BOND
     1    40    41    1
     2    41    39    1
     3    39    33    1
     4    33    34   ar
     5    34    35   ar
     6    35    36   ar
     7    36    37   ar
     8    37    38   ar
     9    38    29    1
    10    29    30   am
    11    30    31    2
    12    30    28    1
    13    28    42    1
    14    42    43    1
    15    43    44   ar
    16    44    45   ar
    17    45    46   ar
    18    46    47   ar
    19    47    48   ar
    20    48    49   ar
    21    49    50   ar
    22    50    51   ar
    23    28     1    1
    24     1     2   am
    25     2     3    2
    26     2     5    1
    27     5     6   ar
    28     6     7   ar
    29     7     8   ar
    30     8    12    1
    31    12    13    1
    32    13    14    1
    33    14    15    1
    34    15    18    1
    35    18    19   ar
    36    19    20   ar
    37    20    21   ar
    38    21    24    1
    39    24    25    1
    40    24    26    1
    41    24    27    1
    42    21    22   ar
    43    22    23   ar
    44    15    16    1
    45    16    17    1
    46     8     9   ar
    47     9    10   ar
    48    10    11    1
    49    38    33   ar
    50    51    43   ar
    51    10     5   ar
    52    51    46   ar
    53    17    12    1
    54    23    18   ar
    55    29    32    1
    56    45    52    1
    57     1     4    1
@<TRIPOS>MOLECULE
*****
 52 57 0 0 0
SMALL
GASTEIGER

@<TRIPOS>ATOM
      1 N         -62.4987  -41.3117  -21.1641 N.am    1  UNL1       -0.2945
      2 C         -61.4883  -41.9002  -22.0043 C.2     1  UNL1        0.2483
      3 O         -60.2775  -41.8548  -21.6539 O.2     1  UNL1       -0.2701
      4 H         -63.4726  -41.6832  -21.2329 H       1  UNL1        0.1501
      5 C         -61.8453  -42.5846  -23.2725 C.ar    1  UNL1        0.0808
      6 C         -62.5808  -41.8892  -24.2479 C.ar    1  UNL1        0.0080
      7 C         -62.9592  -42.5142  -25.4381 C.ar    1  UNL1        0.0148
      8 C         -62.6164  -43.8538  -25.6825 C.ar    1  UNL1        0.0502
      9 C         -61.8926  -44.5555  -24.7035 C.ar    1  UNL1        0.0443
     10 C         -61.5112  -43.9338  -23.5107 C.ar    1  UNL1        0.1457
     11 F         -60.8650  -44.6766  -22.5775 F       1  UNL1       -0.2040
     12 N         -63.0187  -44.5032  -26.9090 N.pl3   1  UNL1       -0.3040
     13 C         -63.1572  -45.9676  -26.9439 C.3     1  UNL1        0.1123
     14 C         -63.1379  -46.5033  -28.3787 C.3     1  UNL1        0.1136
     15 N         -64.0975  -45.7697  -29.2164 N.pl3   1  UNL1       -0.2897
     16 C         -64.2594  -44.3167  -29.0377 C.3     1  UNL1        0.1136
     17 C         -63.1617  -43.7244  -28.1472 C.3     1  UNL1        0.1123
     18 C         -64.7708  -46.4535  -30.2977 C.ar    1  UNL1        0.1318
     19 C         -65.1474  -45.7767  -31.4711 C.ar    1  UNL1        0.0343
     20 C         -65.7954  -46.4727  -32.4928 C.ar    1  UNL1        0.0083
     21 C         -66.0901  -47.8356  -32.3440 C.ar    1  UNL1        0.0906
     22 C         -65.6790  -48.4812  -31.1683 C.ar    1  UNL1        0.1041
     23 N         -65.0471  -47.7836  -30.1881 N.ar    1  UNL1       -0.2292
     24 C         -66.7445  -48.6092  -33.4603 C.3     1  UNL1        0.4200
     25 F         -65.9010  -48.6952  -34.5545 F       1  UNL1       -0.1658
     26 F         -67.0519  -49.8944  -33.0486 F       1  UNL1       -0.1658
     27 F         -67.9084  -47.9666  -33.8381 F       1  UNL1       -0.1658
     28 C         -62.2545  -40.2626  -20.1598 C.3     1  UNL1        0.1535
     29 N         -63.3270  -38.0739  -19.3765 N.am    1  UNL1       -0.2827
     30 C         -63.0538  -39.0056  -20.4347 C.2     1  UNL1        0.2443
     31 O         -63.3674  -38.7093  -21.6204 O.2     1  UNL1       -0.2730
     32 H         -62.7475  -38.1328  -18.5106 H       1  UNL1        0.1549
     33 C         -63.9888  -35.6876  -19.2068 C.ar    1  UNL1        0.0399
     34 C         -65.0048  -34.7185  -19.2522 C.ar    1  UNL1        0.0982
     35 N         -66.2789  -35.0702  -19.5650 N.ar    1  UNL1       -0.2425
     36 C         -66.6188  -36.3563  -19.8332 C.ar    1  UNL1        0.1001
     37 C         -65.6523  -37.3601  -19.7872 C.ar    1  UNL1        0.0351
     38 C         -64.3207  -37.0358  -19.4759 C.ar    1  UNL1        0.0517
     39 C         -62.5861  -35.2745  -18.8459 C.3     1  UNL1        0.1715
     40 C         -61.7258  -35.1393  -20.9776 C.3     1  UNL1        0.1746
     41 O         -61.6867  -35.8568  -19.7649 O.3     1  UNL1       -0.3462
     42 C         -62.3981  -40.8107  -18.7171 C.3     1  UNL1        0.0569
     43 C         -63.6689  -41.5744  -18.4580 C.ar    1  UNL1       -0.0017
     44 C         -64.7253  -41.1814  -17.6399 C.ar    1  UNL1        0.0681
     45 N         -65.7182  -42.0985  -17.6743 N.ar    1  UNL1       -0.3523
     46 C         -65.2974  -43.0719  -18.4997 C.ar    1  UNL1        0.0563
     47 C         -65.9891  -44.2258  -18.8656 C.ar    1  UNL1        0.0170
     48 C         -65.3635  -45.1116  -19.7615 C.ar    1  UNL1        0.0015
     49 C         -64.0727  -44.8309  -20.2607 C.ar    1  UNL1        0.0001
     50 C         -63.3967  -43.6616  -19.8696 C.ar    1  UNL1        0.0012
     51 C         -64.0465  -42.7949  -18.9895 C.ar    1  UNL1        0.0131
     52 H         -66.6278  -42.0538  -17.1632 H       1  UNL1        0.1660
@<TRIPOS>BOND
     1    40    41    1
     2    41    39    1
     3    39    33    1
     4    33    34   ar
     5    34    35   ar
     6    35    36   ar
     7    36    37   ar
     8    37    38   ar
     9    38    29    1
    10    29    30   am
    11    30    31    2
    12    30    28    1
    13    28    42    1
    14    42    43    1
    15    43    44   ar
    16    44    45   ar
    17    45    46   ar
    18    46    47   ar
    19    47    48   ar
    20    48    49   ar
    21    49    50   ar
    22    50    51   ar
    23    28     1    1
    24     1     2   am
    25     2     3    2
    26     2     5    1
    27     5     6   ar
    28     6     7   ar
    29     7     8   ar
    30     8    12    1
    31    12    13    1
    32    13    14    1
    33    14    15    1
    34    15    18    1
    35    18    19   ar
    36    19    20   ar
    37    20    21   ar
    38    21    24    1
    39    24    25    1
    40    24    26    1
    41    24    27    1
    42    21    22   ar
    43    22    23   ar
    44    15    16    1
    45    16    17    1
    46     8     9   ar
    47     9    10   ar
    48    10    11    1
    49    38    33   ar
    50    51    43   ar
    51    10     5   ar
    52    51    46   ar
    53    17    12    1
    54    23    18   ar
    55    29    32    1
    56    45    52    1
    57     1     4    1
@<TRIPOS>MOLECULE
*****
 52 57 0 0 0
SMALL
GASTEIGER

@<TRIPOS>ATOM
      1 N         -62.3072  -46.6146  -26.5405 N.am    1  UNL1       -0.2945
      2 C         -61.5546  -46.4058  -25.3309 C.2     1  UNL1        0.2483
      3 O         -60.6420  -47.2163  -25.0127 O.2     1  UNL1       -0.2701
      4 H         -62.7478  -45.7836  -26.9947 H       1  UNL1        0.1501
      5 C         -61.8157  -45.2360  -24.4547 C.ar    1  UNL1        0.0808
      6 C         -62.0485  -45.4398  -23.0835 C.ar    1  UNL1        0.0080
      7 C         -62.3278  -44.3638  -22.2383 C.ar    1  UNL1        0.0148
      8 C         -62.3870  -43.0548  -22.7432 C.ar    1  UNL1        0.0502
      9 C         -62.1679  -42.8494  -24.1159 C.ar    1  UNL1        0.0443
     10 C         -61.8874  -43.9236  -24.9658 C.ar    1  UNL1        0.1457
     11 F         -61.7424  -43.6730  -26.2911 F       1  UNL1       -0.2040
     12 N         -62.6880  -41.9435  -21.8701 N.pl3   1  UNL1       -0.3040
     13 C         -61.7428  -40.8201  -21.7719 C.3     1  UNL1        0.1123
     14 C         -61.9826  -39.9882  -20.5085 C.3     1  UNL1        0.1136
     15 N         -63.4005  -39.6169  -20.3966 N.pl3   1  UNL1       -0.2897
     16 C         -64.4406  -40.5883  -20.7757 C.3     1  UNL1        0.1136
     17 C         -63.8623  -41.9917  -20.9875 C.3     1  UNL1        0.1123
     18 C         -63.7632  -38.3568  -19.7876 C.ar    1  UNL1        0.1318
     19 C         -63.0963  -37.1641  -20.1180 C.ar    1  UNL1        0.0343
     20 C         -63.4766  -35.9677  -19.5082 C.ar    1  UNL1        0.0083
     21 C         -64.5044  -35.9552  -18.5541 C.ar    1  UNL1        0.0906
     22 C         -65.1609  -37.1614  -18.2671 C.ar    1  UNL1        0.1041
     23 N         -64.7749  -38.3137  -18.8753 N.ar    1  UNL1       -0.2292
     24 C         -64.9575  -34.6620  -17.9259 C.3     1  UNL1        0.4200
     25 F         -66.1100  -34.1996  -18.5374 F       1  UNL1       -0.1658
     26 F         -65.2236  -34.8404  -16.5793 F       1  UNL1       -0.1658
     27 F         -63.9614  -33.7140  -18.0665 F       1  UNL1       -0.1658
     28 C         -62.4531  -47.9075  -27.2305 C.3     1  UNL1        0.1535
     29 N         -62.4472  -49.2703  -25.0632 N.am    1  UNL1       -0.2827
     30 C         -63.0471  -48.9743  -26.3341 C.2     1  UNL1        0.2443
     31 O         -64.1459  -49.5119  -26.6432 O.2     1  UNL1       -0.2730
     32 H         -61.7882  -48.5699  -24.6579 H       1  UNL1        0.1549
     33 C         -61.8530  -50.9390  -23.3244 C.ar    1  UNL1        0.0399
     34 C         -62.1608  -52.1348  -22.6547 C.ar    1  UNL1        0.0982
     35 N         -63.3094  -52.8043  -22.9329 N.ar    1  UNL1       -0.2425
     36 C         -64.1892  -52.3559  -23.8636 C.ar    1  UNL1        0.1001
     37 C         -63.9252  -51.1823  -24.5685 C.ar    1  UNL1        0.0351
     38 C         -62.7517  -50.4558  -24.3037 C.ar    1  UNL1        0.0517
     39 C         -60.5675  -50.2213  -23.0067 C.3     1  UNL1        0.1715
     40 C         -60.6723  -48.5371  -21.4397 C.3     1  UNL1        0.1746
     41 O         -60.5363  -49.9277  -21.6263 O.3     1  UNL1       -0.3462
     42 C         -63.1684  -47.7467  -28.5961 C.3     1  UNL1        0.0569
     43 C         -63.0051  -46.3943  -29.2362 C.ar    1  UNL1       -0.0017
     44 C         -61.8229  -45.8375  -29.7178 C.ar    1  UNL1        0.0681
     45 N         -62.0582  -44.6217  -30.2608 N.ar    1  UNL1       -0.3523
     46 C         -63.3761  -44.4001  -30.1204 C.ar    1  UNL1        0.0563
     47 C         -64.0942  -43.2834  -30.5461 C.ar    1  UNL1        0.0170
     48 C         -65.4806  -43.2631  -30.3086 C.ar    1  UNL1        0.0015
     49 C         -66.1098  -44.3436  -29.6526 C.ar    1  UNL1        0.0001
     50 C         -65.3589  -45.4547  -29.2294 C.ar    1  UNL1        0.0012
     51 C         -63.9876  -45.4533  -29.4893 C.ar    1  UNL1        0.0131
     52 H         -61.3551  -43.9879  -30.7018 H       1  UNL1        0.1660
@<TRIPOS>BOND
     1    40    41    1
     2    41    39    1
     3    39    33    1
     4    33    34   ar
     5    34    35   ar
     6    35    36   ar
     7    36    37   ar
     8    37    38   ar
     9    38    29    1
    10    29    30   am
    11    30    31    2
    12    30    28    1
    13    28    42    1
    14    42    43    1
    15    43    44   ar
    16    44    45   ar
    17    45    46   ar
    18    46    47   ar
    19    47    48   ar
    20    48    49   ar
    21    49    50   ar
    22    50    51   ar
    23    28     1    1
    24     1     2   am
    25     2     3    2
    26     2     5    1
    27     5     6   ar
    28     6     7   ar
    29     7     8   ar
    30     8    12    1
    31    12    13    1
    32    13    14    1
    33    14    15    1
    34    15    18    1
    35    18    19   ar
    36    19    20   ar
    37    20    21   ar
    38    21    24    1
    39    24    25    1
    40    24    26    1
    41    24    27    1
    42    21    22   ar
    43    22    23   ar
    44    15    16    1
    45    16    17    1
    46     8     9   ar
    47     9    10   ar
    48    10    11    1
    49    38    33   ar
    50    51    43   ar
    51    10     5   ar
    52    51    46   ar
    53    17    12    1
    54    23    18   ar
    55    29    32    1
    56    45    52    1
    57     1     4    1
@<TRIPOS>MOLECULE
*****
 52 57 0 0 0
SMALL
GASTEIGER

@<TRIPOS>ATOM
      1 N         -62.2173  -46.7830  -26.2829 N.am    1  UNL1       -0.2945
      2 C         -61.5164  -46.5824  -25.0413 C.2     1  UNL1        0.2483
      3 O         -60.7156  -47.4633  -24.6243 O.2     1  UNL1       -0.2701
      4 H         -62.5396  -45.9390  -26.8072 H       1  UNL1        0.1501
      5 C         -61.6994  -45.3420  -24.2463 C.ar    1  UNL1        0.0808
      6 C         -62.2824  -45.4210  -22.9696 C.ar    1  UNL1        0.0080
      7 C         -62.4969  -44.2694  -22.2094 C.ar    1  UNL1        0.0148
      8 C         -62.1387  -43.0065  -22.7081 C.ar    1  UNL1        0.0502
      9 C         -61.5680  -42.9230  -23.9895 C.ar    1  UNL1        0.0443
     10 C         -61.3509  -44.0733  -24.7540 C.ar    1  UNL1        0.1457
     11 F         -60.8509  -43.9270  -26.0065 F       1  UNL1       -0.2040
     12 N         -62.3722  -41.8143  -21.9257 N.pl3   1  UNL1       -0.3040
     13 C         -62.4111  -40.5036  -22.5932 C.3     1  UNL1        0.1123
     14 C         -62.2122  -39.3563  -21.5981 C.3     1  UNL1        0.1136
     15 N         -63.1279  -39.4984  -20.4570 N.pl3   1  UNL1       -0.2897
     16 C         -63.4010  -40.8357  -19.9035 C.3     1  UNL1        0.1136
     17 C         -62.4396  -41.8918  -20.4596 C.3     1  UNL1        0.1123
     18 C         -63.6428  -38.3166  -19.8025 C.ar    1  UNL1        0.1318
     19 C         -64.7917  -38.3682  -18.9939 C.ar    1  UNL1        0.0343
     20 C         -65.2569  -37.2050  -18.3787 C.ar    1  UNL1        0.0083
     21 C         -64.5964  -35.9846  -18.5814 C.ar    1  UNL1        0.0906
     22 C         -63.4409  -35.9772  -19.3769 C.ar    1  UNL1        0.1041
     23 N         -63.0051  -37.1229  -19.9637 N.ar    1  UNL1       -0.2292
     24 C         -65.0598  -34.7318  -17.8826 C.3     1  UNL1        0.4200
     25 F         -64.1184  -33.7251  -18.0100 F       1  UNL1       -0.1658
     26 F         -66.2508  -34.2821  -18.4258 F       1  UNL1       -0.1658
     27 F         -65.2506  -35.0031  -16.5408 F       1  UNL1       -0.1658
     28 C         -62.4619  -48.0922  -26.9115 C.3     1  UNL1        0.1535
     29 N         -62.2520  -49.6877  -24.9203 N.am    1  UNL1       -0.2827
     30 C         -63.0631  -49.0913  -25.9446 C.2     1  UNL1        0.2443
     31 O         -64.3072  -49.3013  -25.9535 O.2     1  UNL1       -0.2730
     32 H         -61.3461  -49.2271  -24.6830 H       1  UNL1        0.1549
     33 C         -61.8239  -51.3837  -23.1593 C.ar    1  UNL1        0.0399
     34 C         -62.2252  -52.5593  -22.5034 C.ar    1  UNL1        0.0982
     35 N         -63.3968  -53.1645  -22.8292 N.ar    1  UNL1       -0.2425
     36 C         -64.2111  -52.6695  -23.7953 C.ar    1  UNL1        0.1001
     37 C         -63.8533  -51.5137  -24.4881 C.ar    1  UNL1        0.0351
     38 C         -62.6532  -50.8530  -24.1746 C.ar    1  UNL1        0.0517
     39 C         -60.5147  -50.7379  -22.7883 C.3     1  UNL1        0.1715
     40 C         -60.6447  -48.8236  -21.5150 C.3     1  UNL1        0.1746
     41 O         -60.6100  -50.2322  -21.4739 O.3     1  UNL1       -0.3462
     42 C         -63.2355  -47.9473  -28.2468 C.3     1  UNL1        0.0569
     43 C         -63.3915  -46.5314  -28.7327 C.ar    1  UNL1       -0.0017
     44 C         -64.5872  -45.8682  -28.9977 C.ar    1  UNL1        0.0681
     45 N         -64.3478  -44.5942  -29.3821 N.ar    1  UNL1       -0.3523
     46 C         -63.0121  -44.4469  -29.3708 C.ar    1  UNL1        0.0563
     47 C         -62.2874  -43.2957  -29.6767 C.ar    1  UNL1        0.0170
     48 C         -60.8850  -43.3576  -29.5857 C.ar    1  UNL1        0.0015
     49 C         -60.2454  -44.5566  -29.2018 C.ar    1  UNL1        0.0001
     50 C         -61.0022  -45.7038  -28.9044 C.ar    1  UNL1        0.0012
     51 C         -62.3921  -45.6100  -28.9911 C.ar    1  UNL1        0.0131
     52 H         -65.0602  -43.8732  -29.6333 H       1  UNL1        0.1660
@<TRIPOS>BOND
     1    40    41    1
     2    41    39    1
     3    39    33    1
     4    33    34   ar
     5    34    35   ar
     6    35    36   ar
     7    36    37   ar
     8    37    38   ar
     9    38    29    1
    10    29    30   am
    11    30    31    2
    12    30    28    1
    13    28    42    1
    14    42    43    1
    15    43    44   ar
    16    44    45   ar
    17    45    46   ar
    18    46    47   ar
    19    47    48   ar
    20    48    49   ar
    21    49    50   ar
    22    50    51   ar
    23    28     1    1
    24     1     2   am
    25     2     3    2
    26     2     5    1
    27     5     6   ar
    28     6     7   ar
    29     7     8   ar
    30     8    12    1
    31    12    13    1
    32    13    14    1
    33    14    15    1
    34    15    18    1
    35    18    19   ar
    36    19    20   ar
    37    20    21   ar
    38    21    24    1
    39    24    25    1
    40    24    26    1
    41    24    27    1
    42    21    22   ar
    43    22    23   ar
    44    15    16    1
    45    16    17    1
    46     8     9   ar
    47     9    10   ar
    48    10    11    1
    49    38    33   ar
    50    51    43   ar
    51    10     5   ar
    52    51    46   ar
    53    17    12    1
    54    23    18   ar
    55    29    32    1
    56    45    52    1
    57     1     4    1
@<TRIPOS>MOLECULE
*****
 52 57 0 0 0
SMALL
GASTEIGER

@<TRIPOS>ATOM
      1 N         -67.6174  -55.9997  -24.0544 N.am    1  UNL1       -0.2945
      2 C         -66.4040  -55.9800  -23.2795 C.2     1  UNL1        0.2483
      3 O         -66.0720  -56.9955  -22.6091 O.2     1  UNL1       -0.2701
      4 H         -67.6822  -55.3657  -24.8821 H       1  UNL1        0.1501
      5 C         -65.5165  -54.7899  -23.2702 C.ar    1  UNL1        0.0808
      6 C         -65.8023  -53.7098  -24.1233 C.ar    1  UNL1        0.0080
      7 C         -64.9698  -52.5892  -24.1611 C.ar    1  UNL1        0.0148
      8 C         -63.8256  -52.5209  -23.3498 C.ar    1  UNL1        0.0502
      9 C         -63.5301  -53.6047  -22.5057 C.ar    1  UNL1        0.0443
     10 C         -64.3608  -54.7286  -22.4642 C.ar    1  UNL1        0.1457
     11 F         -63.9949  -55.7688  -21.6743 F       1  UNL1       -0.2040
     12 N         -62.9584  -51.3662  -23.3985 N.pl3   1  UNL1       -0.3040
     13 C         -63.3863  -50.1669  -24.1358 C.3     1  UNL1        0.1123
     14 C         -62.2026  -49.2511  -24.4617 C.3     1  UNL1        0.1136
     15 N         -61.4078  -48.9857  -23.2539 N.pl3   1  UNL1       -0.2897
     16 C         -61.1804  -50.0658  -22.2788 C.3     1  UNL1        0.1136
     17 C         -61.6049  -51.4317  -22.8293 C.3     1  UNL1        0.1123
     18 C         -60.7430  -47.7109  -23.1020 C.ar    1  UNL1        0.1318
     19 C         -59.3761  -47.5578  -23.3929 C.ar    1  UNL1        0.0343
     20 C         -58.7709  -46.3102  -23.2338 C.ar    1  UNL1        0.0083
     21 C         -59.5149  -45.2175  -22.7657 C.ar    1  UNL1        0.0906
     22 C         -60.8811  -45.4040  -22.5073 C.ar    1  UNL1        0.1041
     23 N         -61.4492  -46.6275  -22.6719 N.ar    1  UNL1       -0.2292
     24 C         -58.8848  -43.8539  -22.6377 C.3     1  UNL1        0.4200
     25 F         -59.3487  -43.2061  -21.5057 F       1  UNL1       -0.1658
     26 F         -57.5080  -43.9595  -22.5425 F       1  UNL1       -0.1658
     27 F         -59.2030  -43.0991  -23.7510 F       1  UNL1       -0.1658
     28 C         -68.7598  -56.8964  -23.8101 C.3     1  UNL1        0.1535
     29 N         -70.5610  -55.6305  -22.5033 N.am    1  UNL1       -0.2827
     30 C         -69.4781  -56.5737  -22.5161 C.2     1  UNL1        0.2443
     31 O         -69.2139  -57.2313  -21.4721 O.2     1  UNL1       -0.2730
     32 H         -71.0135  -55.3923  -23.4131 H       1  UNL1        0.1549
     33 C         -70.3360  -54.0777  -20.5800 C.ar    1  UNL1        0.0399
     34 C         -70.8544  -53.5808  -19.3727 C.ar    1  UNL1        0.0982
     35 N         -72.0580  -54.0094  -18.9114 N.ar    1  UNL1       -0.2425
     36 C         -72.7935  -54.9299  -19.5845 C.ar    1  UNL1        0.1001
     37 C         -72.3187  -55.4670  -20.7803 C.ar    1  UNL1        0.0351
     38 C         -71.0818  -55.0431  -21.2956 C.ar    1  UNL1        0.0517
     39 C         -68.9939  -53.5956  -21.0645 C.3     1  UNL1        0.1715
     40 C         -67.3682  -54.6634  -19.8316 C.3     1  UNL1        0.1746
     41 O         -68.1230  -53.4797  -19.9597 O.3     1  UNL1       -0.3462
     42 C         -69.6848  -56.9913  -25.0501 C.3     1  UNL1        0.0569
     43 C         -69.9571  -55.6783  -25.7336 C.ar    1  UNL1       -0.0017
     44 C         -69.0232  -54.8527  -26.3549 C.ar    1  UNL1        0.0681
     45 N         -69.6306  -53.7721  -26.8949 N.ar    1  UNL1       -0.3523
     46 C         -70.9385  -53.9015  -26.6146 C.ar    1  UNL1        0.0563
     47 C         -71.9698  -53.0385  -26.9825 C.ar    1  UNL1        0.0170
     48 C         -73.2793  -53.3749  -26.5938 C.ar    1  UNL1        0.0015
     49 C         -73.5249  -54.5491  -25.8490 C.ar    1  UNL1        0.0001
     50 C         -72.4638  -55.3980  -25.4873 C.ar    1  UNL1        0.0012
     51 C         -71.1769  -55.0459  -25.8971 C.ar    1  UNL1        0.0131
     52 H         -69.1723  -52.9976  -27.4245 H       1  UNL1        0.1660
@<TRIPOS>BOND
     1    40    41    1
     2    41    39    1
     3    39    33    1
     4    33    34   ar
     5    34    35   ar
     6    35    36   ar
     7    36    37   ar
     8    37    38   ar
     9    38    29    1
    10    29    30   am
    11    30    31    2
    12    30    28    1
    13    28    42    1
    14    42    43    1
    15    43    44   ar
    16    44    45   ar
    17    45    46   ar
    18    46    47   ar
    19    47    48   ar
    20    48    49   ar
    21    49    50   ar
    22    50    51   ar
    23    28     1    1
    24     1     2   am
    25     2     3    2
    26     2     5    1
    27     5     6   ar
    28     6     7   ar
    29     7     8   ar
    30     8    12    1
    31    12    13    1
    32    13    14    1
    33    14    15    1
    34    15    18    1
    35    18    19   ar
    36    19    20   ar
    37    20    21   ar
    38    21    24    1
    39    24    25    1
    40    24    26    1
    41    24    27    1
    42    21    22   ar
    43    22    23   ar
    44    15    16    1
    45    16    17    1
    46     8     9   ar
    47     9    10   ar
    48    10    11    1
    49    38    33   ar
    50    51    43   ar
    51    10     5   ar
    52    51    46   ar
    53    17    12    1
    54    23    18   ar
    55    29    32    1
    56    45    52    1
    57     1     4    1
@<TRIPOS>MOLECULE
*****
 52 57 0 0 0
SMALL
GASTEIGER

@<TRIPOS>ATOM
      1 N         -64.6730  -39.4583  -20.5478 N.am    1  UNL1       -0.2945
      2 C         -65.6160  -39.7774  -21.5880 C.2     1  UNL1        0.2483
      3 O         -66.8468  -39.5733  -21.4023 O.2     1  UNL1       -0.2701
      4 H         -63.6884  -39.2468  -20.8252 H       1  UNL1        0.1501
      5 C         -65.1662  -40.3243  -22.8929 C.ar    1  UNL1        0.0808
      6 C         -64.1512  -41.2965  -22.9201 C.ar    1  UNL1        0.0080
      7 C         -63.6839  -41.8082  -24.1326 C.ar    1  UNL1        0.0148
      8 C         -64.2160  -41.3572  -25.3514 C.ar    1  UNL1        0.0502
      9 C         -65.2214  -40.3758  -25.3279 C.ar    1  UNL1        0.0443
     10 C         -65.6927  -39.8609  -24.1164 C.ar    1  UNL1        0.1457
     11 F         -66.6224  -38.8739  -24.1564 F       1  UNL1       -0.2040
     12 N         -63.7235  -41.8784  -26.6058 N.pl3   1  UNL1       -0.3040
     13 C         -64.1033  -41.2195  -27.8654 C.3     1  UNL1        0.1123
     14 C         -63.8842  -42.1372  -29.0720 C.3     1  UNL1        0.1136
     15 N         -62.5266  -42.7006  -29.0519 N.pl3   1  UNL1       -0.2897
     16 C         -61.9263  -43.1106  -27.7709 C.3     1  UNL1        0.1136
     17 C         -62.9574  -43.1324  -26.6373 C.3     1  UNL1        0.1123
     18 C         -61.8482  -42.9747  -30.2988 C.ar    1  UNL1        0.1318
     19 C         -62.4210  -42.6309  -31.5359 C.ar    1  UNL1        0.0343
     20 C         -61.7339  -42.9120  -32.7177 C.ar    1  UNL1        0.0083
     21 C         -60.4876  -43.5536  -32.6762 C.ar    1  UNL1        0.0906
     22 C         -59.9386  -43.8610  -31.4223 C.ar    1  UNL1        0.1041
     23 N         -60.6249  -43.5755  -30.2847 N.ar    1  UNL1       -0.2292
     24 C         -59.7135  -43.8172  -33.9427 C.3     1  UNL1        0.4200
     25 F         -60.5731  -43.9776  -35.0158 F       1  UNL1       -0.1658
     26 F         -58.8629  -42.7619  -34.2233 F       1  UNL1       -0.1658
     27 F         -58.9662  -44.9696  -33.7879 F       1  UNL1       -0.1658
     28 C         -65.0026  -39.3417  -19.1173 C.3     1  UNL1        0.1535
     29 N         -64.7139  -41.8855  -19.1206 N.am    1  UNL1       -0.2827
     30 C         -65.1475  -40.6929  -18.4481 C.2     1  UNL1        0.2443
     31 O         -65.5267  -40.7596  -17.2466 O.2     1  UNL1       -0.2730
     32 H         -64.0628  -41.7822  -19.9297 H       1  UNL1        0.1549
     33 C         -64.6698  -44.3484  -19.4261 C.ar    1  UNL1        0.0399
     34 C         -65.1162  -45.6159  -19.0171 C.ar    1  UNL1        0.0982
     35 N         -65.9251  -45.7449  -17.9336 N.ar    1  UNL1       -0.2425
     36 C         -66.3368  -44.6678  -17.2181 C.ar    1  UNL1        0.1001
     37 C         -65.9354  -43.3854  -17.5899 C.ar    1  UNL1        0.0351
     38 C         -65.0914  -43.2104  -18.6999 C.ar    1  UNL1        0.0517
     39 C         -63.7830  -44.2304  -20.6379 C.3     1  UNL1        0.1715
     40 C         -61.6235  -43.5934  -21.1212 C.3     1  UNL1        0.1746
     41 O         -62.7779  -43.2738  -20.3781 O.3     1  UNL1       -0.3462
     42 C         -64.0434  -38.3656  -18.3895 C.3     1  UNL1        0.0569
     43 C         -63.9777  -36.9859  -18.9871 C.ar    1  UNL1       -0.0017
     44 C         -64.8413  -35.9240  -18.7294 C.ar    1  UNL1        0.0681
     45 N         -64.4578  -34.8237  -19.4153 N.ar    1  UNL1       -0.3523
     46 C         -63.3649  -35.1809  -20.1109 C.ar    1  UNL1        0.0563
     47 C         -62.6003  -34.3752  -20.9535 C.ar    1  UNL1        0.0170
     48 C         -61.4787  -34.9526  -21.5762 C.ar    1  UNL1        0.0015
     49 C         -61.1542  -36.3082  -21.3507 C.ar    1  UNL1        0.0001
     50 C         -61.9473  -37.0982  -20.4996 C.ar    1  UNL1        0.0012
     51 C         -63.0465  -36.4959  -19.8857 C.ar    1  UNL1        0.0131
     52 H         -64.9192  -33.8870  -19.4018 H       1  UNL1        0.1660
@<TRIPOS>BOND
     1    40    41    1
     2    41    39    1
     3    39    33    1
     4    33    34   ar
     5    34    35   ar
     6    35    36   ar
     7    36    37   ar
     8    37    38   ar
     9    38    29    1
    10    29    30   am
    11    30    31    2
    12    30    28    1
    13    28    42    1
    14    42    43    1
    15    43    44   ar
    16    44    45   ar
    17    45    46   ar
    18    46    47   ar
    19    47    48   ar
    20    48    49   ar
    21    49    50   ar
    22    50    51   ar
    23    28     1    1
    24     1     2   am
    25     2     3    2
    26     2     5    1
    27     5     6   ar
    28     6     7   ar
    29     7     8   ar
    30     8    12    1
    31    12    13    1
    32    13    14    1
    33    14    15    1
    34    15    18    1
    35    18    19   ar
    36    19    20   ar
    37    20    21   ar
    38    21    24    1
    39    24    25    1
    40    24    26    1
    41    24    27    1
    42    21    22   ar
    43    22    23   ar
    44    15    16    1
    45    16    17    1
    46     8     9   ar
    47     9    10   ar
    48    10    11    1
    49    38    33   ar
    50    51    43   ar
    51    10     5   ar
    52    51    46   ar
    53    17    12    1
    54    23    18   ar
    55    29    32    1
    56    45    52    1
    57     1     4    1
@<TRIPOS>MOLECULE
*****
 52 57 0 0 0
SMALL
GASTEIGER

@<TRIPOS>ATOM
      1 N         -66.0345  -54.8358  -21.8930 N.am    1  UNL1       -0.2945
      2 C         -64.6324  -54.6322  -22.1495 C.2     1  UNL1        0.2483
      3 O         -63.7951  -55.4997  -21.7792 O.2     1  UNL1       -0.2701
      4 H         -66.7227  -54.3608  -22.5190 H       1  UNL1        0.1501
      5 C         -64.1488  -53.4251  -22.8659 C.ar    1  UNL1        0.0808
      6 C         -63.0442  -52.7187  -22.3592 C.ar    1  UNL1        0.0080
      7 C         -62.5841  -51.5619  -22.9920 C.ar    1  UNL1        0.0148
      8 C         -63.2202  -51.0773  -24.1463 C.ar    1  UNL1        0.0502
      9 C         -64.3329  -51.7738  -24.6476 C.ar    1  UNL1        0.0443
     10 C         -64.7968  -52.9326  -24.0177 C.ar    1  UNL1        0.1457
     11 F         -65.9097  -53.5304  -24.5118 F       1  UNL1       -0.2040
     12 N         -62.7508  -49.8736  -24.7933 N.pl3   1  UNL1       -0.3040
     13 C         -63.5489  -49.2707  -25.8725 C.3     1  UNL1        0.1123
     14 C         -62.7139  -48.3093  -26.7238 C.3     1  UNL1        0.1136
     15 N         -62.0014  -47.3490  -25.8688 N.pl3   1  UNL1       -0.2897
     16 C         -61.4234  -47.7993  -24.5912 C.3     1  UNL1        0.1136
     17 C         -61.4254  -49.3271  -24.4697 C.3     1  UNL1        0.1123
     18 C         -61.7553  -46.0085  -26.3511 C.ar    1  UNL1        0.1318
     19 C         -61.3052  -44.9912  -25.4913 C.ar    1  UNL1        0.0343
     20 C         -61.0787  -43.7098  -25.9957 C.ar    1  UNL1        0.0083
     21 C         -61.3183  -43.4293  -27.3487 C.ar    1  UNL1        0.0906
     22 C         -61.7458  -44.4755  -28.1799 C.ar    1  UNL1        0.1041
     23 N         -61.9572  -45.7160  -27.6669 N.ar    1  UNL1       -0.2292
     24 C         -61.0297  -42.0626  -27.9156 C.3     1  UNL1        0.4200
     25 F         -59.8614  -41.5486  -27.3800 F       1  UNL1       -0.1658
     26 F         -60.8846  -42.1253  -29.2908 F       1  UNL1       -0.1658
     27 F         -62.0768  -41.2131  -27.6113 F       1  UNL1       -0.1658
     28 C         -66.5814  -55.7196  -20.8497 C.3     1  UNL1        0.1535
     29 N         -68.7249  -55.6694  -19.4506 N.am    1  UNL1       -0.2827
     30 C         -67.5508  -54.9993  -19.9354 C.2     1  UNL1        0.2443
     31 O         -67.2605  -53.8543  -19.4918 O.2     1  UNL1       -0.2730
     32 H         -68.7526  -56.7111  -19.5072 H       1  UNL1        0.1549
     33 C         -70.2937  -55.3348  -17.5564 C.ar    1  UNL1        0.0399
     34 C         -71.4202  -54.6783  -17.0337 C.ar    1  UNL1        0.0982
     35 N         -72.0459  -53.7080  -17.7492 N.ar    1  UNL1       -0.2425
     36 C         -71.6193  -53.3455  -18.9853 C.ar    1  UNL1        0.1001
     37 C         -70.5151  -53.9756  -19.5576 C.ar    1  UNL1        0.0351
     38 C         -69.8348  -54.9785  -18.8459 C.ar    1  UNL1        0.0517
     39 C         -69.6243  -56.4155  -16.7485 C.3     1  UNL1        0.1715
     40 C         -68.8154  -56.2534  -14.5986 C.3     1  UNL1        0.1746
     41 O         -69.9808  -56.2599  -15.3916 O.3     1  UNL1       -0.3462
     42 C         -67.1277  -57.0399  -21.4505 C.3     1  UNL1        0.0569
     43 C         -67.6809  -56.9149  -22.8446 C.ar    1  UNL1       -0.0017
     44 C         -67.0272  -57.2341  -24.0323 C.ar    1  UNL1        0.0681
     45 N         -67.8424  -57.0305  -25.0917 N.ar    1  UNL1       -0.3523
     46 C         -69.0027  -56.5780  -24.5868 C.ar    1  UNL1        0.0563
     47 C         -70.1577  -56.2453  -25.2934 C.ar    1  UNL1        0.0170
     48 C         -71.2732  -55.8025  -24.5594 C.ar    1  UNL1        0.0015
     49 C         -71.2078  -55.6970  -23.1528 C.ar    1  UNL1        0.0001
     50 C         -70.0272  -56.0344  -22.4675 C.ar    1  UNL1        0.0012
     51 C         -68.9405  -56.4824  -23.2200 C.ar    1  UNL1        0.0131
     52 H         -67.6132  -57.1957  -26.0970 H       1  UNL1        0.1660
@<TRIPOS>BOND
     1    40    41    1
     2    41    39    1
     3    39    33    1
     4    33    34   ar
     5    34    35   ar
     6    35    36   ar
     7    36    37   ar
     8    37    38   ar
     9    38    29    1
    10    29    30   am
    11    30    31    2
    12    30    28    1
    13    28    42    1
    14    42    43    1
    15    43    44   ar
    16    44    45   ar
    17    45    46   ar
    18    46    47   ar
    19    47    48   ar
    20    48    49   ar
    21    49    50   ar
    22    50    51   ar
    23    28     1    1
    24     1     2   am
    25     2     3    2
    26     2     5    1
    27     5     6   ar
    28     6     7   ar
    29     7     8   ar
    30     8    12    1
    31    12    13    1
    32    13    14    1
    33    14    15    1
    34    15    18    1
    35    18    19   ar
    36    19    20   ar
    37    20    21   ar
    38    21    24    1
    39    24    25    1
    40    24    26    1
    41    24    27    1
    42    21    22   ar
    43    22    23   ar
    44    15    16    1
    45    16    17    1
    46     8     9   ar
    47     9    10   ar
    48    10    11    1
    49    38    33   ar
    50    51    43   ar
    51    10     5   ar
    52    51    46   ar
    53    17    12    1
    54    23    18   ar
    55    29    32    1
    56    45    52    1
    57     1     4    1
