@<TRIPOS>MOLECULE
*****
 38 42 0 0 0
SMALL
GASTEIGER

@<TRIPOS>ATOM
      1 C          -7.5223   -8.6731   29.8495 C.ar    1  UNL1        0.1317
      2 C          -7.3885   -7.2879   29.6286 C.ar    1  UNL1        0.0286
      3 C          -8.4326   -6.4073   29.9677 C.ar    1  UNL1        0.0777
      4 C          -9.6074   -6.9141   30.5392 C.ar    1  UNL1        0.2970
      5 N          -9.6918   -8.2525   30.7545 N.ar    1  UNL1       -0.1224
      6 C         -10.6782   -8.9886   31.2904 C.ar    1  UNL1        0.2715
      7 S         -12.2835   -8.3437   31.7716 S.3     1  UNL1       -0.0718
      8 C         -10.2545  -10.3157   31.2901 C.ar    1  UNL1        0.1320
      9 N          -9.0157  -10.3956   30.7459 N.ar    1  UNL1       -0.2938
     10 C          -8.7143   -9.1179   30.4348 C.ar    1  UNL1        0.3126
     11 H         -11.8358   -8.0569   33.0746 H       1  UNL1        0.1129
     12 H          -8.4639  -11.1994   30.6094 H       1  UNL1        0.1718
     13 N          -5.5679  -11.6560   27.9657 N.3     1  UNL1       -0.2647
     14 C          -5.4080  -11.8159   29.4237 C.3     1  UNL1        0.0941
     15 C          -6.4066  -10.9064   30.1463 C.3     1  UNL1        0.1084
     16 N          -6.4665   -9.5873   29.5064 N.pl3   1  UNL1       -0.2988
     17 C          -5.4227   -9.2048   28.5500 C.3     1  UNL1        0.1084
     18 C          -5.2598  -10.2904   27.4709 C.3     1  UNL1        0.0941
     19 C          -4.9037  -12.7206   27.1816 C.3     1  UNL1        0.1199
     20 C          -7.2997  -15.4009   27.1777 C.ar    1  UNL1        0.1165
     21 N          -6.7684  -14.3131   27.7757 N.ar    1  UNL1       -0.2344
     22 C          -5.7798  -13.9283   26.9430 C.ar    1  UNL1        0.0878
     23 C          -5.7360  -14.7890   25.8598 C.ar    1  UNL1        0.0499
     24 C          -4.8073  -14.7302   24.6883 C.3     1  UNL1        0.0511
     25 N          -6.7039  -15.7073   26.0086 N.ar    1  UNL1       -0.3443
     26 H          -6.9500  -16.4843   25.3554 H       1  UNL1        0.1668
     27 C          -8.9789  -17.1671   26.7107 C.3     1  UNL1        0.0084
     28 C          -8.4912  -16.1296   27.7146 C.3     1  UNL1        0.0637
     29 C         -11.0024  -11.5064   31.7478 C.ar    1  UNL1        0.0221
     30 C         -12.2706  -11.8144   31.2377 C.ar    1  UNL1        0.0013
     31 C         -12.9695  -12.9352   31.6947 C.ar    1  UNL1       -0.0042
     32 C         -12.4220  -13.7799   32.6886 C.ar    1  UNL1       -0.0228
     33 C         -11.1535  -13.4415   33.2090 C.ar    1  UNL1       -0.0042
     34 C         -10.4595  -12.3199   32.7502 C.ar    1  UNL1        0.0013
     35 C         -13.1564  -15.0274   33.2219 C.3     1  UNL1        0.0189
     36 C         -12.9088  -15.1604   34.7402 C.3     1  UNL1        0.0044
     37 C         -12.6230  -16.2859   32.5030 C.3     1  UNL1        0.0044
     38 C         -14.6870  -14.9729   32.9978 C.3     1  UNL1        0.0044
@<TRIPOS>BOND
     1    27    28    1
     2    28    20    1
     3    20    21   ar
     4    21    22   ar
     5    22    19    1
     6    19    13    1
     7    13    14    1
     8    14    15    1
     9    15    16    1
    10    16     1    1
    11     1     2   ar
    12     2     3   ar
    13     3     4   ar
    14     4     5   ar
    15     5     6   ar
    16     6     7    1
    17     6     8   ar
    18     8    29    1
    19    29    30   ar
    20    30    31   ar
    21    31    32   ar
    22    32    35    1
    23    35    36    1
    24    35    37    1
    25    35    38    1
    26    32    33   ar
    27    33    34   ar
    28     8     9   ar
    29     9    10   ar
    30    16    17    1
    31    17    18    1
    32    22    23   ar
    33    23    24    1
    34    23    25   ar
    35    25    20   ar
    36    18    13    1
    37    10     1   ar
    38    10     5   ar
    39    34    29   ar
    40     7    11    1
    41    25    26    1
    42     9    12    1
@<TRIPOS>MOLECULE
*****
 38 42 0 0 0
SMALL
GASTEIGER

@<TRIPOS>ATOM
      1 C          -8.1754   -7.5511   30.4455 C.ar    1  UNL1        0.1317
      2 C          -8.2566   -6.1600   30.2367 C.ar    1  UNL1        0.0286
      3 C          -9.4665   -5.4752   30.4550 C.ar    1  UNL1        0.0777
      4 C         -10.5932   -6.1834   30.8940 C.ar    1  UNL1        0.2970
      5 N         -10.4710   -7.5199   31.1027 N.ar    1  UNL1       -0.1224
      6 C         -11.3701   -8.4215   31.5279 C.ar    1  UNL1        0.2715
      7 S         -13.1049   -8.0666   31.8260 S.3     1  UNL1       -0.0718
      8 C         -10.7287   -9.6571   31.5788 C.ar    1  UNL1        0.1320
      9 N          -9.4422   -9.5164   31.1758 N.ar    1  UNL1       -0.2938
     10 C          -9.3310   -8.2013   30.8962 C.ar    1  UNL1        0.3126
     11 H         -12.8589   -7.7287   33.1698 H       1  UNL1        0.1129
     12 H          -8.7497  -10.2125   31.1038 H       1  UNL1        0.1718
     13 N          -5.6489  -10.4095   29.1370 N.3     1  UNL1       -0.2647
     14 C          -5.3930  -10.1535   30.5674 C.3     1  UNL1        0.0941
     15 C          -6.5477   -9.3328   31.1503 C.3     1  UNL1        0.1084
     16 N          -6.9478   -8.2669   30.2246 N.pl3   1  UNL1       -0.2988
     17 C          -6.0674   -7.9206   29.1041 C.3     1  UNL1        0.1084
     18 C          -5.6969   -9.1820   28.3033 C.3     1  UNL1        0.0941
     19 C          -4.7843  -11.4655   28.5655 C.3     1  UNL1        0.1199
     20 C          -6.0804  -14.3439   26.8450 C.ar    1  UNL1        0.1165
     21 N          -5.1073  -13.4215   27.0048 N.ar    1  UNL1       -0.2344
     22 C          -5.5558  -12.6386   28.0070 C.ar    1  UNL1        0.0878
     23 C          -6.7876  -13.1048   28.4327 C.ar    1  UNL1        0.0499
     24 C          -7.6408  -12.5498   29.5292 C.3     1  UNL1        0.0511
     25 N          -7.1064  -14.1862   27.7040 N.ar    1  UNL1       -0.3443
     26 H          -7.9591  -14.7834   27.7906 H       1  UNL1        0.1668
     27 C          -6.7649  -15.1719   24.6082 C.3     1  UNL1        0.0084
     28 C          -5.9793  -15.4805   25.8770 C.3     1  UNL1        0.0637
     29 C         -11.3080  -10.9647   31.9541 C.ar    1  UNL1        0.0221
     30 C         -12.4966  -11.4311   31.3769 C.ar    1  UNL1        0.0013
     31 C         -13.0379  -12.6625   31.7566 C.ar    1  UNL1       -0.0042
     32 C         -12.4084  -13.4634   32.7381 C.ar    1  UNL1       -0.0228
     33 C         -11.2245  -12.9675   33.3269 C.ar    1  UNL1       -0.0042
     34 C         -10.6881  -11.7359   32.9453 C.ar    1  UNL1        0.0013
     35 C         -12.9689  -14.8289   33.1873 C.3     1  UNL1        0.0189
     36 C         -12.6331  -15.0580   34.6768 C.3     1  UNL1        0.0044
     37 C         -12.3319  -15.9514   32.3393 C.3     1  UNL1        0.0044
     38 C         -14.5049  -14.9363   33.0293 C.3     1  UNL1        0.0044
@<TRIPOS>BOND
     1    27    28    1
     2    28    20    1
     3    20    21   ar
     4    21    22   ar
     5    22    19    1
     6    19    13    1
     7    13    14    1
     8    14    15    1
     9    15    16    1
    10    16     1    1
    11     1     2   ar
    12     2     3   ar
    13     3     4   ar
    14     4     5   ar
    15     5     6   ar
    16     6     7    1
    17     6     8   ar
    18     8    29    1
    19    29    30   ar
    20    30    31   ar
    21    31    32   ar
    22    32    35    1
    23    35    36    1
    24    35    37    1
    25    35    38    1
    26    32    33   ar
    27    33    34   ar
    28     8     9   ar
    29     9    10   ar
    30    16    17    1
    31    17    18    1
    32    22    23   ar
    33    23    24    1
    34    23    25   ar
    35    25    20   ar
    36    18    13    1
    37    10     1   ar
    38    10     5   ar
    39    34    29   ar
    40     7    11    1
    41    25    26    1
    42     9    12    1
@<TRIPOS>MOLECULE
*****
 38 42 0 0 0
SMALL
GASTEIGER

@<TRIPOS>ATOM
      1 C          -7.4523  -11.8492   29.4085 C.ar    1  UNL1        0.1317
      2 C          -6.3083  -11.0717   29.6770 C.ar    1  UNL1        0.0286
      3 C          -5.0794  -11.3745   29.0618 C.ar    1  UNL1        0.0777
      4 C          -4.9994  -12.4506   28.1679 C.ar    1  UNL1        0.2970
      5 N          -6.1277  -13.1649   27.9196 N.ar    1  UNL1       -0.1224
      6 C          -6.3331  -14.2169   27.1113 C.ar    1  UNL1        0.2715
      7 S          -5.0421  -15.0635   26.1943 S.3     1  UNL1       -0.0718
      8 C          -7.6774  -14.5665   27.2166 C.ar    1  UNL1        0.1320
      9 N          -8.2933  -13.7383   28.0952 N.ar    1  UNL1       -0.2938
     10 C          -7.3128  -12.9034   28.4972 C.ar    1  UNL1        0.3126
     11 H          -5.2067  -14.2190   25.0807 H       1  UNL1        0.1129
     12 H          -9.2372  -13.7445   28.3750 H       1  UNL1        0.1718
     13 N         -10.3667  -11.7724   32.1953 N.3     1  UNL1       -0.2647
     14 C         -10.9494  -12.1527   30.8942 C.3     1  UNL1        0.0941
     15 C          -9.8233  -12.5110   29.9195 C.3     1  UNL1        0.1084
     16 N          -8.7152  -11.5555   30.0305 N.pl3   1  UNL1       -0.2988
     17 C          -8.9247  -10.2925   30.7457 C.3     1  UNL1        0.1084
     18 C          -9.5136  -10.5584   32.1429 C.3     1  UNL1        0.0941
     19 C         -11.3563  -11.7389   33.2949 C.3     1  UNL1        0.1199
     20 C         -12.9429  -14.9248   33.8026 C.ar    1  UNL1        0.1165
     21 N         -12.8847  -13.7415   33.1547 N.ar    1  UNL1       -0.2344
     22 C         -11.8345  -13.1088   33.7164 C.ar    1  UNL1        0.0878
     23 C         -11.2796  -13.9227   34.6889 C.ar    1  UNL1        0.0499
     24 C         -10.0929  -13.6297   35.5516 C.3     1  UNL1        0.0511
     25 N         -11.9759  -15.0697   34.7297 N.ar    1  UNL1       -0.3443
     26 H         -11.8004  -15.8995   35.3393 H       1  UNL1        0.1668
     27 C         -13.3772  -16.8783   32.3355 C.3     1  UNL1        0.0084
     28 C         -13.9232  -16.0004   33.4551 C.3     1  UNL1        0.0637
     29 C          -8.3794  -15.6820   26.5462 C.ar    1  UNL1        0.0221
     30 C          -8.6801  -16.8705   27.2250 C.ar    1  UNL1        0.0013
     31 C          -9.3295  -17.9205   26.5697 C.ar    1  UNL1       -0.0042
     32 C          -9.6900  -17.8162   25.2058 C.ar    1  UNL1       -0.0228
     33 C          -9.3581  -16.6211   24.5306 C.ar    1  UNL1       -0.0042
     34 C          -8.7080  -15.5752   25.1890 C.ar    1  UNL1        0.0013
     35 C         -10.4084  -18.9484   24.4428 C.3     1  UNL1        0.0189
     36 C          -9.9650  -18.9341   22.9638 C.3     1  UNL1        0.0044
     37 C         -11.9358  -18.7349   24.5224 C.3     1  UNL1        0.0044
     38 C         -10.1012  -20.3544   25.0124 C.3     1  UNL1        0.0044
@<TRIPOS>BOND
     1    27    28    1
     2    28    20    1
     3    20    21   ar
     4    21    22   ar
     5    22    19    1
     6    19    13    1
     7    13    14    1
     8    14    15    1
     9    15    16    1
    10    16     1    1
    11     1     2   ar
    12     2     3   ar
    13     3     4   ar
    14     4     5   ar
    15     5     6   ar
    16     6     7    1
    17     6     8   ar
    18     8    29    1
    19    29    30   ar
    20    30    31   ar
    21    31    32   ar
    22    32    35    1
    23    35    36    1
    24    35    37    1
    25    35    38    1
    26    32    33   ar
    27    33    34   ar
    28     8     9   ar
    29     9    10   ar
    30    16    17    1
    31    17    18    1
    32    22    23   ar
    33    23    24    1
    34    23    25   ar
    35    25    20   ar
    36    18    13    1
    37    10     1   ar
    38    10     5   ar
    39    34    29   ar
    40     7    11    1
    41    25    26    1
    42     9    12    1
@<TRIPOS>MOLECULE
*****
 38 42 0 0 0
SMALL
GASTEIGER

@<TRIPOS>ATOM
      1 C          -7.1757  -12.1304   29.3792 C.ar    1  UNL1        0.1317
      2 C          -6.0110  -11.3601   29.5678 C.ar    1  UNL1        0.0286
      3 C          -4.8513  -11.6241   28.8155 C.ar    1  UNL1        0.0777
      4 C          -4.8624  -12.6538   27.8651 C.ar    1  UNL1        0.2970
      5 N          -6.0094  -13.3619   27.6982 N.ar    1  UNL1       -0.1224
      6 C          -6.2955  -14.3735   26.8633 C.ar    1  UNL1        0.2715
      7 S          -5.1046  -15.1653   25.7775 S.3     1  UNL1       -0.0718
      8 C          -7.6216  -14.7363   27.0881 C.ar    1  UNL1        0.1320
      9 N          -8.1450  -13.9568   28.0657 N.ar    1  UNL1       -0.2938
     10 C          -7.1293  -13.1369   28.4065 C.ar    1  UNL1        0.3126
     11 H          -5.3835  -14.2673   24.7305 H       1  UNL1        0.1129
     12 H          -9.0552  -13.9829   28.4401 H       1  UNL1        0.1718
     13 N         -10.3050  -10.1258   30.9459 N.3     1  UNL1       -0.2647
     14 C          -9.6259  -10.8794   32.0173 C.3     1  UNL1        0.0941
     15 C          -8.2631  -11.3629   31.5120 C.3     1  UNL1        0.1084
     16 N          -8.3684  -11.8759   30.1413 N.pl3   1  UNL1       -0.2988
     17 C          -9.6933  -12.1581   29.5797 C.3     1  UNL1        0.1084
     18 C         -10.6160  -10.9365   29.7416 C.3     1  UNL1        0.0941
     19 C         -11.4590   -9.3335   31.4256 C.3     1  UNL1        0.1199
     20 C         -10.6076   -5.9915   30.4102 C.ar    1  UNL1        0.1165
     21 N         -10.2599   -7.2870   30.5653 N.ar    1  UNL1       -0.2344
     22 C         -11.3584   -7.8625   31.0951 C.ar    1  UNL1        0.0878
     23 C         -12.3461   -6.9047   31.2468 C.ar    1  UNL1        0.0499
     24 C         -13.7292   -7.1012   31.7824 C.3     1  UNL1        0.0511
     25 N         -11.8700   -5.7308   30.8025 N.ar    1  UNL1       -0.3443
     26 H         -12.3718   -4.8157   30.7592 H       1  UNL1        0.1668
     27 C          -8.2617   -5.2169   30.1777 C.3     1  UNL1        0.0084
     28 C          -9.7117   -4.9743   29.7766 C.3     1  UNL1        0.0637
     29 C          -8.3875  -15.8213   26.4380 C.ar    1  UNL1        0.0221
     30 C          -8.7143  -16.9987   27.1239 C.ar    1  UNL1        0.0013
     31 C          -9.4247  -18.0204   26.4874 C.ar    1  UNL1       -0.0042
     32 C          -9.8221  -17.8983   25.1353 C.ar    1  UNL1       -0.0228
     33 C          -9.4638  -16.7156   24.4519 C.ar    1  UNL1       -0.0042
     34 C          -8.7528  -15.6980   25.0916 C.ar    1  UNL1        0.0013
     35 C         -10.6079  -18.9992   24.3931 C.3     1  UNL1        0.0189
     36 C         -12.1204  -18.8035   24.6345 C.3     1  UNL1        0.0044
     37 C         -10.1790  -20.3848   24.9232 C.3     1  UNL1        0.0044
     38 C         -10.3703  -18.9883   22.8636 C.3     1  UNL1        0.0044
@<TRIPOS>BOND
     1    27    28    1
     2    28    20    1
     3    20    21   ar
     4    21    22   ar
     5    22    19    1
     6    19    13    1
     7    13    14    1
     8    14    15    1
     9    15    16    1
    10    16     1    1
    11     1     2   ar
    12     2     3   ar
    13     3     4   ar
    14     4     5   ar
    15     5     6   ar
    16     6     7    1
    17     6     8   ar
    18     8    29    1
    19    29    30   ar
    20    30    31   ar
    21    31    32   ar
    22    32    35    1
    23    35    36    1
    24    35    37    1
    25    35    38    1
    26    32    33   ar
    27    33    34   ar
    28     8     9   ar
    29     9    10   ar
    30    16    17    1
    31    17    18    1
    32    22    23   ar
    33    23    24    1
    34    23    25   ar
    35    25    20   ar
    36    18    13    1
    37    10     1   ar
    38    10     5   ar
    39    34    29   ar
    40     7    11    1
    41    25    26    1
    42     9    12    1
@<TRIPOS>MOLECULE
*****
 38 42 0 0 0
SMALL
GASTEIGER

@<TRIPOS>ATOM
      1 C          -5.8842  -12.2931   27.8763 C.ar    1  UNL1        0.1317
      2 C          -4.9554  -11.3443   27.4046 C.ar    1  UNL1        0.0286
      3 C          -4.9546  -10.0323   27.9138 C.ar    1  UNL1        0.0777
      4 C          -5.8781   -9.6741   28.9050 C.ar    1  UNL1        0.2970
      5 N          -6.7449  -10.6212   29.3482 N.ar    1  UNL1       -0.1224
      6 C          -7.7063  -10.5540   30.2827 C.ar    1  UNL1        0.2715
      7 S          -8.1873   -9.0527   31.1423 S.3     1  UNL1       -0.0718
      8 C          -8.3002  -11.8117   30.3601 C.ar    1  UNL1        0.1320
      9 N          -7.7122  -12.6460   29.4683 N.ar    1  UNL1       -0.2938
     10 C          -6.7734  -11.8793   28.8759 C.ar    1  UNL1        0.3126
     11 H          -7.2522   -9.2788   32.1694 H       1  UNL1        0.1129
     12 H          -7.9216  -13.5919   29.2934 H       1  UNL1        0.1718
     13 N          -6.7860  -15.4214   25.4959 N.3     1  UNL1       -0.2647
     14 C          -6.9623  -15.8180   26.9060 C.3     1  UNL1        0.0941
     15 C          -6.9534  -14.5668   27.7898 C.3     1  UNL1        0.1084
     16 N          -5.9007  -13.6371   27.3649 N.pl3   1  UNL1       -0.2988
     17 C          -4.8548  -14.1057   26.4500 C.3     1  UNL1        0.1084
     18 C          -5.4834  -14.7684   25.2109 C.3     1  UNL1        0.0941
     19 C          -7.1170  -16.4985   24.5369 C.3     1  UNL1        0.1199
     20 C         -10.2902  -15.9551   22.9368 C.ar    1  UNL1        0.1165
     21 N          -9.5781  -16.4168   23.9870 N.ar    1  UNL1       -0.2344
     22 C          -8.2955  -16.1730   23.6491 C.ar    1  UNL1        0.0878
     23 C          -8.2597  -15.5681   22.4046 C.ar    1  UNL1        0.0499
     24 C          -7.0513  -15.1115   21.6496 C.3     1  UNL1        0.0511
     25 N          -9.5205  -15.4234   21.9670 N.ar    1  UNL1       -0.3443
     26 H          -9.8379  -14.9842   21.0741 H       1  UNL1        0.1668
     27 C         -12.2928  -16.6155   21.6287 C.3     1  UNL1        0.0084
     28 C         -11.7861  -15.9489   22.9020 C.3     1  UNL1        0.0637
     29 C          -9.4295  -12.2300   31.2183 C.ar    1  UNL1        0.0221
     30 C          -9.3909  -12.0662   32.6094 C.ar    1  UNL1        0.0013
     31 C         -10.4613  -12.4830   33.4058 C.ar    1  UNL1       -0.0042
     32 C         -11.6036  -13.0888   32.8322 C.ar    1  UNL1       -0.0228
     33 C         -11.6157  -13.2680   31.4315 C.ar    1  UNL1       -0.0042
     34 C         -10.5434  -12.8512   30.6399 C.ar    1  UNL1        0.0013
     35 C         -12.8081  -13.5629   33.6717 C.3     1  UNL1        0.0189
     36 C         -13.5229  -14.7188   32.9387 C.3     1  UNL1        0.0044
     37 C         -13.7945  -12.3905   33.8654 C.3     1  UNL1        0.0044
     38 C         -12.4057  -14.0739   35.0762 C.3     1  UNL1        0.0044
@<TRIPOS>BOND
     1    27    28    1
     2    28    20    1
     3    20    21   ar
     4    21    22   ar
     5    22    19    1
     6    19    13    1
     7    13    14    1
     8    14    15    1
     9    15    16    1
    10    16     1    1
    11     1     2   ar
    12     2     3   ar
    13     3     4   ar
    14     4     5   ar
    15     5     6   ar
    16     6     7    1
    17     6     8   ar
    18     8    29    1
    19    29    30   ar
    20    30    31   ar
    21    31    32   ar
    22    32    35    1
    23    35    36    1
    24    35    37    1
    25    35    38    1
    26    32    33   ar
    27    33    34   ar
    28     8     9   ar
    29     9    10   ar
    30    16    17    1
    31    17    18    1
    32    22    23   ar
    33    23    24    1
    34    23    25   ar
    35    25    20   ar
    36    18    13    1
    37    10     1   ar
    38    10     5   ar
    39    34    29   ar
    40     7    11    1
    41    25    26    1
    42     9    12    1
@<TRIPOS>MOLECULE
*****
 38 42 0 0 0
SMALL
GASTEIGER

@<TRIPOS>ATOM
      1 C          -5.7955  -12.0317   28.1003 C.ar    1  UNL1        0.1317
      2 C          -4.8676  -11.0493   27.7009 C.ar    1  UNL1        0.0286
      3 C          -4.8879   -9.7692   28.2853 C.ar    1  UNL1        0.0777
      4 C          -5.8317   -9.4768   29.2789 C.ar    1  UNL1        0.2970
      5 N          -6.6971  -10.4553   29.6510 N.ar    1  UNL1       -0.1224
      6 C          -7.6752  -10.4505   30.5706 C.ar    1  UNL1        0.2715
      7 S          -8.1849   -9.0057   31.5070 S.3     1  UNL1       -0.0718
      8 C          -8.2586  -11.7155   30.5644 C.ar    1  UNL1        0.1320
      9 N          -7.6474  -12.4916   29.6363 N.ar    1  UNL1       -0.2938
     10 C          -6.7058  -11.6840   29.1062 C.ar    1  UNL1        0.3126
     11 H          -7.2657   -9.2834   32.5357 H       1  UNL1        0.1129
     12 H          -7.8449  -13.4275   29.4032 H       1  UNL1        0.1718
     13 N          -6.6089  -15.0182   25.5149 N.3     1  UNL1       -0.2647
     14 C          -6.8290  -15.4963   26.8933 C.3     1  UNL1        0.0941
     15 C          -6.8530  -14.2985   27.8478 C.3     1  UNL1        0.1084
     16 N          -5.7906  -13.3438   27.5117 N.pl3   1  UNL1       -0.2988
     17 C          -4.7142  -13.7566   26.6053 C.3     1  UNL1        0.1084
     18 C          -5.3003  -14.3475   25.3103 C.3     1  UNL1        0.0941
     19 C          -6.9050  -16.0386   24.4849 C.3     1  UNL1        0.1199
     20 C          -3.9546  -16.7992   22.5767 C.ar    1  UNL1        0.1165
     21 N          -4.6324  -16.8459   23.7436 N.ar    1  UNL1       -0.2344
     22 C          -5.7942  -16.2156   23.4760 C.ar    1  UNL1        0.0878
     23 C          -5.7951  -15.8040   22.1545 C.ar    1  UNL1        0.0499
     24 C          -6.8847  -15.0808   21.4277 C.3     1  UNL1        0.0511
     25 N          -4.6378  -16.1852   21.5910 N.ar    1  UNL1       -0.3443
     26 H          -4.3360  -16.0465   20.6007 H       1  UNL1        0.1668
     27 C          -1.7790  -16.6497   21.3928 C.3     1  UNL1        0.0084
     28 C          -2.6220  -17.4501   22.3781 C.3     1  UNL1        0.0637
     29 C          -9.3985  -12.1923   31.3766 C.ar    1  UNL1        0.0221
     30 C          -9.3825  -12.1160   32.7757 C.ar    1  UNL1        0.0013
     31 C         -10.4626  -12.5872   33.5274 C.ar    1  UNL1       -0.0042
     32 C         -11.5924  -13.1612   32.8989 C.ar    1  UNL1       -0.0228
     33 C         -11.5817  -13.2522   31.4896 C.ar    1  UNL1       -0.0042
     34 C         -10.4997  -12.7814   30.7428 C.ar    1  UNL1        0.0013
     35 C         -12.8069  -13.6930   33.6877 C.3     1  UNL1        0.0189
     36 C         -13.5061  -14.8010   32.8707 C.3     1  UNL1        0.0044
     37 C         -13.8010  -12.5389   33.9427 C.3     1  UNL1        0.0044
     38 C         -12.4229  -14.2930   35.0619 C.3     1  UNL1        0.0044
@<TRIPOS>BOND
     1    27    28    1
     2    28    20    1
     3    20    21   ar
     4    21    22   ar
     5    22    19    1
     6    19    13    1
     7    13    14    1
     8    14    15    1
     9    15    16    1
    10    16     1    1
    11     1     2   ar
    12     2     3   ar
    13     3     4   ar
    14     4     5   ar
    15     5     6   ar
    16     6     7    1
    17     6     8   ar
    18     8    29    1
    19    29    30   ar
    20    30    31   ar
    21    31    32   ar
    22    32    35    1
    23    35    36    1
    24    35    37    1
    25    35    38    1
    26    32    33   ar
    27    33    34   ar
    28     8     9   ar
    29     9    10   ar
    30    16    17    1
    31    17    18    1
    32    22    23   ar
    33    23    24    1
    34    23    25   ar
    35    25    20   ar
    36    18    13    1
    37    10     1   ar
    38    10     5   ar
    39    34    29   ar
    40     7    11    1
    41    25    26    1
    42     9    12    1
@<TRIPOS>MOLECULE
*****
 38 42 0 0 0
SMALL
GASTEIGER

@<TRIPOS>ATOM
      1 C          -7.6112   -8.2262   31.6837 C.ar    1  UNL1        0.1317
      2 C          -6.9141   -7.0543   32.0389 C.ar    1  UNL1        0.0286
      3 C          -5.6151   -6.8211   31.5505 C.ar    1  UNL1        0.0777
      4 C          -5.0183   -7.7579   30.6961 C.ar    1  UNL1        0.2970
      5 N          -5.7288   -8.8659   30.3609 N.ar    1  UNL1       -0.1224
      6 C          -5.4094   -9.8980   29.5640 C.ar    1  UNL1        0.2715
      7 S          -3.8037  -10.1317   28.7951 S.3     1  UNL1       -0.0718
      8 C          -6.4987  -10.7664   29.5509 C.ar    1  UNL1        0.1320
      9 N          -7.4800  -10.2740   30.3458 N.ar    1  UNL1       -0.2938
     10 C          -6.9676   -9.1184   30.8170 C.ar    1  UNL1        0.3126
     11 H          -4.1890   -9.4107   27.6497 H       1  UNL1        0.1129
     12 H          -8.3620  -10.6683   30.5353 H       1  UNL1        0.1718
     13 N         -11.2093   -9.9975   32.1103 N.3     1  UNL1       -0.2647
     14 C         -11.3983   -8.5399   31.9808 C.3     1  UNL1        0.0941
     15 C         -10.0964   -7.9016   31.4866 C.3     1  UNL1        0.1084
     16 N          -8.9381   -8.4816   32.1759 N.pl3   1  UNL1       -0.2988
     17 C          -9.1495   -9.2858   33.3838 C.3     1  UNL1        0.1084
     18 C         -10.1923  -10.3869   33.1195 C.3     1  UNL1        0.0941
     19 C         -12.4791  -10.7445   32.2484 C.3     1  UNL1        0.1199
     20 C         -12.4919  -14.2970   32.8000 C.ar    1  UNL1        0.1165
     21 N         -12.9095  -13.0615   33.1497 N.ar    1  UNL1       -0.2344
     22 C         -12.2961  -12.2442   32.2696 C.ar    1  UNL1        0.0878
     23 C         -11.5237  -13.0021   31.4065 C.ar    1  UNL1        0.0499
     24 C         -10.6859  -12.5125   30.2677 C.3     1  UNL1        0.0511
     25 N         -11.6610  -14.2953   31.7392 N.ar    1  UNL1       -0.3443
     26 H         -11.2275  -15.1225   31.2714 H       1  UNL1        0.1668
     27 C         -13.0366  -16.6949   32.4667 C.3     1  UNL1        0.0084
     28 C         -12.9817  -15.5448   33.4649 C.3     1  UNL1        0.0637
     29 C          -6.6180  -12.0608   28.8462 C.ar    1  UNL1        0.0221
     30 C          -5.6442  -12.4899   27.9345 C.ar    1  UNL1        0.0013
     31 C          -5.7825  -13.7092   27.2654 C.ar    1  UNL1       -0.0042
     32 C          -6.9105  -14.5350   27.4816 C.ar    1  UNL1       -0.0228
     33 C          -7.8939  -14.0763   28.3854 C.ar    1  UNL1       -0.0042
     34 C          -7.7520  -12.8567   29.0507 C.ar    1  UNL1        0.0013
     35 C          -7.1044  -15.8883   26.7666 C.3     1  UNL1        0.0189
     36 C          -5.8885  -16.7975   27.0476 C.3     1  UNL1        0.0044
     37 C          -7.2288  -15.6539   25.2452 C.3     1  UNL1        0.0044
     38 C          -8.3736  -16.6434   27.2300 C.3     1  UNL1        0.0044
@<TRIPOS>BOND
     1    27    28    1
     2    28    20    1
     3    20    21   ar
     4    21    22   ar
     5    22    19    1
     6    19    13    1
     7    13    14    1
     8    14    15    1
     9    15    16    1
    10    16     1    1
    11     1     2   ar
    12     2     3   ar
    13     3     4   ar
    14     4     5   ar
    15     5     6   ar
    16     6     7    1
    17     6     8   ar
    18     8    29    1
    19    29    30   ar
    20    30    31   ar
    21    31    32   ar
    22    32    35    1
    23    35    36    1
    24    35    37    1
    25    35    38    1
    26    32    33   ar
    27    33    34   ar
    28     8     9   ar
    29     9    10   ar
    30    16    17    1
    31    17    18    1
    32    22    23   ar
    33    23    24    1
    34    23    25   ar
    35    25    20   ar
    36    18    13    1
    37    10     1   ar
    38    10     5   ar
    39    34    29   ar
    40     7    11    1
    41    25    26    1
    42     9    12    1
