@<TRIPOS>MOLECULE
*****
 50 55 0 0 0
SMALL
GASTEIGER

@<TRIPOS>ATOM
      1 C           9.6460   78.1464   28.4604 C.3     1  UNL1        0.1535
      2 N           8.6649   77.7836   27.4305 N.am    1  UNL1       -0.2945
      3 C           8.8466   78.1349   26.0489 C.2     1  UNL1        0.2483
      4 O           9.7389   78.9662   25.7259 O.2     1  UNL1       -0.2701
      5 H           7.7794   77.3018   27.7058 H       1  UNL1        0.1501
      6 C           7.9768   77.5606   24.9976 C.ar    1  UNL1        0.0808
      7 C           8.4055   77.5711   23.6604 C.ar    1  UNL1        0.0080
      8 C           7.6003   77.0377   22.6513 C.ar    1  UNL1        0.0148
      9 C           6.3506   76.4725   22.9575 C.ar    1  UNL1        0.0502
     10 C           5.9315   76.4418   24.2985 C.ar    1  UNL1        0.0443
     11 C           6.7344   76.9770   25.3109 C.ar    1  UNL1        0.1457
     12 F           6.3123   76.8786   26.5971 F       1  UNL1       -0.2040
     13 N           5.5199   75.9146   21.9160 N.pl3   1  UNL1       -0.3040
     14 C           4.9853   74.5505   22.0734 C.3     1  UNL1        0.1122
     15 C           4.4268   74.0149   20.7546 C.3     1  UNL1        0.1122
     16 N           3.5236   75.0112   20.1681 N.pl3   1  UNL1       -0.3040
     17 C           3.9537   76.4135   20.0622 C.3     1  UNL1        0.1122
     18 C           5.3620   76.6251   20.6359 C.3     1  UNL1        0.1122
     19 C           2.1865   74.6479   19.7775 C.ar    1  UNL1        0.0488
     20 C           1.3877   75.5473   19.0538 C.ar    1  UNL1        0.0154
     21 C           0.0866   75.1967   18.6847 C.ar    1  UNL1        0.0135
     22 C          -0.4353   73.9477   19.0369 C.ar    1  UNL1        0.0683
     23 CL         -2.0773   73.5433   18.5547 Cl      1  UNL1       -0.0814
     24 C           0.3541   73.0431   19.7665 C.ar    1  UNL1        0.0694
     25 CL         -0.2659   71.4665   20.2377 Cl      1  UNL1       -0.0813
     26 C           1.6578   73.3962   20.1342 C.ar    1  UNL1        0.0268
     27 C           9.1996   79.3736   29.2208 C.2     1  UNL1        0.2443
     28 O           7.9990   79.7536   29.1439 O.2     1  UNL1       -0.2730
     29 N          10.1097   80.0144   30.1307 N.am    1  UNL1       -0.2825
     30 H          11.0272   79.5469   30.3113 H       1  UNL1        0.1549
     31 C           9.7501   81.1179   30.9764 C.ar    1  UNL1        0.0535
     32 C           9.1406   80.8670   32.2130 C.ar    1  UNL1        0.0353
     33 C           8.8039   81.9364   33.0461 C.ar    1  UNL1        0.1002
     34 N           9.0811   83.2114   32.6646 N.ar    1  UNL1       -0.2422
     35 C           9.6879   83.4839   31.4790 C.ar    1  UNL1        0.1002
     36 C          10.0398   82.4436   30.6153 C.ar    1  UNL1        0.0353
     37 C           9.8628   76.9627   29.4230 C.3     1  UNL1        0.0569
     38 C           5.5543   74.5049   29.4653 C.ar    1  UNL1        0.0503
     39 C           4.8966   75.3653   30.3737 C.ar    1  UNL1        0.0043
     40 C           5.5777   76.4449   30.9729 C.ar    1  UNL1        0.0002
     41 C           6.9246   76.6936   30.6703 C.ar    1  UNL1        0.0012
     42 C           7.5569   75.8432   29.7659 C.ar    1  UNL1        0.0132
     43 C           8.8265   75.8916   29.2261 C.ar    1  UNL1       -0.0017
     44 C           8.8760   74.8627   28.2941 C.ar    1  UNL1        0.0681
     45 N           7.7026   74.1932   28.2660 N.ar    1  UNL1       -0.3522
     46 C           6.9022   74.7887   29.1735 C.ar    1  UNL1        0.0591
     47 H           7.4660   73.4173   27.6114 H       1  UNL1        0.1660
     48 C           3.5696   72.8163   29.4902 C.3     1  UNL1        0.0773
     49 C           4.8152   73.3691   28.8694 C.2     1  UNL1        0.1749
     50 O           5.2214   72.8700   27.7857 O.2     1  UNL1       -0.2913
@<TRIPOS>BOND
     1    48    49    1
     2    49    50    2
     3    49    38    1
     4    38    39   ar
     5    39    40   ar
     6    40    41   ar
     7    41    42   ar
     8    42    43   ar
     9    43    37    1
    10    37     1    1
    11     1     2    1
    12     2     3   am
    13     3     4    2
    14     3     6    1
    15     6     7   ar
    16     7     8   ar
    17     8     9   ar
    18     9    13    1
    19    13    14    1
    20    14    15    1
    21    15    16    1
    22    16    19    1
    23    19    20   ar
    24    20    21   ar
    25    21    22   ar
    26    22    23    1
    27    22    24   ar
    28    24    25    1
    29    24    26   ar
    30    16    17    1
    31    17    18    1
    32     9    10   ar
    33    10    11   ar
    34    11    12    1
    35     1    27    1
    36    27    28    2
    37    27    29   am
    38    29    31    1
    39    31    32   ar
    40    32    33   ar
    41    33    34   ar
    42    34    35   ar
    43    35    36   ar
    44    43    44   ar
    45    44    45   ar
    46    45    46   ar
    47    46    38   ar
    48    46    42   ar
    49    11     6   ar
    50    36    31   ar
    51    18    13    1
    52    26    19   ar
    53     2     5    1
    54    29    30    1
    55    45    47    1
@<TRIPOS>MOLECULE
*****
 50 55 0 0 0
SMALL
GASTEIGER

@<TRIPOS>ATOM
      1 C          10.9974   76.3608   26.6368 C.3     1  UNL1        0.1535
      2 N           9.9811   76.4948   25.5859 N.am    1  UNL1       -0.2945
      3 C           9.6992   75.4326   24.6600 C.2     1  UNL1        0.2483
      4 O          10.4815   74.4459   24.5812 O.2     1  UNL1       -0.2701
      5 H           9.4785   77.4029   25.4645 H       1  UNL1        0.1501
      6 C           8.5189   75.4942   23.7686 C.ar    1  UNL1        0.0808
      7 C           8.6010   76.1984   22.5565 C.ar    1  UNL1        0.0080
      8 C           7.4992   76.2725   21.7011 C.ar    1  UNL1        0.0148
      9 C           6.2914   75.6358   22.0340 C.ar    1  UNL1        0.0502
     10 C           6.2163   74.9122   23.2363 C.ar    1  UNL1        0.0443
     11 C           7.3170   74.8379   24.0960 C.ar    1  UNL1        0.1457
     12 F           7.2150   74.0852   25.2208 F       1  UNL1       -0.2040
     13 N           5.1535   75.7059   21.1473 N.pl3   1  UNL1       -0.3040
     14 C           4.9994   74.6908   20.0904 C.3     1  UNL1        0.1122
     15 C           3.9498   75.1122   19.0613 C.3     1  UNL1        0.1122
     16 N           2.7267   75.5286   19.7561 N.pl3   1  UNL1       -0.3040
     17 C           2.8116   76.4701   20.8825 C.3     1  UNL1        0.1122
     18 C           4.2618   76.8773   21.1799 C.3     1  UNL1        0.1122
     19 C           1.4534   74.9559   19.4047 C.ar    1  UNL1        0.0488
     20 C           0.4314   75.7625   18.8796 C.ar    1  UNL1        0.0154
     21 C          -0.8071   75.2066   18.5490 C.ar    1  UNL1        0.0135
     22 C          -1.0429   73.8415   18.7426 C.ar    1  UNL1        0.0683
     23 CL         -2.6147   73.1792   18.3149 Cl      1  UNL1       -0.0814
     24 C          -0.0286   73.0273   19.2733 C.ar    1  UNL1        0.0694
     25 CL         -0.2859   71.3085   19.5413 Cl      1  UNL1       -0.0813
     26 C           1.2118   73.5863   19.6027 C.ar    1  UNL1        0.0268
     27 C          12.2280   77.1715   26.3021 C.2     1  UNL1        0.2443
     28 O          13.0673   77.4351   27.2064 O.2     1  UNL1       -0.2730
     29 N          12.4997   77.5163   24.9332 N.am    1  UNL1       -0.2825
     30 H          11.8820   77.1062   24.1961 H       1  UNL1        0.1549
     31 C          13.6917   78.1895   24.4997 C.ar    1  UNL1        0.0535
     32 C          13.9485   79.4919   24.9488 C.ar    1  UNL1        0.0353
     33 C          15.1147   80.1446   24.5428 C.ar    1  UNL1        0.1002
     34 N          16.0018   79.5127   23.7294 N.ar    1  UNL1       -0.2422
     35 C          15.7881   78.2431   23.2926 C.ar    1  UNL1        0.1002
     36 C          14.6334   77.5549   23.6737 C.ar    1  UNL1        0.0353
     37 C          10.4138   76.7986   27.9942 C.3     1  UNL1        0.0569
     38 C           5.8861   74.7809   28.1812 C.ar    1  UNL1        0.0503
     39 C           5.2508   75.7568   27.3799 C.ar    1  UNL1        0.0043
     40 C           5.9580   76.8835   26.9120 C.ar    1  UNL1        0.0002
     41 C           7.3146   77.0538   27.2254 C.ar    1  UNL1        0.0012
     42 C           7.9298   76.0789   28.0078 C.ar    1  UNL1        0.0132
     43 C           9.2469   75.9412   28.3979 C.ar    1  UNL1       -0.0017
     44 C           9.3138   74.7246   29.0650 C.ar    1  UNL1        0.0681
     45 N           8.0963   74.1400   29.1061 N.ar    1  UNL1       -0.3522
     46 C           7.2510   74.9748   28.4677 C.ar    1  UNL1        0.0591
     47 H           7.8929   73.1961   29.4987 H       1  UNL1        0.1660
     48 C           4.1974   73.7160   29.8560 C.3     1  UNL1        0.0773
     49 C           5.1093   73.6203   28.6721 C.2     1  UNL1        0.1749
     50 O           5.1856   72.5229   28.0569 O.2     1  UNL1       -0.2913
@<TRIPOS>BOND
     1    48    49    1
     2    49    50    2
     3    49    38    1
     4    38    39   ar
     5    39    40   ar
     6    40    41   ar
     7    41    42   ar
     8    42    43   ar
     9    43    37    1
    10    37     1    1
    11     1     2    1
    12     2     3   am
    13     3     4    2
    14     3     6    1
    15     6     7   ar
    16     7     8   ar
    17     8     9   ar
    18     9    13    1
    19    13    14    1
    20    14    15    1
    21    15    16    1
    22    16    19    1
    23    19    20   ar
    24    20    21   ar
    25    21    22   ar
    26    22    23    1
    27    22    24   ar
    28    24    25    1
    29    24    26   ar
    30    16    17    1
    31    17    18    1
    32     9    10   ar
    33    10    11   ar
    34    11    12    1
    35     1    27    1
    36    27    28    2
    37    27    29   am
    38    29    31    1
    39    31    32   ar
    40    32    33   ar
    41    33    34   ar
    42    34    35   ar
    43    35    36   ar
    44    43    44   ar
    45    44    45   ar
    46    45    46   ar
    47    46    38   ar
    48    46    42   ar
    49    11     6   ar
    50    36    31   ar
    51    18    13    1
    52    26    19   ar
    53     2     5    1
    54    29    30    1
    55    45    47    1
@<TRIPOS>MOLECULE
*****
 50 55 0 0 0
SMALL
GASTEIGER

@<TRIPOS>ATOM
      1 C          10.5178   77.6599   26.8930 C.3     1  UNL1        0.1535
      2 N           9.6493   77.5464   25.7150 N.am    1  UNL1       -0.2945
      3 C           9.1953   76.2744   25.2240 C.2     1  UNL1        0.2483
      4 O           9.7224   75.2121   25.6545 O.2     1  UNL1       -0.2701
      5 H           9.3898   78.4047   25.1783 H       1  UNL1        0.1501
      6 C           8.1381   76.1915   24.1910 C.ar    1  UNL1        0.0808
      7 C           6.9409   75.5154   24.4764 C.ar    1  UNL1        0.0080
      8 C           5.9308   75.4218   23.5161 C.ar    1  UNL1        0.0148
      9 C           6.0909   76.0105   22.2502 C.ar    1  UNL1        0.0502
     10 C           7.2799   76.7063   21.9724 C.ar    1  UNL1        0.0443
     11 C           8.2940   76.8000   22.9309 C.ar    1  UNL1        0.1457
     12 F           9.4027   77.5256   22.6370 F       1  UNL1       -0.2040
     13 N           5.0446   75.9203   21.2587 N.pl3   1  UNL1       -0.3040
     14 C           4.8892   74.6755   20.4857 C.3     1  UNL1        0.1122
     15 C           3.9750   74.8800   19.2772 C.3     1  UNL1        0.1122
     16 N           2.7401   75.5445   19.7080 N.pl3   1  UNL1       -0.3040
     17 C           2.8141   76.7414   20.5592 C.3     1  UNL1        0.1122
     18 C           4.2646   77.1154   20.8960 C.3     1  UNL1        0.1122
     19 C           1.4546   74.9852   19.3805 C.ar    1  UNL1        0.0488
     20 C           0.4188   75.8093   18.9128 C.ar    1  UNL1        0.0154
     21 C          -0.8313   75.2661   18.6055 C.ar    1  UNL1        0.0135
     22 C          -1.0650   73.8963   18.7656 C.ar    1  UNL1        0.0683
     23 CL         -2.6516   73.2503   18.3687 Cl      1  UNL1       -0.0814
     24 C          -0.0366   73.0645   19.2389 C.ar    1  UNL1        0.0694
     25 CL         -0.2904   71.3390   19.4634 Cl      1  UNL1       -0.0813
     26 C           1.2153   73.6107   19.5451 C.ar    1  UNL1        0.0268
     27 C          11.9684   77.7699   26.4839 C.2     1  UNL1        0.2443
     28 O          12.8516   77.1562   27.1433 O.2     1  UNL1       -0.2730
     29 N          12.3128   78.4584   25.2697 N.am    1  UNL1       -0.2825
     30 H          11.5314   78.7784   24.6532 H       1  UNL1        0.1549
     31 C          13.6457   78.5268   24.7399 C.ar    1  UNL1        0.0535
     32 C          14.1436   77.4534   23.9891 C.ar    1  UNL1        0.0353
     33 C          15.4336   77.5223   23.4580 C.ar    1  UNL1        0.1002
     34 N          16.1942   78.6315   23.6561 N.ar    1  UNL1       -0.2422
     35 C          15.7310   79.6952   24.3647 C.ar    1  UNL1        0.1002
     36 C          14.4469   79.6666   24.9146 C.ar    1  UNL1        0.0353
     37 C          10.1010   78.8776   27.7406 C.3     1  UNL1        0.0569
     38 C           5.6962   77.3919   29.4716 C.ar    1  UNL1        0.0503
     39 C           5.0361   77.3830   28.2217 C.ar    1  UNL1        0.0043
     40 C           5.6932   77.8150   27.0512 C.ar    1  UNL1        0.0002
     41 C           7.0243   78.2546   27.1026 C.ar    1  UNL1        0.0012
     42 C           7.6650   78.2486   28.3397 C.ar    1  UNL1        0.0132
     43 C           8.9718   78.5421   28.6745 C.ar    1  UNL1       -0.0017
     44 C           9.0844   78.2540   30.0288 C.ar    1  UNL1        0.0681
     45 N           7.9027   77.8200   30.5198 N.ar    1  UNL1       -0.3522
     46 C           7.0351   77.8273   29.4873 C.ar    1  UNL1        0.0591
     47 H           7.7402   77.4850   31.4934 H       1  UNL1        0.1660
     48 C           3.5037   76.6500   30.6687 C.3     1  UNL1        0.0773
     49 C           4.9706   76.9503   30.6840 C.2     1  UNL1        0.1749
     50 O           5.6088   76.7850   31.7583 O.2     1  UNL1       -0.2913
@<TRIPOS>BOND
     1    48    49    1
     2    49    50    2
     3    49    38    1
     4    38    39   ar
     5    39    40   ar
     6    40    41   ar
     7    41    42   ar
     8    42    43   ar
     9    43    37    1
    10    37     1    1
    11     1     2    1
    12     2     3   am
    13     3     4    2
    14     3     6    1
    15     6     7   ar
    16     7     8   ar
    17     8     9   ar
    18     9    13    1
    19    13    14    1
    20    14    15    1
    21    15    16    1
    22    16    19    1
    23    19    20   ar
    24    20    21   ar
    25    21    22   ar
    26    22    23    1
    27    22    24   ar
    28    24    25    1
    29    24    26   ar
    30    16    17    1
    31    17    18    1
    32     9    10   ar
    33    10    11   ar
    34    11    12    1
    35     1    27    1
    36    27    28    2
    37    27    29   am
    38    29    31    1
    39    31    32   ar
    40    32    33   ar
    41    33    34   ar
    42    34    35   ar
    43    35    36   ar
    44    43    44   ar
    45    44    45   ar
    46    45    46   ar
    47    46    38   ar
    48    46    42   ar
    49    11     6   ar
    50    36    31   ar
    51    18    13    1
    52    26    19   ar
    53     2     5    1
    54    29    30    1
    55    45    47    1
@<TRIPOS>MOLECULE
*****
 50 55 0 0 0
SMALL
GASTEIGER

@<TRIPOS>ATOM
      1 C           9.7841   76.5635   25.4516 C.3     1  UNL1        0.1535
      2 N          10.2364   77.9578   25.3732 N.am    1  UNL1       -0.2945
      3 C          11.5818   78.3411   25.7018 C.2     1  UNL1        0.2483
      4 O          12.3407   77.5224   26.2895 O.2     1  UNL1       -0.2701
      5 H           9.5552   78.7098   25.1230 H       1  UNL1        0.1501
      6 C          12.0830   79.6990   25.3913 C.ar    1  UNL1        0.0808
      7 C          11.1813   80.7735   25.3278 C.ar    1  UNL1        0.0080
      8 C          11.6310   82.0629   25.0335 C.ar    1  UNL1        0.0148
      9 C          12.9955   82.3094   24.8048 C.ar    1  UNL1        0.0502
     10 C          13.9009   81.2380   24.8905 C.ar    1  UNL1        0.0443
     11 C          13.4535   79.9455   25.1829 C.ar    1  UNL1        0.1457
     12 F          14.3696   78.9518   25.3066 F       1  UNL1       -0.2040
     13 N          13.4628   83.6432   24.5070 N.pl3   1  UNL1       -0.3040
     14 C          14.0347   84.4648   25.5882 C.3     1  UNL1        0.1122
     15 C          14.1563   85.9305   25.1699 C.3     1  UNL1        0.1122
     16 N          14.8185   86.0104   23.8633 N.pl3   1  UNL1       -0.3040
     17 C          14.3617   85.1524   22.7599 C.3     1  UNL1        0.1122
     18 C          13.2028   84.2401   23.1863 C.3     1  UNL1        0.1122
     19 C          15.9691   86.8552   23.6755 C.ar    1  UNL1        0.0488
     20 C          16.4039   87.1876   22.3828 C.ar    1  UNL1        0.0154
     21 C          17.5270   87.9990   22.2027 C.ar    1  UNL1        0.0135
     22 C          18.2326   88.4843   23.3087 C.ar    1  UNL1        0.0683
     23 CL         19.6414   89.5022   23.0412 Cl      1  UNL1       -0.0814
     24 C          17.8090   88.1520   24.6062 C.ar    1  UNL1        0.0694
     25 CL         18.6722   88.7329   26.0238 Cl      1  UNL1       -0.0813
     26 C          16.6829   87.3398   24.7842 C.ar    1  UNL1        0.0268
     27 C          10.2824   75.7684   24.2670 C.2     1  UNL1        0.2443
     28 O          10.6635   76.3708   23.2261 O.2     1  UNL1       -0.2730
     29 N          10.4471   74.3452   24.3866 N.am    1  UNL1       -0.2825
     30 H          10.3085   73.9167   25.3300 H       1  UNL1        0.1549
     31 C          11.0122   73.5166   23.3588 C.ar    1  UNL1        0.0535
     32 C          10.2103   72.5518   22.7343 C.ar    1  UNL1        0.0353
     33 C          10.7511   71.7546   21.7229 C.ar    1  UNL1        0.1002
     34 N          12.0433   71.9260   21.3371 N.ar    1  UNL1       -0.2422
     35 C          12.8394   72.8659   21.9123 C.ar    1  UNL1        0.1002
     36 C          12.3385   73.6831   22.9289 C.ar    1  UNL1        0.0353
     37 C          10.2630   75.9266   26.7706 C.3     1  UNL1        0.0569
     38 C           7.3798   77.5001   30.4878 C.ar    1  UNL1        0.0503
     39 C           8.1908   78.5978   30.8559 C.ar    1  UNL1        0.0043
     40 C           9.4267   78.8325   30.2187 C.ar    1  UNL1        0.0002
     41 C           9.8730   77.9834   29.1953 C.ar    1  UNL1        0.0012
     42 C           9.0586   76.9115   28.8365 C.ar    1  UNL1        0.0132
     43 C           9.1970   75.9775   27.8293 C.ar    1  UNL1       -0.0017
     44 C           8.0331   75.2198   27.8597 C.ar    1  UNL1        0.0681
     45 N           7.2165   75.6467   28.8480 N.ar    1  UNL1       -0.3522
     46 C           7.8504   76.6742   29.4491 C.ar    1  UNL1        0.0591
     47 H           6.2594   75.2812   29.0402 H       1  UNL1        0.1660
     48 C           4.7746   77.5316   30.5385 C.3     1  UNL1        0.0773
     49 C           6.0973   77.2714   31.1907 C.2     1  UNL1        0.1749
     50 O           6.1108   76.8088   32.3630 O.2     1  UNL1       -0.2913
@<TRIPOS>BOND
     1    48    49    1
     2    49    50    2
     3    49    38    1
     4    38    39   ar
     5    39    40   ar
     6    40    41   ar
     7    41    42   ar
     8    42    43   ar
     9    43    37    1
    10    37     1    1
    11     1     2    1
    12     2     3   am
    13     3     4    2
    14     3     6    1
    15     6     7   ar
    16     7     8   ar
    17     8     9   ar
    18     9    13    1
    19    13    14    1
    20    14    15    1
    21    15    16    1
    22    16    19    1
    23    19    20   ar
    24    20    21   ar
    25    21    22   ar
    26    22    23    1
    27    22    24   ar
    28    24    25    1
    29    24    26   ar
    30    16    17    1
    31    17    18    1
    32     9    10   ar
    33    10    11   ar
    34    11    12    1
    35     1    27    1
    36    27    28    2
    37    27    29   am
    38    29    31    1
    39    31    32   ar
    40    32    33   ar
    41    33    34   ar
    42    34    35   ar
    43    35    36   ar
    44    43    44   ar
    45    44    45   ar
    46    45    46   ar
    47    46    38   ar
    48    46    42   ar
    49    11     6   ar
    50    36    31   ar
    51    18    13    1
    52    26    19   ar
    53     2     5    1
    54    29    30    1
    55    45    47    1
@<TRIPOS>MOLECULE
*****
 50 55 0 0 0
SMALL
GASTEIGER

@<TRIPOS>ATOM
      1 C           7.9290   74.5769   24.1658 C.3     1  UNL1        0.1535
      2 N           8.6850   75.7746   24.5519 N.am    1  UNL1       -0.2945
      3 C          10.0983   75.8904   24.3189 C.2     1  UNL1        0.2483
      4 O          10.7646   74.8712   23.9890 O.2     1  UNL1       -0.2701
      5 H           8.2024   76.5504   25.0592 H       1  UNL1        0.1501
      6 C          10.7942   77.1853   24.4940 C.ar    1  UNL1        0.0808
      7 C          12.1187   77.2034   24.9602 C.ar    1  UNL1        0.0080
      8 C          12.7942   78.4134   25.1360 C.ar    1  UNL1        0.0148
      9 C          12.1633   79.6340   24.8406 C.ar    1  UNL1        0.0502
     10 C          10.8455   79.6145   24.3528 C.ar    1  UNL1        0.0443
     11 C          10.1658   78.4048   24.1777 C.ar    1  UNL1        0.1457
     12 F           8.9133   78.4314   23.6553 F       1  UNL1       -0.2040
     13 N          12.8628   80.8854   25.0155 N.pl3   1  UNL1       -0.3040
     14 C          12.1646   82.1490   24.7203 C.3     1  UNL1        0.1122
     15 C          13.1435   83.3206   24.6364 C.3     1  UNL1        0.1122
     16 N          14.0155   83.3116   25.8162 N.pl3   1  UNL1       -0.3040
     17 C          14.6751   82.0631   26.2268 C.3     1  UNL1        0.1122
     18 C          14.3064   80.8913   25.3058 C.3     1  UNL1        0.1122
     19 C          14.1612   84.4913   26.6284 C.ar    1  UNL1        0.0488
     20 C          14.1765   84.3932   28.0288 C.ar    1  UNL1        0.0154
     21 C          14.3074   85.5404   28.8154 C.ar    1  UNL1        0.0135
     22 C          14.4197   86.7991   28.2157 C.ar    1  UNL1        0.0683
     23 CL         14.5824   88.2195   29.2395 Cl      1  UNL1       -0.0814
     24 C          14.3992   86.9082   26.8153 C.ar    1  UNL1        0.0694
     25 CL         14.5283   88.4716   26.0207 Cl      1  UNL1       -0.0813
     26 C          14.2690   85.7573   26.0292 C.ar    1  UNL1        0.0268
     27 C           6.4414   74.8320   24.2406 C.2     1  UNL1        0.2443
     28 O           5.6660   73.9045   24.6012 O.2     1  UNL1       -0.2730
     29 N           5.9386   76.1629   24.0342 N.am    1  UNL1       -0.2825
     30 H           6.6349   76.9364   23.9353 H       1  UNL1        0.1549
     31 C           4.5586   76.5291   24.1879 C.ar    1  UNL1        0.0535
     32 C           3.7192   76.5355   23.0658 C.ar    1  UNL1        0.0353
     33 C           2.3725   76.8752   23.2132 C.ar    1  UNL1        0.1002
     34 N           1.8772   77.1821   24.4415 N.ar    1  UNL1       -0.2422
     35 C           2.6634   77.1666   25.5504 C.ar    1  UNL1        0.1002
     36 C           4.0165   76.8341   25.4468 C.ar    1  UNL1        0.0353
     37 C           8.3312   74.1341   22.7456 C.3     1  UNL1        0.0569
     38 C           4.8363   75.7710   19.6292 C.ar    1  UNL1        0.0503
     39 C           3.9823   74.6517   19.7559 C.ar    1  UNL1        0.0043
     40 C           4.3567   73.5385   20.5363 C.ar    1  UNL1        0.0002
     41 C           5.5849   73.5239   21.2135 C.ar    1  UNL1        0.0012
     42 C           6.4117   74.6381   21.0873 C.ar    1  UNL1        0.0132
     43 C           7.6166   74.9343   21.6926 C.ar    1  UNL1       -0.0017
     44 C           7.9291   76.2268   21.2906 C.ar    1  UNL1        0.0681
     45 N           6.9769   76.7073   20.4609 N.ar    1  UNL1       -0.3522
     46 C           6.0562   75.7304   20.3311 C.ar    1  UNL1        0.0591
     47 H           6.9492   77.6728   20.0690 H       1  UNL1        0.1660
     48 C           3.2397   76.8403   17.8690 C.3     1  UNL1        0.0773
     49 C           4.4210   76.9148   18.7862 C.2     1  UNL1        0.1749
     50 O           5.0558   78.0009   18.8647 O.2     1  UNL1       -0.2913
@<TRIPOS>BOND
     1    48    49    1
     2    49    50    2
     3    49    38    1
     4    38    39   ar
     5    39    40   ar
     6    40    41   ar
     7    41    42   ar
     8    42    43   ar
     9    43    37    1
    10    37     1    1
    11     1     2    1
    12     2     3   am
    13     3     4    2
    14     3     6    1
    15     6     7   ar
    16     7     8   ar
    17     8     9   ar
    18     9    13    1
    19    13    14    1
    20    14    15    1
    21    15    16    1
    22    16    19    1
    23    19    20   ar
    24    20    21   ar
    25    21    22   ar
    26    22    23    1
    27    22    24   ar
    28    24    25    1
    29    24    26   ar
    30    16    17    1
    31    17    18    1
    32     9    10   ar
    33    10    11   ar
    34    11    12    1
    35     1    27    1
    36    27    28    2
    37    27    29   am
    38    29    31    1
    39    31    32   ar
    40    32    33   ar
    41    33    34   ar
    42    34    35   ar
    43    35    36   ar
    44    43    44   ar
    45    44    45   ar
    46    45    46   ar
    47    46    38   ar
    48    46    42   ar
    49    11     6   ar
    50    36    31   ar
    51    18    13    1
    52    26    19   ar
    53     2     5    1
    54    29    30    1
    55    45    47    1
@<TRIPOS>MOLECULE
*****
 50 55 0 0 0
SMALL
GASTEIGER

@<TRIPOS>ATOM
      1 C          10.8198   79.1805   25.3937 C.3     1  UNL1        0.1535
      2 N           9.6322   78.7299   24.6579 N.am    1  UNL1       -0.2945
      3 C           9.4497   79.0128   23.2608 C.2     1  UNL1        0.2483
      4 O          10.1948   79.8555   22.6896 O.2     1  UNL1       -0.2701
      5 H           8.8657   78.2335   25.1660 H       1  UNL1        0.1501
      6 C           8.3744   78.3537   22.4856 C.ar    1  UNL1        0.0808
      7 C           8.0111   78.8657   21.2295 C.ar    1  UNL1        0.0080
      8 C           6.9973   78.2622   20.4817 C.ar    1  UNL1        0.0148
      9 C           6.3290   77.1261   20.9691 C.ar    1  UNL1        0.0502
     10 C           6.7079   76.6005   22.2161 C.ar    1  UNL1        0.0443
     11 C           7.7211   77.2037   22.9682 C.ar    1  UNL1        0.1457
     12 F           8.0889   76.6312   24.1426 F       1  UNL1       -0.2040
     13 N           5.2852   76.4970   20.1940 N.pl3   1  UNL1       -0.3040
     14 C           4.8573   75.1293   20.5368 C.3     1  UNL1        0.1122
     15 C           4.0066   74.5159   19.4242 C.3     1  UNL1        0.1122
     16 N           2.9495   75.4592   19.0435 N.pl3   1  UNL1       -0.3040
     17 C           3.2876   76.8650   18.7752 C.3     1  UNL1        0.1122
     18 C           4.7860   77.1398   18.9669 C.3     1  UNL1        0.1122
     19 C           1.5714   75.0436   19.0172 C.ar    1  UNL1        0.0488
     20 C           0.5405   75.9957   19.0582 C.ar    1  UNL1        0.0154
     21 C          -0.7964   75.5897   19.0432 C.ar    1  UNL1        0.0135
     22 C          -1.1212   74.2302   18.9922 C.ar    1  UNL1        0.0683
     23 CL         -2.8152   73.7587   18.9753 Cl      1  UNL1       -0.0814
     24 C          -0.0967   73.2696   18.9571 C.ar    1  UNL1        0.0694
     25 CL         -0.4607   71.5501   18.9019 Cl      1  UNL1       -0.0813
     26 C           1.2419   73.6787   18.9712 C.ar    1  UNL1        0.0268
     27 C          10.4540   79.6083   26.7962 C.2     1  UNL1        0.2443
     28 O          10.3175   80.8345   27.0596 O.2     1  UNL1       -0.2730
     29 N          10.1310   78.6114   27.7803 N.am    1  UNL1       -0.2825
     30 H          10.0637   77.6176   27.4627 H       1  UNL1        0.1549
     31 C           9.6698   78.9162   29.1057 C.ar    1  UNL1        0.0535
     32 C           8.6791   78.1162   29.6905 C.ar    1  UNL1        0.0353
     33 C           8.2390   78.3990   30.9856 C.ar    1  UNL1        0.1002
     34 N           8.7811   79.4351   31.6789 N.ar    1  UNL1       -0.2422
     35 C           9.7562   80.2171   31.1440 C.ar    1  UNL1        0.1002
     36 C          10.2238   79.9696   29.8509 C.ar    1  UNL1        0.0353
     37 C          11.8762   78.0590   25.4284 C.3     1  UNL1        0.0569
     38 C          10.8193   74.0351   22.7271 C.ar    1  UNL1        0.0503
     39 C          11.3273   74.5334   21.5057 C.ar    1  UNL1        0.0043
     40 C          11.8242   75.8496   21.4099 C.ar    1  UNL1        0.0002
     41 C          11.8336   76.6909   22.5322 C.ar    1  UNL1        0.0012
     42 C          11.3388   76.1829   23.7314 C.ar    1  UNL1        0.0132
     43 C          11.2990   76.7408   24.9935 C.ar    1  UNL1       -0.0017
     44 C          10.8088   75.7440   25.8276 C.ar    1  UNL1        0.0681
     45 N          10.5382   74.6255   25.1194 N.ar    1  UNL1       -0.3522
     46 C          10.8540   74.9003   23.8374 C.ar    1  UNL1        0.0591
     47 H          10.2160   73.7195   25.5219 H       1  UNL1        0.1660
     48 C           8.9148   72.3087   22.2991 C.3     1  UNL1        0.0773
     49 C          10.2871   72.6551   22.7881 C.2     1  UNL1        0.1749
     50 O          11.0204   71.7307   23.2313 O.2     1  UNL1       -0.2913
@<TRIPOS>BOND
     1    48    49    1
     2    49    50    2
     3    49    38    1
     4    38    39   ar
     5    39    40   ar
     6    40    41   ar
     7    41    42   ar
     8    42    43   ar
     9    43    37    1
    10    37     1    1
    11     1     2    1
    12     2     3   am
    13     3     4    2
    14     3     6    1
    15     6     7   ar
    16     7     8   ar
    17     8     9   ar
    18     9    13    1
    19    13    14    1
    20    14    15    1
    21    15    16    1
    22    16    19    1
    23    19    20   ar
    24    20    21   ar
    25    21    22   ar
    26    22    23    1
    27    22    24   ar
    28    24    25    1
    29    24    26   ar
    30    16    17    1
    31    17    18    1
    32     9    10   ar
    33    10    11   ar
    34    11    12    1
    35     1    27    1
    36    27    28    2
    37    27    29   am
    38    29    31    1
    39    31    32   ar
    40    32    33   ar
    41    33    34   ar
    42    34    35   ar
    43    35    36   ar
    44    43    44   ar
    45    44    45   ar
    46    45    46   ar
    47    46    38   ar
    48    46    42   ar
    49    11     6   ar
    50    36    31   ar
    51    18    13    1
    52    26    19   ar
    53     2     5    1
    54    29    30    1
    55    45    47    1
@<TRIPOS>MOLECULE
*****
 50 55 0 0 0
SMALL
GASTEIGER

@<TRIPOS>ATOM
      1 C           5.8010   73.4816   21.6522 C.3     1  UNL1        0.1535
      2 N           5.9603   74.2693   22.8807 N.am    1  UNL1       -0.2945
      3 C           6.4600   73.6896   24.0970 C.2     1  UNL1        0.2483
      4 O           6.5531   72.4358   24.2015 O.2     1  UNL1       -0.2701
      5 H           5.6554   75.2687   22.8981 H       1  UNL1        0.1501
      6 C           6.8365   74.5423   25.2471 C.ar    1  UNL1        0.0808
      7 C           7.4476   75.7857   25.0180 C.ar    1  UNL1        0.0080
      8 C           7.8143   76.6057   26.0878 C.ar    1  UNL1        0.0148
      9 C           7.5698   76.2049   27.4124 C.ar    1  UNL1        0.0502
     10 C           6.9379   74.9706   27.6408 C.ar    1  UNL1        0.0443
     11 C           6.5714   74.1464   26.5720 C.ar    1  UNL1        0.1457
     12 F           5.9172   72.9874   26.8380 F       1  UNL1       -0.2040
     13 N           7.9423   77.0547   28.5193 N.pl3   1  UNL1       -0.3040
     14 C           9.3636   77.3796   28.7322 C.3     1  UNL1        0.1122
     15 C           9.5945   77.9929   30.1137 C.3     1  UNL1        0.1122
     16 N           8.6324   79.0788   30.3312 N.pl3   1  UNL1       -0.3040
     17 C           7.2058   78.8568   30.0518 C.3     1  UNL1        0.1122
     18 C           6.9394   77.4388   29.5267 C.3     1  UNL1        0.1122
     19 C           9.0820   80.3871   30.7296 C.ar    1  UNL1        0.0488
     20 C           9.8726   81.1612   29.8656 C.ar    1  UNL1        0.0154
     21 C          10.3166   82.4264   30.2584 C.ar    1  UNL1        0.0135
     22 C           9.9820   82.9326   31.5187 C.ar    1  UNL1        0.0683
     23 CL         10.5603   84.5288   31.9770 Cl      1  UNL1       -0.0814
     24 C           9.1965   82.1629   32.3929 C.ar    1  UNL1        0.0694
     25 CL          8.7606   82.7573   33.9894 Cl      1  UNL1       -0.0813
     26 C           8.7519   80.8961   31.9967 C.ar    1  UNL1        0.0268
     27 C           4.6818   74.0337   20.8000 C.2     1  UNL1        0.2443
     28 O           3.4967   73.6505   21.0005 O.2     1  UNL1       -0.2730
     29 N           4.9575   75.0897   19.8641 N.am    1  UNL1       -0.2825
     30 H           5.9138   75.5121   19.8748 H       1  UNL1        0.1549
     31 C           3.9484   75.7530   19.0871 C.ar    1  UNL1        0.0535
     32 C           4.3218   76.7713   18.1998 C.ar    1  UNL1        0.0353
     33 C           3.3458   77.4083   17.4300 C.ar    1  UNL1        0.1002
     34 N           2.0439   77.0304   17.5310 N.ar    1  UNL1       -0.2422
     35 C           1.6547   76.0338   18.3697 C.ar    1  UNL1        0.1002
     36 C           2.5988   75.3719   19.1588 C.ar    1  UNL1        0.0353
     37 C           7.1239   73.4629   20.8620 C.3     1  UNL1        0.0569
     38 C          11.2999   75.1329   22.9544 C.ar    1  UNL1        0.0503
     39 C          11.8243   73.8622   23.2839 C.ar    1  UNL1        0.0043
     40 C          11.0845   72.6868   23.0401 C.ar    1  UNL1        0.0002
     41 C           9.8119   72.7548   22.4540 C.ar    1  UNL1        0.0012
     42 C           9.3122   74.0131   22.1258 C.ar    1  UNL1        0.0132
     43 C           8.1489   74.3749   21.4763 C.ar    1  UNL1       -0.0017
     44 C           8.2238   75.7527   21.3154 C.ar    1  UNL1        0.0681
     45 N           9.3674   76.2303   21.8535 N.ar    1  UNL1       -0.3522
     46 C          10.0256   75.1660   22.3565 C.ar    1  UNL1        0.0591
     47 H           9.6862   77.2219   21.8115 H       1  UNL1        0.1660
     48 C          11.6798   77.3439   24.2802 C.3     1  UNL1        0.0773
     49 C          12.0949   76.3481   23.2418 C.2     1  UNL1        0.1749
     50 O          13.1756   76.5386   22.6217 O.2     1  UNL1       -0.2913
@<TRIPOS>BOND
     1    48    49    1
     2    49    50    2
     3    49    38    1
     4    38    39   ar
     5    39    40   ar
     6    40    41   ar
     7    41    42   ar
     8    42    43   ar
     9    43    37    1
    10    37     1    1
    11     1     2    1
    12     2     3   am
    13     3     4    2
    14     3     6    1
    15     6     7   ar
    16     7     8   ar
    17     8     9   ar
    18     9    13    1
    19    13    14    1
    20    14    15    1
    21    15    16    1
    22    16    19    1
    23    19    20   ar
    24    20    21   ar
    25    21    22   ar
    26    22    23    1
    27    22    24   ar
    28    24    25    1
    29    24    26   ar
    30    16    17    1
    31    17    18    1
    32     9    10   ar
    33    10    11   ar
    34    11    12    1
    35     1    27    1
    36    27    28    2
    37    27    29   am
    38    29    31    1
    39    31    32   ar
    40    32    33   ar
    41    33    34   ar
    42    34    35   ar
    43    35    36   ar
    44    43    44   ar
    45    44    45   ar
    46    45    46   ar
    47    46    38   ar
    48    46    42   ar
    49    11     6   ar
    50    36    31   ar
    51    18    13    1
    52    26    19   ar
    53     2     5    1
    54    29    30    1
    55    45    47    1
@<TRIPOS>MOLECULE
*****
 50 55 0 0 0
SMALL
GASTEIGER

@<TRIPOS>ATOM
      1 C           7.3561   76.4151   23.9873 C.3     1  UNL1        0.1535
      2 N           8.4001   77.3369   24.4515 N.am    1  UNL1       -0.2945
      3 C           9.4798   77.7547   23.6001 C.2     1  UNL1        0.2483
      4 O           9.6847   77.1562   22.5085 O.2     1  UNL1       -0.2701
      5 H           8.3980   77.6641   25.4439 H       1  UNL1        0.1501
      6 C          10.3810   78.8586   24.0012 C.ar    1  UNL1        0.0808
      7 C           9.9676   80.1893   23.8276 C.ar    1  UNL1        0.0080
      8 C          10.8024   81.2470   24.1960 C.ar    1  UNL1        0.0148
      9 C          12.0673   80.9982   24.7556 C.ar    1  UNL1        0.0502
     10 C          12.4716   79.6664   24.9500 C.ar    1  UNL1        0.0443
     11 C          11.6391   78.6052   24.5803 C.ar    1  UNL1        0.1457
     12 F          12.0494   77.3366   24.8344 F       1  UNL1       -0.2040
     13 N          12.9286   82.0908   25.1431 N.pl3   1  UNL1       -0.3040
     14 C          12.7670   83.4024   24.4914 C.3     1  UNL1        0.1122
     15 C          13.9588   84.3171   24.7760 C.3     1  UNL1        0.1122
     16 N          14.2301   84.3286   26.2176 N.pl3   1  UNL1       -0.3040
     17 C          14.3142   83.0589   26.9547 C.3     1  UNL1        0.1122
     18 C          14.0707   81.8494   26.0407 C.3     1  UNL1        0.1122
     19 C          14.3259   85.5730   26.9352 C.ar    1  UNL1        0.0488
     20 C          14.3527   85.5845   28.3387 C.ar    1  UNL1        0.0154
     21 C          14.4351   86.7940   29.0333 C.ar    1  UNL1        0.0135
     22 C          14.4867   88.0062   28.3374 C.ar    1  UNL1        0.0683
     23 CL         14.5894   89.5075   29.2471 Cl      1  UNL1       -0.0814
     24 C          14.4541   88.0055   26.9329 C.ar    1  UNL1        0.0694
     25 CL         14.5076   89.5068   26.0190 Cl      1  UNL1       -0.0813
     26 C          14.3727   86.7924   26.2391 C.ar    1  UNL1        0.0268
     27 C           7.9595   75.2570   23.2268 C.2     1  UNL1        0.2443
     28 O           7.4992   74.9459   22.0942 O.2     1  UNL1       -0.2730
     29 N           9.1377   74.6102   23.7371 N.am    1  UNL1       -0.2825
     30 H           9.5993   75.0307   24.5756 H       1  UNL1        0.1549
     31 C           9.8469   73.5746   23.0395 C.ar    1  UNL1        0.0535
     32 C           9.1471   72.4513   22.5790 C.ar    1  UNL1        0.0353
     33 C           9.8298   71.4492   21.8857 C.ar    1  UNL1        0.1002
     34 N          11.1623   71.5723   21.6463 N.ar    1  UNL1       -0.2422
     35 C          11.8636   72.6590   22.0652 C.ar    1  UNL1        0.1002
     36 C          11.2195   73.6834   22.7637 C.ar    1  UNL1        0.0353
     37 C           6.5319   75.9048   25.1853 C.3     1  UNL1        0.0569
     38 C           9.1436   77.6522   29.0235 C.ar    1  UNL1        0.0503
     39 C          10.2710   76.8214   28.8320 C.ar    1  UNL1        0.0043
     40 C          10.2833   75.8368   27.8226 C.ar    1  UNL1        0.0002
     41 C           9.1759   75.6683   26.9783 C.ar    1  UNL1        0.0012
     42 C           8.0759   76.5008   27.1726 C.ar    1  UNL1        0.0132
     43 C           6.9018   76.6179   26.4560 C.ar    1  UNL1       -0.0017
     44 C           6.2207   77.6859   27.0263 C.ar    1  UNL1        0.0681
     45 N           6.9250   78.1987   28.0591 N.ar    1  UNL1       -0.3522
     46 C           8.0535   77.4661   28.1520 C.ar    1  UNL1        0.0591
     47 H           6.6578   79.0403   28.6130 H       1  UNL1        0.1660
     48 C           9.9077   79.9520   29.9815 C.3     1  UNL1        0.0773
     49 C           9.1563   78.6627   30.1053 C.2     1  UNL1        0.1749
     50 O           8.4860   78.4536   31.1520 O.2     1  UNL1       -0.2913
@<TRIPOS>BOND
     1    48    49    1
     2    49    50    2
     3    49    38    1
     4    38    39   ar
     5    39    40   ar
     6    40    41   ar
     7    41    42   ar
     8    42    43   ar
     9    43    37    1
    10    37     1    1
    11     1     2    1
    12     2     3   am
    13     3     4    2
    14     3     6    1
    15     6     7   ar
    16     7     8   ar
    17     8     9   ar
    18     9    13    1
    19    13    14    1
    20    14    15    1
    21    15    16    1
    22    16    19    1
    23    19    20   ar
    24    20    21   ar
    25    21    22   ar
    26    22    23    1
    27    22    24   ar
    28    24    25    1
    29    24    26   ar
    30    16    17    1
    31    17    18    1
    32     9    10   ar
    33    10    11   ar
    34    11    12    1
    35     1    27    1
    36    27    28    2
    37    27    29   am
    38    29    31    1
    39    31    32   ar
    40    32    33   ar
    41    33    34   ar
    42    34    35   ar
    43    35    36   ar
    44    43    44   ar
    45    44    45   ar
    46    45    46   ar
    47    46    38   ar
    48    46    42   ar
    49    11     6   ar
    50    36    31   ar
    51    18    13    1
    52    26    19   ar
    53     2     5    1
    54    29    30    1
    55    45    47    1
@<TRIPOS>MOLECULE
*****
 50 55 0 0 0
SMALL
GASTEIGER

@<TRIPOS>ATOM
      1 C           6.8006   73.3508   21.8124 C.3     1  UNL1        0.1535
      2 N           6.8257   74.2931   22.9377 N.am    1  UNL1       -0.2945
      3 C           6.6356   73.8624   24.2954 C.2     1  UNL1        0.2483
      4 O           6.2102   72.6980   24.5297 O.2     1  UNL1       -0.2701
      5 H           6.9317   75.3164   22.7539 H       1  UNL1        0.1501
      6 C           6.8991   74.7788   25.4279 C.ar    1  UNL1        0.0808
      7 C           6.9690   74.2661   26.7333 C.ar    1  UNL1        0.0080
      8 C           7.2136   75.1123   27.8175 C.ar    1  UNL1        0.0148
      9 C           7.4032   76.4907   27.6201 C.ar    1  UNL1        0.0502
     10 C           7.3554   77.0003   26.3113 C.ar    1  UNL1        0.0443
     11 C           7.1087   76.1560   25.2239 C.ar    1  UNL1        0.1457
     12 F           7.1231   76.6837   23.9735 F       1  UNL1       -0.2040
     13 N           7.6627   77.3658   28.7394 N.pl3   1  UNL1       -0.3040
     14 C           9.0393   77.4959   29.2487 C.3     1  UNL1        0.1122
     15 C           9.0658   78.1813   30.6153 C.3     1  UNL1        0.1122
     16 N           8.2670   79.4105   30.5588 N.pl3   1  UNL1       -0.3040
     17 C           6.9161   79.3771   29.9787 C.3     1  UNL1        0.1122
     18 C           6.5432   77.9747   29.4771 C.3     1  UNL1        0.1122
     19 C           8.8257   80.6675   30.9834 C.ar    1  UNL1        0.0488
     20 C           9.5266   81.4771   30.0757 C.ar    1  UNL1        0.0154
     21 C          10.0772   82.6918   30.4924 C.ar    1  UNL1        0.0135
     22 C           9.9398   83.1112   31.8197 C.ar    1  UNL1        0.0683
     23 CL         10.6471   84.6459   32.3061 Cl      1  UNL1       -0.0814
     24 C           9.2455   82.3051   32.7371 C.ar    1  UNL1        0.0694
     25 CL          9.0574   82.7900   34.4169 Cl      1  UNL1       -0.0813
     26 C           8.6938   81.0890   32.3170 C.ar    1  UNL1        0.0268
     27 C           5.9395   73.8778   20.6879 C.2     1  UNL1        0.2443
     28 O           6.0674   73.4008   19.5270 O.2     1  UNL1       -0.2730
     29 N           4.8904   74.8169   20.9782 N.am    1  UNL1       -0.2825
     30 H           4.6928   75.0310   21.9822 H       1  UNL1        0.1549
     31 C           3.9523   75.2948   20.0015 C.ar    1  UNL1        0.0535
     32 C           2.5818   75.0833   20.2027 C.ar    1  UNL1        0.0353
     33 C           1.6647   75.5607   19.2635 C.ar    1  UNL1        0.1002
     34 N           2.1001   76.2399   18.1694 N.ar    1  UNL1       -0.2422
     35 C           3.4221   76.4756   17.9573 C.ar    1  UNL1        0.1002
     36 C           4.3728   76.0139   18.8711 C.ar    1  UNL1        0.0353
     37 C           8.2348   73.0835   21.3158 C.3     1  UNL1        0.0569
     38 C          10.7116   76.8368   23.4096 C.ar    1  UNL1        0.0503
     39 C          10.0983   77.8636   22.6563 C.ar    1  UNL1        0.0043
     40 C           9.1759   77.5608   21.6336 C.ar    1  UNL1        0.0002
     41 C           8.8395   76.2291   21.3491 C.ar    1  UNL1        0.0012
     42 C           9.4445   75.2283   22.1063 C.ar    1  UNL1        0.0132
     43 C           9.2489   73.8617   22.1068 C.ar    1  UNL1       -0.0017
     44 C          10.0314   73.3726   23.1452 C.ar    1  UNL1        0.0681
     45 N          10.6969   74.3804   23.7512 N.ar    1  UNL1       -0.3522
     46 C          10.3435   75.5117   23.1077 C.ar    1  UNL1        0.0591
     47 H          11.3031   74.2827   24.5935 H       1  UNL1        0.1660
     48 C          11.2758   77.4619   25.8757 C.3     1  UNL1        0.0773
     49 C          11.6904   77.1887   24.4629 C.2     1  UNL1        0.1749
     50 O          12.9173   77.2260   24.1767 O.2     1  UNL1       -0.2913
@<TRIPOS>BOND
     1    48    49    1
     2    49    50    2
     3    49    38    1
     4    38    39   ar
     5    39    40   ar
     6    40    41   ar
     7    41    42   ar
     8    42    43   ar
     9    43    37    1
    10    37     1    1
    11     1     2    1
    12     2     3   am
    13     3     4    2
    14     3     6    1
    15     6     7   ar
    16     7     8   ar
    17     8     9   ar
    18     9    13    1
    19    13    14    1
    20    14    15    1
    21    15    16    1
    22    16    19    1
    23    19    20   ar
    24    20    21   ar
    25    21    22   ar
    26    22    23    1
    27    22    24   ar
    28    24    25    1
    29    24    26   ar
    30    16    17    1
    31    17    18    1
    32     9    10   ar
    33    10    11   ar
    34    11    12    1
    35     1    27    1
    36    27    28    2
    37    27    29   am
    38    29    31    1
    39    31    32   ar
    40    32    33   ar
    41    33    34   ar
    42    34    35   ar
    43    35    36   ar
    44    43    44   ar
    45    44    45   ar
    46    45    46   ar
    47    46    38   ar
    48    46    42   ar
    49    11     6   ar
    50    36    31   ar
    51    18    13    1
    52    26    19   ar
    53     2     5    1
    54    29    30    1
    55    45    47    1
