@<TRIPOS>MOLECULE
*****
 51 56 0 0 0
SMALL
GASTEIGER

@<TRIPOS>ATOM
      1 O          59.2687   86.5584   12.3734 O.2     1  UNL1       -0.2701
      2 C          59.8951   86.0507   11.4028 C.2     1  UNL1        0.2483
      3 N          60.5767   84.7981   11.5718 N.am    1  UNL1       -0.2945
      4 H          60.8431   84.2532   10.7204 H       1  UNL1        0.1501
      5 C          59.8877   86.7414   10.0936 C.ar    1  UNL1        0.0808
      6 C          59.1572   86.1948    9.0249 C.ar    1  UNL1        0.0080
      7 C          59.1385   86.8278    7.7795 C.ar    1  UNL1        0.0148
      8 C          59.8440   88.0246    7.5802 C.ar    1  UNL1        0.0502
      9 C          60.5581   88.5831    8.6505 C.ar    1  UNL1        0.0443
     10 C          60.5798   87.9528    9.8986 C.ar    1  UNL1        0.1457
     11 F          61.2332   88.5579   10.9221 F       1  UNL1       -0.2040
     12 N          59.8261   88.6847    6.3003 N.pl3   1  UNL1       -0.3040
     13 C          58.6082   89.3437    5.8159 C.3     1  UNL1        0.1123
     14 C          58.9626   90.6402    5.0823 C.3     1  UNL1        0.1136
     15 N          60.0604   90.4112    4.1316 N.pl3   1  UNL1       -0.2897
     16 C          61.2698   89.7397    4.6251 C.3     1  UNL1        0.1136
     17 C          60.8983   88.4372    5.3306 C.3     1  UNL1        0.1123
     18 C          60.0841   91.0655    2.8468 C.ar    1  UNL1        0.1348
     19 C          61.2643   91.1525    2.0940 C.ar    1  UNL1        0.0708
     20 C          61.2569   91.7904    0.8506 C.ar    1  UNL1        0.1418
     21 O          62.4577   91.8493    0.1390 O.3     1  UNL1       -0.5054
     22 C          60.0542   92.3460    0.3536 C.ar    1  UNL1        0.1242
     23 C          58.8941   92.2247    1.1403 C.ar    1  UNL1        0.1072
     24 N          58.9384   91.5979    2.3440 N.ar    1  UNL1       -0.2290
     25 H          62.5479   92.2863   -0.7682 H       1  UNL1        0.2922
     26 C          60.0023   93.0469   -0.9868 C.3     1  UNL1        0.4228
     27 F          58.8791   93.8479   -1.1047 F       1  UNL1       -0.1657
     28 F          61.1199   93.8479   -1.1367 F       1  UNL1       -0.1657
     29 F          59.9706   92.1077   -2.0017 F       1  UNL1       -0.1657
     30 C          60.7215   84.1642   12.8861 C.3     1  UNL1        0.1535
     31 C          60.4468   82.6897   12.7767 C.2     1  UNL1        0.2443
     32 O          61.3659   81.8642   13.0327 O.2     1  UNL1       -0.2730
     33 N          59.1209   82.2305   12.4706 N.am    1  UNL1       -0.2825
     34 H          58.3317   82.9052   12.5930 H       1  UNL1        0.1549
     35 C          58.8026   80.8773   12.1040 C.ar    1  UNL1        0.0535
     36 C          58.9887   79.8485   13.0377 C.ar    1  UNL1        0.0353
     37 C          58.6591   78.5351   12.6945 C.ar    1  UNL1        0.1002
     38 N          58.1451   78.2595   11.4669 N.ar    1  UNL1       -0.2422
     39 C          57.9349   79.2381   10.5473 C.ar    1  UNL1        0.1002
     40 C          58.2519   80.5648   10.8493 C.ar    1  UNL1        0.0353
     41 C          62.1324   84.3952   13.4519 C.3     1  UNL1        0.0569
     42 C          62.1285   85.4754   14.4942 C.ar    1  UNL1       -0.0017
     43 C          61.7235   85.3483   15.8195 C.ar    1  UNL1        0.0681
     44 N          61.9332   86.5042   16.4899 N.ar    1  UNL1       -0.3523
     45 C          62.4751   87.3559   15.6019 C.ar    1  UNL1        0.0563
     46 C          62.8838   88.6690   15.8308 C.ar    1  UNL1        0.0170
     47 C          63.4481   89.3789   14.7550 C.ar    1  UNL1        0.0015
     48 C          63.5924   88.7664   13.4901 C.ar    1  UNL1        0.0001
     49 C          63.1729   87.4388   13.2888 C.ar    1  UNL1        0.0012
     50 C          62.6134   86.7626   14.3732 C.ar    1  UNL1        0.0131
     51 H          61.7289   86.6883   17.4973 H       1  UNL1        0.1660
@<TRIPOS>BOND
     1     1     2    2
     2     2     3   am
     3     3    30    1
     4    30    41    1
     5    41    42    1
     6    42    43   ar
     7    43    44   ar
     8    44    45   ar
     9    45    46   ar
    10    46    47   ar
    11    47    48   ar
    12    48    49   ar
    13    49    50   ar
    14    30    31    1
    15    31    32    2
    16    31    33   am
    17    33    35    1
    18    35    36   ar
    19    36    37   ar
    20    37    38   ar
    21    38    39   ar
    22    39    40   ar
    23     2     5    1
    24     5     6   ar
    25     6     7   ar
    26     7     8   ar
    27     8    12    1
    28    12    13    1
    29    13    14    1
    30    14    15    1
    31    15    18    1
    32    18    19   ar
    33    19    20   ar
    34    20    21    1
    35    20    22   ar
    36    22    26    1
    37    26    27    1
    38    26    28    1
    39    26    29    1
    40    22    23   ar
    41    23    24   ar
    42    15    16    1
    43    16    17    1
    44     8     9   ar
    45     9    10   ar
    46    10    11    1
    47    50    42   ar
    48    40    35   ar
    49    10     5   ar
    50    50    45   ar
    51    17    12    1
    52    24    18   ar
    53     3     4    1
    54    44    51    1
    55    33    34    1
    56    21    25    1
@<TRIPOS>MOLECULE
*****
 51 56 0 0 0
SMALL
GASTEIGER

@<TRIPOS>ATOM
      1 O          59.1568   86.1927   12.2302 O.2     1  UNL1       -0.2701
      2 C          59.7277   85.6723   11.2325 C.2     1  UNL1        0.2483
      3 N          60.3191   84.3690   11.3497 N.am    1  UNL1       -0.2945
      4 H          60.5304   83.8337   10.4769 H       1  UNL1        0.1501
      5 C          59.7481   86.4032    9.9455 C.ar    1  UNL1        0.0808
      6 C          59.0951   85.8576    8.8273 C.ar    1  UNL1        0.0080
      7 C          59.1039   86.5283    7.6017 C.ar    1  UNL1        0.0148
      8 C          59.7598   87.7624    7.4720 C.ar    1  UNL1        0.0502
      9 C          60.3959   88.3190    8.5913 C.ar    1  UNL1        0.0443
     10 C          60.3897   87.6510    9.8198 C.ar    1  UNL1        0.1457
     11 F          60.9651   88.2530   10.8909 F       1  UNL1       -0.2040
     12 N          59.7699   88.4613    6.2128 N.pl3   1  UNL1       -0.3040
     13 C          58.5804   89.1843    5.7495 C.3     1  UNL1        0.1123
     14 C          58.9882   90.4868    5.0555 C.3     1  UNL1        0.1136
     15 N          60.0762   90.2421    4.0975 N.pl3   1  UNL1       -0.2897
     16 C          61.2567   89.5067    4.5696 C.3     1  UNL1        0.1136
     17 C          60.8316   88.1997    5.2353 C.3     1  UNL1        0.1123
     18 C          60.1275   90.9337    2.8332 C.ar    1  UNL1        0.1348
     19 C          58.9961   91.0351    2.0106 C.ar    1  UNL1        0.0708
     20 C          59.0747   91.7139    0.7915 C.ar    1  UNL1        0.1418
     21 O          57.9197   91.7885    0.0092 O.3     1  UNL1       -0.5054
     22 C          60.2992   92.2996    0.3917 C.ar    1  UNL1        0.1242
     23 C          61.4035   92.1802    1.2553 C.ar    1  UNL1        0.1072
     24 N          61.2904   91.5134    2.4327 N.ar    1  UNL1       -0.2290
     25 H          57.8801   92.2608   -0.8838 H       1  UNL1        0.2922
     26 C          60.4286   93.0418   -0.9210 C.3     1  UNL1        0.4228
     27 F          61.5561   93.8448   -0.9483 F       1  UNL1       -0.1657
     28 F          60.5208   92.1347   -1.9612 F       1  UNL1       -0.1657
     29 F          59.3205   93.8476   -1.1108 F       1  UNL1       -0.1657
     30 C          60.4399   83.6846   12.6409 C.3     1  UNL1        0.1535
     31 C          60.9221   84.6494   13.6889 C.2     1  UNL1        0.2443
     32 O          60.3625   84.6721   14.8194 O.2     1  UNL1       -0.2730
     33 N          62.0699   85.4724   13.4285 N.am    1  UNL1       -0.2825
     34 H          62.6960   85.1984   12.6375 H       1  UNL1        0.1549
     35 C          62.4634   86.5868   14.2473 C.ar    1  UNL1        0.0535
     36 C          62.6136   86.4073   15.6293 C.ar    1  UNL1        0.0353
     37 C          63.0183   87.4808   16.4263 C.ar    1  UNL1        0.1002
     38 N          63.2808   88.6888   15.8612 N.ar    1  UNL1       -0.2422
     39 C          63.1631   88.8885   14.5219 C.ar    1  UNL1        0.1002
     40 C          62.7600   87.8419   13.6888 C.ar    1  UNL1        0.0353
     41 C          59.0926   83.0776   13.0659 C.3     1  UNL1        0.0569
     42 C          58.5733   82.1284   12.0253 C.ar    1  UNL1       -0.0017
     43 C          58.0810   82.4640   10.7677 C.ar    1  UNL1        0.0681
     44 N          57.7781   81.3479   10.0663 N.ar    1  UNL1       -0.3523
     45 C          58.0834   80.3117   10.8666 C.ar    1  UNL1        0.0563
     46 C          57.9626   78.9538   10.5746 C.ar    1  UNL1        0.0170
     47 C          58.3627   78.0315   11.5589 C.ar    1  UNL1        0.0015
     48 C          58.8715   78.4819   12.7975 C.ar    1  UNL1        0.0001
     49 C          58.9842   79.8587   13.0638 C.ar    1  UNL1        0.0012
     50 C          58.5754   80.7483   12.0699 C.ar    1  UNL1        0.0131
     51 H          57.3990   81.3044    9.0942 H       1  UNL1        0.1660
@<TRIPOS>BOND
     1     1     2    2
     2     2     3   am
     3     3    30    1
     4    30    41    1
     5    41    42    1
     6    42    43   ar
     7    43    44   ar
     8    44    45   ar
     9    45    46   ar
    10    46    47   ar
    11    47    48   ar
    12    48    49   ar
    13    49    50   ar
    14    30    31    1
    15    31    32    2
    16    31    33   am
    17    33    35    1
    18    35    36   ar
    19    36    37   ar
    20    37    38   ar
    21    38    39   ar
    22    39    40   ar
    23     2     5    1
    24     5     6   ar
    25     6     7   ar
    26     7     8   ar
    27     8    12    1
    28    12    13    1
    29    13    14    1
    30    14    15    1
    31    15    18    1
    32    18    19   ar
    33    19    20   ar
    34    20    21    1
    35    20    22   ar
    36    22    26    1
    37    26    27    1
    38    26    28    1
    39    26    29    1
    40    22    23   ar
    41    23    24   ar
    42    15    16    1
    43    16    17    1
    44     8     9   ar
    45     9    10   ar
    46    10    11    1
    47    50    42   ar
    48    40    35   ar
    49    10     5   ar
    50    50    45   ar
    51    17    12    1
    52    24    18   ar
    53     3     4    1
    54    44    51    1
    55    33    34    1
    56    21    25    1
