@<TRIPOS>MOLECULE
*****
 50 55 0 0 0
SMALL
GASTEIGER

@<TRIPOS>ATOM
      1 O          59.3897   84.1604   13.5513 O.2     1  UNL1       -0.2701
      2 C          60.4279   84.5317   12.9378 C.2     1  UNL1        0.2483
      3 N          61.7021   83.9680   13.2873 N.am    1  UNL1       -0.2945
      4 H          62.5034   84.0887   12.6270 H       1  UNL1        0.1501
      5 C          60.3074   85.5190   11.8410 C.ar    1  UNL1        0.0808
      6 C          59.3292   85.3379   10.8500 C.ar    1  UNL1        0.0080
      7 C          59.1997   86.2529    9.8025 C.ar    1  UNL1        0.0148
      8 C          60.0406   87.3768    9.7259 C.ar    1  UNL1        0.0502
      9 C          61.0051   87.5692   10.7304 C.ar    1  UNL1        0.0443
     10 C          61.1385   86.6539   11.7793 C.ar    1  UNL1        0.1457
     11 F          62.0486   86.9082   12.7534 F       1  UNL1       -0.2040
     12 N          59.9047   88.3270    8.6456 N.pl3   1  UNL1       -0.3040
     13 C          60.6322   89.6044    8.7047 C.3     1  UNL1        0.1123
     14 C          60.0345   90.6405    7.7478 C.3     1  UNL1        0.1136
     15 N          59.8884   90.0738    6.3994 N.pl3   1  UNL1       -0.2897
     16 C          59.4615   88.6735    6.2391 C.3     1  UNL1        0.1136
     17 C          58.9507   88.0776    7.5555 C.3     1  UNL1        0.1123
     18 C          60.0279   90.9327    5.2449 C.ar    1  UNL1        0.1322
     19 C          61.2635   91.0944    4.5979 C.ar    1  UNL1        0.0401
     20 C          61.3659   91.9311    3.4828 C.ar    1  UNL1        0.0383
     21 I          63.2805   92.1080    2.5796 I       1  UNL1       -0.0424
     22 C          60.2256   92.6149    3.0089 C.ar    1  UNL1        0.0960
     23 C          59.0104   92.4275    3.6908 C.ar    1  UNL1        0.1046
     24 N          58.9449   91.6070    4.7708 N.ar    1  UNL1       -0.2292
     25 C          60.3011   93.5283    1.8050 C.3     1  UNL1        0.4204
     26 F          59.0449   93.9407    1.3943 F       1  UNL1       -0.1658
     27 F          61.0432   94.6522    2.1192 F       1  UNL1       -0.1658
     28 F          60.9020   92.8625    0.7523 F       1  UNL1       -0.1658
     29 C          61.8651   83.0718   14.4355 C.3     1  UNL1        0.1535
     30 C          61.3863   81.6878   14.0779 C.2     1  UNL1        0.2443
     31 O          61.8898   80.6883   14.6599 O.2     1  UNL1       -0.2730
     32 N          60.2869   81.5273   13.1659 N.am    1  UNL1       -0.2825
     33 H          59.8170   82.3933   12.8169 H       1  UNL1        0.1549
     34 C          59.6312   80.2731   12.9206 C.ar    1  UNL1        0.0535
     35 C          59.2975   79.8604   11.6206 C.ar    1  UNL1        0.0353
     36 C          58.6563   78.6334   11.4321 C.ar    1  UNL1        0.1002
     37 N          58.3481   77.8526   12.5015 N.ar    1  UNL1       -0.2422
     38 C          58.6430   78.2364   13.7717 C.ar    1  UNL1        0.1002
     39 C          59.2796   79.4572   14.0043 C.ar    1  UNL1        0.0353
     40 C          63.3406   83.0401   14.8778 C.3     1  UNL1        0.0569
     41 C          63.9009   84.4259   15.0399 C.ar    1  UNL1       -0.0017
     42 C          65.1058   84.8921   14.5226 C.ar    1  UNL1        0.0681
     43 N          65.2317   86.2209   14.7410 N.ar    1  UNL1       -0.3523
     44 C          64.1109   86.6010   15.3785 C.ar    1  UNL1        0.0563
     45 C          63.7596   87.8919   15.7709 C.ar    1  UNL1        0.0170
     46 C          62.5073   88.0750   16.3852 C.ar    1  UNL1        0.0015
     47 C          61.6431   86.9768   16.5890 C.ar    1  UNL1        0.0001
     48 C          62.0233   85.6854   16.1817 C.ar    1  UNL1        0.0012
     49 C          63.2728   85.5339   15.5782 C.ar    1  UNL1        0.0131
     50 H          66.0264   86.8301   14.4449 H       1  UNL1        0.1660
@<TRIPOS>BOND
     1     1     2    2
     2     2     3   am
     3     3    29    1
     4    29    40    1
     5    40    41    1
     6    41    42   ar
     7    42    43   ar
     8    43    44   ar
     9    44    45   ar
    10    45    46   ar
    11    46    47   ar
    12    47    48   ar
    13    48    49   ar
    14    29    30    1
    15    30    31    2
    16    30    32   am
    17    32    34    1
    18    34    35   ar
    19    35    36   ar
    20    36    37   ar
    21    37    38   ar
    22    38    39   ar
    23     2     5    1
    24     5     6   ar
    25     6     7   ar
    26     7     8   ar
    27     8    12    1
    28    12    13    1
    29    13    14    1
    30    14    15    1
    31    15    18    1
    32    18    19   ar
    33    19    20   ar
    34    20    21    1
    35    20    22   ar
    36    22    25    1
    37    25    26    1
    38    25    27    1
    39    25    28    1
    40    22    23   ar
    41    23    24   ar
    42    15    16    1
    43    16    17    1
    44     8     9   ar
    45     9    10   ar
    46    10    11    1
    47    49    41   ar
    48    39    34   ar
    49    10     5   ar
    50    49    44   ar
    51    17    12    1
    52    24    18   ar
    53     3     4    1
    54    43    50    1
    55    32    33    1
@<TRIPOS>MOLECULE
*****
 50 55 0 0 0
SMALL
GASTEIGER

@<TRIPOS>ATOM
      1 O          57.7158   84.5592   12.3082 O.2     1  UNL1       -0.2701
      2 C          58.8744   84.2888   12.7285 C.2     1  UNL1        0.2483
      3 N          59.2995   82.9193   12.8147 N.am    1  UNL1       -0.2945
      4 H          60.3190   82.7152   12.9230 H       1  UNL1        0.1501
      5 C          59.7897   85.3942   13.0926 C.ar    1  UNL1        0.0808
      6 C          61.1470   85.3139   12.7421 C.ar    1  UNL1        0.0080
      7 C          62.0309   86.3417   13.0793 C.ar    1  UNL1        0.0148
      8 C          61.5760   87.4797   13.7679 C.ar    1  UNL1        0.0502
      9 C          60.2127   87.5694   14.0990 C.ar    1  UNL1        0.0443
     10 C          59.3257   86.5412   13.7646 C.ar    1  UNL1        0.1457
     11 F          58.0098   86.6953   14.0590 F       1  UNL1       -0.2040
     12 N          62.4881   88.5461   14.1132 N.pl3   1  UNL1       -0.3040
     13 C          63.0145   88.6376   15.4840 C.3     1  UNL1        0.1123
     14 C          63.5718   90.0325   15.7839 C.3     1  UNL1        0.1136
     15 N          64.5097   90.4506   14.7322 N.pl3   1  UNL1       -0.2897
     16 C          64.2230   90.1202   13.3259 C.3     1  UNL1        0.1136
     17 C          62.7915   89.6053   13.1402 C.3     1  UNL1        0.1123
     18 C          65.6290   91.3009   15.0702 C.ar    1  UNL1        0.1322
     19 C          66.8332   91.2466   14.3501 C.ar    1  UNL1        0.0401
     20 C          67.8971   92.0828   14.7006 C.ar    1  UNL1        0.0383
     21 I          69.6747   91.9196   13.5492 I       1  UNL1       -0.0424
     22 C          67.7599   92.9809   15.7810 C.ar    1  UNL1        0.0960
     23 C          66.5384   92.9974   16.4771 C.ar    1  UNL1        0.1046
     24 N          65.5243   92.1722   16.1105 N.ar    1  UNL1       -0.2292
     25 C          68.8913   93.8997   16.1873 C.3     1  UNL1        0.4204
     26 F          68.4634   94.8854   17.0602 F       1  UNL1       -0.1658
     27 F          69.8828   93.1678   16.8149 F       1  UNL1       -0.1658
     28 F          69.4169   94.5152   15.0659 F       1  UNL1       -0.1658
     29 C          58.3814   81.8049   12.5630 C.3     1  UNL1        0.1535
     30 C          58.4170   81.4307   11.1032 C.2     1  UNL1        0.2443
     31 O          57.9104   80.3370   10.7313 O.2     1  UNL1       -0.2730
     32 N          58.9220   82.3694   10.1387 N.am    1  UNL1       -0.2825
     33 H          59.2038   83.3146   10.4847 H       1  UNL1        0.1549
     34 C          58.8115   82.1898    8.7179 C.ar    1  UNL1        0.0535
     35 C          57.6955   81.5624    8.1413 C.ar    1  UNL1        0.0353
     36 C          57.6347   81.4068    6.7541 C.ar    1  UNL1        0.1002
     37 N          58.6550   81.8491    5.9720 N.ar    1  UNL1       -0.2422
     38 C          59.7551   82.4430    6.5056 C.ar    1  UNL1        0.1002
     39 C          59.8576   82.6140    7.8876 C.ar    1  UNL1        0.0353
     40 C          58.7587   80.5984   13.4437 C.3     1  UNL1        0.0569
     41 C          60.2207   80.2659   13.3323 C.ar    1  UNL1       -0.0017
     42 C          60.7787   79.2617   12.5466 C.ar    1  UNL1        0.0681
     43 N          62.1291   79.3320   12.5782 N.ar    1  UNL1       -0.3523
     44 C          62.4288   80.3801   13.3646 C.ar    1  UNL1        0.0563
     45 C          63.6971   80.8785   13.6596 C.ar    1  UNL1        0.0170
     46 C          63.7813   82.0242   14.4716 C.ar    1  UNL1        0.0015
     47 C          62.6096   82.6407   14.9627 C.ar    1  UNL1        0.0001
     48 C          61.3428   82.1168   14.6478 C.ar    1  UNL1        0.0012
     49 C          61.2906   80.9773   13.8431 C.ar    1  UNL1        0.0131
     50 H          62.7988   78.7141   12.0682 H       1  UNL1        0.1660
@<TRIPOS>BOND
     1     1     2    2
     2     2     3   am
     3     3    29    1
     4    29    40    1
     5    40    41    1
     6    41    42   ar
     7    42    43   ar
     8    43    44   ar
     9    44    45   ar
    10    45    46   ar
    11    46    47   ar
    12    47    48   ar
    13    48    49   ar
    14    29    30    1
    15    30    31    2
    16    30    32   am
    17    32    34    1
    18    34    35   ar
    19    35    36   ar
    20    36    37   ar
    21    37    38   ar
    22    38    39   ar
    23     2     5    1
    24     5     6   ar
    25     6     7   ar
    26     7     8   ar
    27     8    12    1
    28    12    13    1
    29    13    14    1
    30    14    15    1
    31    15    18    1
    32    18    19   ar
    33    19    20   ar
    34    20    21    1
    35    20    22   ar
    36    22    25    1
    37    25    26    1
    38    25    27    1
    39    25    28    1
    40    22    23   ar
    41    23    24   ar
    42    15    16    1
    43    16    17    1
    44     8     9   ar
    45     9    10   ar
    46    10    11    1
    47    49    41   ar
    48    39    34   ar
    49    10     5   ar
    50    49    44   ar
    51    17    12    1
    52    24    18   ar
    53     3     4    1
    54    43    50    1
    55    32    33    1
@<TRIPOS>MOLECULE
*****
 50 55 0 0 0
SMALL
GASTEIGER

@<TRIPOS>ATOM
      1 O          58.4805   85.0810    9.5194 O.2     1  UNL1       -0.2701
      2 C          59.6667   84.7817    9.8282 C.2     1  UNL1        0.2483
      3 N          60.2129   83.5182    9.4173 N.am    1  UNL1       -0.2945
      4 H          61.2484   83.3811    9.4576 H       1  UNL1        0.1501
      5 C          60.4879   85.7573   10.5807 C.ar    1  UNL1        0.0808
      6 C          61.3960   86.5766    9.8909 C.ar    1  UNL1        0.0080
      7 C          62.1854   87.5007   10.5795 C.ar    1  UNL1        0.0148
      8 C          62.0787   87.6339   11.9749 C.ar    1  UNL1        0.0502
      9 C          61.1536   86.8288   12.6621 C.ar    1  UNL1        0.0443
     10 C          60.3634   85.9013   11.9758 C.ar    1  UNL1        0.1457
     11 F          59.4480   85.1828   12.6743 F       1  UNL1       -0.2040
     12 N          62.8911   88.5929   12.6881 N.pl3   1  UNL1       -0.3040
     13 C          63.7225   88.1453   13.8164 C.3     1  UNL1        0.1123
     14 C          64.1379   89.3163   14.7123 C.3     1  UNL1        0.1136
     15 N          64.7189   90.4007   13.9079 N.pl3   1  UNL1       -0.2897
     16 C          64.1416   90.7223   12.5918 C.3     1  UNL1        0.1136
     17 C          62.7943   90.0254   12.3730 C.3     1  UNL1        0.1123
     18 C          65.7581   91.2315   14.4735 C.ar    1  UNL1        0.1322
     19 C          67.0531   91.2546   13.9314 C.ar    1  UNL1        0.0401
     20 C          68.0361   92.0696   14.5001 C.ar    1  UNL1        0.0383
     21 I          69.9623   92.0286   13.6056 I       1  UNL1       -0.0424
     22 C          67.7255   92.8684   15.6218 C.ar    1  UNL1        0.0960
     23 C          66.4177   92.8097   16.1347 C.ar    1  UNL1        0.1046
     24 N          65.4860   92.0076   15.5580 N.ar    1  UNL1       -0.2292
     25 C          68.7653   93.7617   16.2622 C.3     1  UNL1        0.4204
     26 F          69.4992   94.4554   15.3151 F       1  UNL1       -0.1658
     27 F          68.1442   94.6822   17.0864 F       1  UNL1       -0.1658
     28 F          69.6409   92.9954   17.0097 F       1  UNL1       -0.1658
     29 C          59.3920   82.4933    8.7663 C.3     1  UNL1        0.1535
     30 C          60.1216   81.1742    8.7682 C.2     1  UNL1        0.2443
     31 O          60.1216   80.4645    7.7254 O.2     1  UNL1       -0.2730
     32 N          60.9019   80.7928    9.9137 N.am    1  UNL1       -0.2825
     33 H          60.9783   81.4796   10.6978 H       1  UNL1        0.1549
     34 C          61.7885   79.6628    9.9339 C.ar    1  UNL1        0.0535
     35 C          61.5520   78.5584   10.7680 C.ar    1  UNL1        0.0353
     36 C          62.4452   77.4840   10.7560 C.ar    1  UNL1        0.1002
     37 N          63.5405   77.5156    9.9512 N.ar    1  UNL1       -0.2422
     38 C          63.8031   78.5802    9.1478 C.ar    1  UNL1        0.1002
     39 C          62.9383   79.6763    9.1330 C.ar    1  UNL1        0.0353
     40 C          58.0351   82.3660    9.4849 C.3     1  UNL1        0.0569
     41 C          57.9967   81.1653   10.3890 C.ar    1  UNL1       -0.0017
     42 C          57.5352   79.8962   10.0525 C.ar    1  UNL1        0.0681
     43 N          57.7741   79.0241   11.0583 N.ar    1  UNL1       -0.3523
     44 C          58.3952   79.7273   12.0209 C.ar    1  UNL1        0.0563
     45 C          58.8845   79.2468   13.2348 C.ar    1  UNL1        0.0170
     46 C          59.5504   80.1525   14.0806 C.ar    1  UNL1        0.0015
     47 C          59.7128   81.5020   13.6975 C.ar    1  UNL1        0.0001
     48 C          59.2098   81.9589   12.4660 C.ar    1  UNL1        0.0012
     49 C          58.5508   81.0383   11.6494 C.ar    1  UNL1        0.0131
     50 H          57.5480   78.0047   11.0680 H       1  UNL1        0.1660
@<TRIPOS>BOND
     1     1     2    2
     2     2     3   am
     3     3    29    1
     4    29    40    1
     5    40    41    1
     6    41    42   ar
     7    42    43   ar
     8    43    44   ar
     9    44    45   ar
    10    45    46   ar
    11    46    47   ar
    12    47    48   ar
    13    48    49   ar
    14    29    30    1
    15    30    31    2
    16    30    32   am
    17    32    34    1
    18    34    35   ar
    19    35    36   ar
    20    36    37   ar
    21    37    38   ar
    22    38    39   ar
    23     2     5    1
    24     5     6   ar
    25     6     7   ar
    26     7     8   ar
    27     8    12    1
    28    12    13    1
    29    13    14    1
    30    14    15    1
    31    15    18    1
    32    18    19   ar
    33    19    20   ar
    34    20    21    1
    35    20    22   ar
    36    22    25    1
    37    25    26    1
    38    25    27    1
    39    25    28    1
    40    22    23   ar
    41    23    24   ar
    42    15    16    1
    43    16    17    1
    44     8     9   ar
    45     9    10   ar
    46    10    11    1
    47    49    41   ar
    48    39    34   ar
    49    10     5   ar
    50    49    44   ar
    51    17    12    1
    52    24    18   ar
    53     3     4    1
    54    43    50    1
    55    32    33    1
@<TRIPOS>MOLECULE
*****
 50 55 0 0 0
SMALL
GASTEIGER

@<TRIPOS>ATOM
      1 O          59.0692   86.8908   12.0700 O.2     1  UNL1       -0.2701
      2 C          59.8092   86.6030   11.0894 C.2     1  UNL1        0.2483
      3 N          60.6024   85.4057   11.1224 N.am    1  UNL1       -0.2945
      4 H          61.0126   85.0497   10.2294 H       1  UNL1        0.1501
      5 C          59.8189   87.4900    9.9039 C.ar    1  UNL1        0.0808
      6 C          60.4483   88.7428    9.9810 C.ar    1  UNL1        0.0080
      7 C          60.4659   89.5993    8.8776 C.ar    1  UNL1        0.0148
      8 C          59.8617   89.2189    7.6666 C.ar    1  UNL1        0.0502
      9 C          59.2510   87.9554    7.5835 C.ar    1  UNL1        0.0443
     10 C          59.2299   87.0966    8.6870 C.ar    1  UNL1        0.1457
     11 F          58.6743   85.8666    8.5441 F       1  UNL1       -0.2040
     12 N          59.8834   90.1017    6.5227 N.pl3   1  UNL1       -0.3040
     13 C          61.1055   90.2099    5.7107 C.3     1  UNL1        0.1123
     14 C          61.1065   91.4817    4.8569 C.3     1  UNL1        0.1136
     15 N          59.8503   91.5976    4.1023 N.pl3   1  UNL1       -0.2897
     16 C          58.5803   91.2039    4.7354 C.3     1  UNL1        0.1136
     17 C          58.7386   90.9803    6.2434 C.3     1  UNL1        0.1123
     18 C          59.8547   92.2265    2.8005 C.ar    1  UNL1        0.1322
     19 C          61.0501   92.6408    2.1918 C.ar    1  UNL1        0.0401
     20 C          61.0215   93.2448    0.9315 C.ar    1  UNL1        0.0383
     21 I          62.8848   93.8367    0.1007 I       1  UNL1       -0.0424
     22 C          59.7886   93.4394    0.2721 C.ar    1  UNL1        0.0960
     23 C          58.6163   93.0140    0.9214 C.ar    1  UNL1        0.1046
     24 N          58.6790   92.4300    2.1457 N.ar    1  UNL1       -0.2292
     25 C          59.7215   94.0900   -1.0922 C.3     1  UNL1        0.4204
     26 F          60.8261   94.8887   -1.3346 F       1  UNL1       -0.1658
     27 F          59.6709   93.1144   -2.0711 F       1  UNL1       -0.1658
     28 F          58.5904   94.8814   -1.1757 F       1  UNL1       -0.1658
     29 C          60.6931   84.5683   12.3219 C.3     1  UNL1        0.1535
     30 C          61.3407   85.3436   13.4408 C.2     1  UNL1        0.2443
     31 O          61.8870   84.7199   14.3915 O.2     1  UNL1       -0.2730
     32 N          61.4299   86.7758   13.3573 N.am    1  UNL1       -0.2825
     33 H          61.0820   87.2324   12.4838 H       1  UNL1        0.1549
     34 C          62.1996   87.5809   14.2643 C.ar    1  UNL1        0.0535
     35 C          61.8381   87.7164   15.6143 C.ar    1  UNL1        0.0353
     36 C          62.6160   88.5140   16.4576 C.ar    1  UNL1        0.1002
     37 N          63.7067   89.1624   15.9696 N.ar    1  UNL1       -0.2422
     38 C          64.0683   89.0635   14.6630 C.ar    1  UNL1        0.1002
     39 C          63.3156   88.2803   13.7856 C.ar    1  UNL1        0.0353
     40 C          59.2909   84.0827   12.7363 C.3     1  UNL1        0.0569
     41 C          59.0371   82.6710   12.2857 C.ar    1  UNL1       -0.0017
     42 C          59.0278   81.5382   13.0941 C.ar    1  UNL1        0.0681
     43 N          58.6295   80.4560   12.3873 N.ar    1  UNL1       -0.3523
     44 C          58.3733   80.8976   11.1438 C.ar    1  UNL1        0.0563
     45 C          57.8874   80.1555   10.0681 C.ar    1  UNL1        0.0170
     46 C          57.6418   80.8321    8.8594 C.ar    1  UNL1        0.0015
     47 C          57.8820   82.2198    8.7549 C.ar    1  UNL1        0.0001
     48 C          58.3713   82.9436    9.8571 C.ar    1  UNL1        0.0012
     49 C          58.6088   82.2448   11.0420 C.ar    1  UNL1        0.0131
     50 H          58.5157   79.4823   12.7470 H       1  UNL1        0.1660
@<TRIPOS>BOND
     1     1     2    2
     2     2     3   am
     3     3    29    1
     4    29    40    1
     5    40    41    1
     6    41    42   ar
     7    42    43   ar
     8    43    44   ar
     9    44    45   ar
    10    45    46   ar
    11    46    47   ar
    12    47    48   ar
    13    48    49   ar
    14    29    30    1
    15    30    31    2
    16    30    32   am
    17    32    34    1
    18    34    35   ar
    19    35    36   ar
    20    36    37   ar
    21    37    38   ar
    22    38    39   ar
    23     2     5    1
    24     5     6   ar
    25     6     7   ar
    26     7     8   ar
    27     8    12    1
    28    12    13    1
    29    13    14    1
    30    14    15    1
    31    15    18    1
    32    18    19   ar
    33    19    20   ar
    34    20    21    1
    35    20    22   ar
    36    22    25    1
    37    25    26    1
    38    25    27    1
    39    25    28    1
    40    22    23   ar
    41    23    24   ar
    42    15    16    1
    43    16    17    1
    44     8     9   ar
    45     9    10   ar
    46    10    11    1
    47    49    41   ar
    48    39    34   ar
    49    10     5   ar
    50    49    44   ar
    51    17    12    1
    52    24    18   ar
    53     3     4    1
    54    43    50    1
    55    32    33    1
@<TRIPOS>MOLECULE
*****
 50 55 0 0 0
SMALL
GASTEIGER

@<TRIPOS>ATOM
      1 O          59.1160   86.0033    8.2237 O.2     1  UNL1       -0.2701
      2 C          59.9876   85.5469    9.0137 C.2     1  UNL1        0.2483
      3 N          60.2056   84.1291    9.0920 N.am    1  UNL1       -0.2945
      4 H          61.0773   83.7790    9.5507 H       1  UNL1        0.1501
      5 C          60.7967   86.4871    9.8221 C.ar    1  UNL1        0.0808
      6 C          61.1124   87.7530    9.3028 C.ar    1  UNL1        0.0080
      7 C          61.8788   88.6552   10.0443 C.ar    1  UNL1        0.0148
      8 C          62.3405   88.3160   11.3280 C.ar    1  UNL1        0.0502
      9 C          62.0055   87.0570   11.8561 C.ar    1  UNL1        0.0443
     10 C          61.2402   86.1508   11.1154 C.ar    1  UNL1        0.1457
     11 F          60.8983   84.9681   11.6866 F       1  UNL1       -0.2040
     12 N          63.1293   89.2502   12.0984 N.pl3   1  UNL1       -0.3040
     13 C          63.6524   88.8488   13.4138 C.3     1  UNL1        0.1123
     14 C          64.0512   90.0629   14.2583 C.3     1  UNL1        0.1136
     15 N          64.9280   90.9594   13.4914 N.pl3   1  UNL1       -0.2897
     16 C          64.6698   91.1822   12.0587 C.3     1  UNL1        0.1136
     17 C          63.3040   90.6331   11.6321 C.3     1  UNL1        0.1123
     18 C          65.9470   91.7212   14.1781 C.ar    1  UNL1        0.1322
     19 C          67.3034   91.6060   13.8342 C.ar    1  UNL1        0.0401
     20 C          68.2650   92.3572   14.5161 C.ar    1  UNL1        0.0383
     21 I          70.2884   92.1070   13.9201 I       1  UNL1       -0.0424
     22 C          67.8707   93.2307   15.5526 C.ar    1  UNL1        0.0960
     23 C          66.5025   93.3102   15.8667 C.ar    1  UNL1        0.1046
     24 N          65.5938   92.5670   15.1842 N.ar    1  UNL1       -0.2292
     25 C          68.8851   94.0581   16.3112 C.3     1  UNL1        0.4204
     26 F          69.7628   93.2628   17.0280 F       1  UNL1       -0.1658
     27 F          69.6209   94.8214   15.4232 F       1  UNL1       -0.1658
     28 F          68.2337   94.8923   17.2014 F       1  UNL1       -0.1658
     29 C          59.3494   83.1725    8.3849 C.3     1  UNL1        0.1535
     30 C          59.8898   81.7758    8.5570 C.2     1  UNL1        0.2443
     31 O          59.8006   80.9549    7.6034 O.2     1  UNL1       -0.2730
     32 N          60.6001   81.4291    9.7577 N.am    1  UNL1       -0.2825
     33 H          60.7640   82.1866   10.4590 H       1  UNL1        0.1549
     34 C          61.3218   80.1993    9.9301 C.ar    1  UNL1        0.0535
     35 C          60.9478   79.2580   10.9025 C.ar    1  UNL1        0.0353
     36 C          61.6833   78.0775   11.0354 C.ar    1  UNL1        0.1002
     37 N          62.7597   77.8500   10.2367 N.ar    1  UNL1       -0.2422
     38 C          63.1546   78.7525    9.3002 C.ar    1  UNL1        0.1002
     39 C          62.4498   79.9469    9.1377 C.ar    1  UNL1        0.0353
     40 C          57.9042   83.2658    8.9105 C.3     1  UNL1        0.0569
     41 C          57.8524   83.1738   10.4103 C.ar    1  UNL1       -0.0017
     42 C          58.1015   82.0375   11.1742 C.ar    1  UNL1        0.0681
     43 N          58.1033   82.3442   12.4914 N.ar    1  UNL1       -0.3523
     44 C          57.8722   83.6663   12.5659 C.ar    1  UNL1        0.0563
     45 C          57.8315   84.4525   13.7166 C.ar    1  UNL1        0.0170
     46 C          57.6219   85.8350   13.5619 C.ar    1  UNL1        0.0015
     47 C          57.4622   86.3947   12.2753 C.ar    1  UNL1        0.0001
     48 C          57.5091   85.5774   11.1315 C.ar    1  UNL1        0.0012
     49 C          57.7150   84.2092   11.3163 C.ar    1  UNL1        0.0131
     50 H          58.2799   81.6890   13.2851 H       1  UNL1        0.1660
@<TRIPOS>BOND
     1     1     2    2
     2     2     3   am
     3     3    29    1
     4    29    40    1
     5    40    41    1
     6    41    42   ar
     7    42    43   ar
     8    43    44   ar
     9    44    45   ar
    10    45    46   ar
    11    46    47   ar
    12    47    48   ar
    13    48    49   ar
    14    29    30    1
    15    30    31    2
    16    30    32   am
    17    32    34    1
    18    34    35   ar
    19    35    36   ar
    20    36    37   ar
    21    37    38   ar
    22    38    39   ar
    23     2     5    1
    24     5     6   ar
    25     6     7   ar
    26     7     8   ar
    27     8    12    1
    28    12    13    1
    29    13    14    1
    30    14    15    1
    31    15    18    1
    32    18    19   ar
    33    19    20   ar
    34    20    21    1
    35    20    22   ar
    36    22    25    1
    37    25    26    1
    38    25    27    1
    39    25    28    1
    40    22    23   ar
    41    23    24   ar
    42    15    16    1
    43    16    17    1
    44     8     9   ar
    45     9    10   ar
    46    10    11    1
    47    49    41   ar
    48    39    34   ar
    49    10     5   ar
    50    49    44   ar
    51    17    12    1
    52    24    18   ar
    53     3     4    1
    54    43    50    1
    55    32    33    1
@<TRIPOS>MOLECULE
*****
 50 55 0 0 0
SMALL
GASTEIGER

@<TRIPOS>ATOM
      1 O          60.5148   84.6053   13.8475 O.2     1  UNL1       -0.2701
      2 C          61.3606   84.7484   12.9221 C.2     1  UNL1        0.2483
      3 N          62.5912   84.0082   12.9609 N.am    1  UNL1       -0.2945
      4 H          63.1651   83.9410   12.0898 H       1  UNL1        0.1501
      5 C          61.0519   85.6531   11.7915 C.ar    1  UNL1        0.0808
      6 C          61.6918   86.9002   11.7073 C.ar    1  UNL1        0.0080
      7 C          61.4131   87.7731   10.6531 C.ar    1  UNL1        0.0148
      8 C          60.4934   87.4155    9.6519 C.ar    1  UNL1        0.0502
      9 C          59.8696   86.1578    9.7249 C.ar    1  UNL1        0.0443
     10 C          60.1450   85.2825   10.7802 C.ar    1  UNL1        0.1457
     11 F          59.5581   84.0588   10.7811 F       1  UNL1       -0.2040
     12 N          60.2076   88.3154    8.5578 N.pl3   1  UNL1       -0.3040
     13 C          60.6427   89.7186    8.6378 C.3     1  UNL1        0.1123
     14 C          59.8823   90.6040    7.6457 C.3     1  UNL1        0.1136
     15 N          59.9221   90.0200    6.2973 N.pl3   1  UNL1       -0.2897
     16 C          59.8113   88.5609    6.1309 C.3     1  UNL1        0.1136
     17 C          59.3796   87.8689    7.4284 C.3     1  UNL1        0.1123
     18 C          59.9280   90.8896    5.1423 C.ar    1  UNL1        0.1322
     19 C          61.1144   91.1774    4.4488 C.ar    1  UNL1        0.0401
     20 C          61.0873   92.0210    3.3346 C.ar    1  UNL1        0.0383
     21 I          62.9370   92.3936    2.3589 I       1  UNL1       -0.0424
     22 C          59.8654   92.5850    2.9085 C.ar    1  UNL1        0.0960
     23 C          58.7032   92.2737    3.6361 C.ar    1  UNL1        0.1046
     24 N          58.7641   91.4500    4.7138 N.ar    1  UNL1       -0.2292
     25 C          59.8002   93.5023    1.7070 C.3     1  UNL1        0.4204
     26 F          60.8216   93.2444    0.8087 F       1  UNL1       -0.1658
     27 F          58.5948   93.3268    1.0523 F       1  UNL1       -0.1658
     28 F          59.9101   94.8179    2.1189 F       1  UNL1       -0.1658
     29 C          62.9679   83.1898   14.1169 C.3     1  UNL1        0.1535
     30 C          63.1801   84.0707   15.3217 C.2     1  UNL1        0.2443
     31 O          64.1413   83.8315   16.1027 O.2     1  UNL1       -0.2730
     32 N          62.3596   85.2365   15.5057 N.am    1  UNL1       -0.2825
     33 H          61.6668   85.4640   14.7568 H       1  UNL1        0.1549
     34 C          62.6130   86.2406   16.5010 C.ar    1  UNL1        0.0535
     35 C          62.4534   85.9744   17.8704 C.ar    1  UNL1        0.0353
     36 C          62.7079   86.9847   18.8014 C.ar    1  UNL1        0.1002
     37 N          63.0950   88.2185   18.3815 N.ar    1  UNL1       -0.2422
     38 C          63.2392   88.5084   17.0614 C.ar    1  UNL1        0.1002
     39 C          62.9905   87.5286   16.0981 C.ar    1  UNL1        0.0353
     40 C          61.8793   82.1363   14.3976 C.3     1  UNL1        0.0569
     41 C          61.6257   81.2673   13.1972 C.ar    1  UNL1       -0.0017
     42 C          62.5132   80.3494   12.6435 C.ar    1  UNL1        0.0681
     43 N          61.9108   79.6434   11.6596 N.ar    1  UNL1       -0.3523
     44 C          60.6469   80.0968   11.5967 C.ar    1  UNL1        0.0563
     45 C          59.6261   79.6379   10.7653 C.ar    1  UNL1        0.0170
     46 C          58.3546   80.2248   10.8992 C.ar    1  UNL1        0.0015
     47 C          58.1337   81.2437   11.8518 C.ar    1  UNL1        0.0001
     48 C          59.1822   81.6861   12.6784 C.ar    1  UNL1        0.0012
     49 C          60.4334   81.0877   12.5205 C.ar    1  UNL1        0.0131
     50 H          62.3363   78.8799   11.0883 H       1  UNL1        0.1660
@<TRIPOS>BOND
     1     1     2    2
     2     2     3   am
     3     3    29    1
     4    29    40    1
     5    40    41    1
     6    41    42   ar
     7    42    43   ar
     8    43    44   ar
     9    44    45   ar
    10    45    46   ar
    11    46    47   ar
    12    47    48   ar
    13    48    49   ar
    14    29    30    1
    15    30    31    2
    16    30    32   am
    17    32    34    1
    18    34    35   ar
    19    35    36   ar
    20    36    37   ar
    21    37    38   ar
    22    38    39   ar
    23     2     5    1
    24     5     6   ar
    25     6     7   ar
    26     7     8   ar
    27     8    12    1
    28    12    13    1
    29    13    14    1
    30    14    15    1
    31    15    18    1
    32    18    19   ar
    33    19    20   ar
    34    20    21    1
    35    20    22   ar
    36    22    25    1
    37    25    26    1
    38    25    27    1
    39    25    28    1
    40    22    23   ar
    41    23    24   ar
    42    15    16    1
    43    16    17    1
    44     8     9   ar
    45     9    10   ar
    46    10    11    1
    47    49    41   ar
    48    39    34   ar
    49    10     5   ar
    50    49    44   ar
    51    17    12    1
    52    24    18   ar
    53     3     4    1
    54    43    50    1
    55    32    33    1
