@<TRIPOS>MOLECULE
*****
 35 39 0 0 0
SMALL
GASTEIGER

@<TRIPOS>ATOM
      1 C          50.0560   11.5431  -19.2962 C.2     1  UNL1        0.2491
      2 O          51.2855   11.3113  -19.4577 O.2     1  UNL1       -0.2699
      3 N          49.1294   11.1835  -20.3379 N.am    1  UNL1       -0.2760
      4 C          47.8954   10.4558  -20.0206 C.3     1  UNL1        0.0954
      5 C          46.6938   11.0160  -20.8071 C.3     1  UNL1        0.0399
      6 C          47.0686   11.7018  -22.1625 C.3     1  UNL1        0.0645
      7 C          48.3885   11.0942  -22.7097 C.3     1  UNL1        0.0399
      8 C          49.5681   11.2610  -21.7366 C.3     1  UNL1        0.0954
      9 C          47.2219   13.2536  -21.9440 C.3     1  UNL1        0.0482
     10 C          47.2203   13.9800  -23.2549 C.ar    1  UNL1        0.0268
     11 C          46.5215   13.5462  -24.3342 C.ar    1  UNL1        0.1520
     12 N          46.5424   14.4632  -25.3143 N.ar    1  UNL1       -0.1646
     13 N          47.2481   15.5020  -24.8711 N.ar    1  UNL1       -0.2486
     14 C          47.6610   15.2394  -23.5964 C.ar    1  UNL1        0.1094
     15 BR         48.6263   16.3925  -22.4054 Br      1  UNL1       -0.0287
     16 C          45.8340   12.2641  -24.3186 C.2     1  UNL1        0.2650
     17 O          45.1076   11.8988  -25.2804 O.2     1  UNL1       -0.2684
     18 N          46.0014   11.4310  -23.1593 N.am    1  UNL1       -0.3023
     19 H          45.5132   10.5067  -23.1576 H       1  UNL1        0.1497
     20 C          46.7714   15.4218  -15.8562 C.ar    1  UNL1        0.2249
     21 C          47.2792   15.0616  -14.6042 C.ar    1  UNL1        0.0577
     22 C          48.2513   14.0631  -14.5140 C.ar    1  UNL1        0.0063
     23 C          48.7103   13.4314  -15.6765 C.ar    1  UNL1        0.0179
     24 C          49.6817   12.4240  -15.6229 C.ar    1  UNL1        0.0016
     25 C          50.1207   11.8113  -16.8000 C.ar    1  UNL1        0.0046
     26 C          49.6026   12.2022  -18.0482 C.ar    1  UNL1        0.0551
     27 C          48.6173   13.2045  -18.0978 C.ar    1  UNL1        0.0237
     28 C          48.1747   13.8212  -16.9226 C.ar    1  UNL1        0.0845
     29 N          47.2285   14.7968  -16.9782 N.ar    1  UNL1       -0.2117
     30 C          44.4263   16.1866  -15.6462 C.3     1  UNL1        0.2542
     31 O          45.7983   16.4218  -15.9401 O.3     1  UNL1       -0.4561
     32 C          47.4742   16.7246  -25.6798 C.3     1  UNL1        0.0872
     33 C          48.9850   16.9868  -25.8406 C.3     1  UNL1        0.0244
     34 C          46.8717   16.5485  -27.0943 C.3     1  UNL1        0.0244
     35 C          46.7855   17.9341  -25.0181 C.3     1  UNL1        0.0244
@<TRIPOS>BOND
     1    30    31    1
     2    31    20    1
     3    20    21   ar
     4    21    22   ar
     5    22    23   ar
     6    23    24   ar
     7    24    25   ar
     8    25    26   ar
     9    26     1    1
    10     1     2    2
    11     1     3   am
    12     3     4    1
    13     4     5    1
    14     5     6    1
    15     6     7    1
    16     7     8    1
    17     6     9    1
    18     9    10    1
    19    10    11   ar
    20    11    12   ar
    21    12    13   ar
    22    13    32    1
    23    32    33    1
    24    32    34    1
    25    32    35    1
    26    13    14   ar
    27    14    15    1
    28    11    16    1
    29    16    17    2
    30    16    18   am
    31    26    27   ar
    32    27    28   ar
    33    28    29   ar
    34    29    20   ar
    35    28    23   ar
    36     8     3    1
    37    14    10   ar
    38    18     6    1
    39    18    19    1
@<TRIPOS>MOLECULE
*****
 35 39 0 0 0
SMALL
GASTEIGER

@<TRIPOS>ATOM
      1 C          49.3429    8.5224  -27.9072 C.2     1  UNL1        0.2491
      2 O          49.0883    7.3057  -27.6916 O.2     1  UNL1       -0.2699
      3 N          50.4919    9.1226  -27.2805 N.am    1  UNL1       -0.2760
      4 C          51.4273    9.9387  -28.0626 C.3     1  UNL1        0.0954
      5 C          51.8524   11.2033  -27.2902 C.3     1  UNL1        0.0399
      6 C          51.7876   11.0646  -25.7332 C.3     1  UNL1        0.0645
      7 C          51.9682    9.5756  -25.3318 C.3     1  UNL1        0.0399
      8 C          50.8968    8.6596  -25.9477 C.3     1  UNL1        0.0954
      9 C          50.4079   11.6155  -25.2114 C.3     1  UNL1        0.0482
     10 C          50.4471   11.8358  -23.7295 C.ar    1  UNL1        0.0268
     11 C          51.5770   12.1964  -23.0701 C.ar    1  UNL1        0.1520
     12 N          51.3043   12.5033  -21.7920 N.ar    1  UNL1       -0.1646
     13 N          49.9927   12.3521  -21.6185 N.ar    1  UNL1       -0.2486
     14 C          49.4362   11.9608  -22.8023 C.ar    1  UNL1        0.1094
     15 BR         47.5808   11.6808  -23.2010 Br      1  UNL1       -0.0287
     16 C          52.8591   12.2594  -23.7548 C.2     1  UNL1        0.2650
     17 O          53.8923   12.6830  -23.1727 O.2     1  UNL1       -0.2684
     18 N          52.9047   11.8328  -25.1268 N.am    1  UNL1       -0.3023
     19 H          53.8303   11.8707  -25.6109 H       1  UNL1        0.1497
     20 C          45.8159   13.2757  -29.5297 C.ar    1  UNL1        0.2249
     21 C          45.4337   12.8213  -30.7957 C.ar    1  UNL1        0.0577
     22 C          45.9009   11.5890  -31.2576 C.ar    1  UNL1        0.0063
     23 C          46.7467   10.8181  -30.4503 C.ar    1  UNL1        0.0179
     24 C          47.2365    9.5794  -30.8829 C.ar    1  UNL1        0.0016
     25 C          48.0791    8.8320  -30.0552 C.ar    1  UNL1        0.0046
     26 C          48.4373    9.3067  -28.7802 C.ar    1  UNL1        0.0551
     27 C          47.9550   10.5572  -28.3541 C.ar    1  UNL1        0.0237
     28 C          47.1110   11.3091  -29.1785 C.ar    1  UNL1        0.0845
     29 N          46.6402   12.5135  -28.7565 N.ar    1  UNL1       -0.2117
     30 C          45.8918   15.1690  -27.9367 C.3     1  UNL1        0.2542
     31 O          45.3453   14.5101  -29.0730 O.3     1  UNL1       -0.4561
     32 C          49.3162   12.6198  -20.3259 C.3     1  UNL1        0.0872
     33 C          48.2738   11.5226  -20.0314 C.3     1  UNL1        0.0244
     34 C          50.3474   12.6143  -19.1720 C.3     1  UNL1        0.0244
     35 C          48.6444   14.0065  -20.3550 C.3     1  UNL1        0.0244
@<TRIPOS>BOND
     1    30    31    1
     2    31    20    1
     3    20    21   ar
     4    21    22   ar
     5    22    23   ar
     6    23    24   ar
     7    24    25   ar
     8    25    26   ar
     9    26     1    1
    10     1     2    2
    11     1     3   am
    12     3     4    1
    13     4     5    1
    14     5     6    1
    15     6     7    1
    16     7     8    1
    17     6     9    1
    18     9    10    1
    19    10    11   ar
    20    11    12   ar
    21    12    13   ar
    22    13    32    1
    23    32    33    1
    24    32    34    1
    25    32    35    1
    26    13    14   ar
    27    14    15    1
    28    11    16    1
    29    16    17    2
    30    16    18   am
    31    26    27   ar
    32    27    28   ar
    33    28    29   ar
    34    29    20   ar
    35    28    23   ar
    36     8     3    1
    37    14    10   ar
    38    18     6    1
    39    18    19    1
@<TRIPOS>MOLECULE
*****
 35 39 0 0 0
SMALL
GASTEIGER

@<TRIPOS>ATOM
      1 C          45.8720   14.5562  -27.1650 C.2     1  UNL1        0.2491
      2 O          45.7937   15.7600  -27.5341 O.2     1  UNL1       -0.2699
      3 N          45.7614   14.2410  -25.7645 N.am    1  UNL1       -0.2760
      4 C          44.8792   13.1603  -25.3102 C.3     1  UNL1        0.0954
      5 C          45.5494   12.3109  -24.2121 C.3     1  UNL1        0.0399
      6 C          46.6280   13.0713  -23.3718 C.3     1  UNL1        0.0645
      7 C          46.3111   14.5912  -23.3650 C.3     1  UNL1        0.0399
      8 C          46.2776   15.1979  -24.7783 C.3     1  UNL1        0.0954
      9 C          48.0554   12.8057  -23.9812 C.3     1  UNL1        0.0482
     10 C          49.1304   13.2058  -23.0166 C.ar    1  UNL1        0.0268
     11 C          48.9777   13.1231  -21.6707 C.ar    1  UNL1        0.1520
     12 N          50.1397   13.3670  -21.0444 N.ar    1  UNL1       -0.1646
     13 N          51.0553   13.6001  -21.9828 N.ar    1  UNL1       -0.2486
     14 C          50.4650   13.4870  -23.2088 C.ar    1  UNL1        0.1094
     15 BR         51.2915   13.6155  -24.9351 Br      1  UNL1       -0.0287
     16 C          47.6976   12.7634  -21.0804 C.2     1  UNL1        0.2650
     17 O          47.5737   12.5936  -19.8387 O.2     1  UNL1       -0.2684
     18 N          46.5779   12.5950  -21.9659 N.am    1  UNL1       -0.3023
     19 H          45.6584   12.3464  -21.5355 H       1  UNL1        0.1497
     20 C          47.8211    9.1521  -29.3245 C.ar    1  UNL1        0.2249
     21 C          47.3839    9.2924  -30.6453 C.ar    1  UNL1        0.0577
     22 C          46.7231   10.4596  -31.0342 C.ar    1  UNL1        0.0063
     23 C          46.5044   11.4799  -30.1001 C.ar    1  UNL1        0.0179
     24 C          45.8426   12.6622  -30.4546 C.ar    1  UNL1        0.0016
     25 C          45.6386   13.6632  -29.5007 C.ar    1  UNL1        0.0046
     26 C          46.1007   13.5019  -28.1817 C.ar    1  UNL1        0.0551
     27 C          46.7529   12.3080  -27.8253 C.ar    1  UNL1        0.0237
     28 C          46.9599   11.3029  -28.7762 C.ar    1  UNL1        0.0845
     29 N          47.5999   10.1545  -28.4275 N.ar    1  UNL1       -0.2117
     30 C          49.8727    7.7769  -29.1581 C.3     1  UNL1        0.2542
     31 O          48.4816    7.9814  -28.9412 O.3     1  UNL1       -0.4561
     32 C          52.4746   13.8933  -21.6667 C.3     1  UNL1        0.0872
     33 C          53.4056   13.0158  -22.5271 C.3     1  UNL1        0.0244
     34 C          52.7969   15.3740  -21.9806 C.3     1  UNL1        0.0244
     35 C          52.7449   13.6564  -20.1681 C.3     1  UNL1        0.0244
@<TRIPOS>BOND
     1    30    31    1
     2    31    20    1
     3    20    21   ar
     4    21    22   ar
     5    22    23   ar
     6    23    24   ar
     7    24    25   ar
     8    25    26   ar
     9    26     1    1
    10     1     2    2
    11     1     3   am
    12     3     4    1
    13     4     5    1
    14     5     6    1
    15     6     7    1
    16     7     8    1
    17     6     9    1
    18     9    10    1
    19    10    11   ar
    20    11    12   ar
    21    12    13   ar
    22    13    32    1
    23    32    33    1
    24    32    34    1
    25    32    35    1
    26    13    14   ar
    27    14    15    1
    28    11    16    1
    29    16    17    2
    30    16    18   am
    31    26    27   ar
    32    27    28   ar
    33    28    29   ar
    34    29    20   ar
    35    28    23   ar
    36     8     3    1
    37    14    10   ar
    38    18     6    1
    39    18    19    1
@<TRIPOS>MOLECULE
*****
 35 39 0 0 0
SMALL
GASTEIGER

@<TRIPOS>ATOM
      1 C          49.4622   10.5722  -21.9471 C.2     1  UNL1        0.2491
      2 O          50.4678    9.8989  -22.3033 O.2     1  UNL1       -0.2699
      3 N          48.5062   10.9881  -22.9402 N.am    1  UNL1       -0.2760
      4 C          47.0683   10.8009  -22.7164 C.3     1  UNL1        0.0954
      5 C          46.2631   12.0356  -23.1677 C.3     1  UNL1        0.0399
      6 C          46.9456   12.8781  -24.2955 C.3     1  UNL1        0.0645
      7 C          47.8790   11.9672  -25.1380 C.3     1  UNL1        0.0399
      8 C          48.9791   11.3006  -24.2942 C.3     1  UNL1        0.0954
      9 C          47.7607   14.0610  -23.6506 C.3     1  UNL1        0.0482
     10 C          48.1221   15.0854  -24.6830 C.ar    1  UNL1        0.0268
     11 C          47.3389   15.3525  -25.7586 C.ar    1  UNL1        0.1520
     12 N          47.7939   16.4262  -26.4234 N.ar    1  UNL1       -0.1646
     13 N          48.8708   16.8672  -25.7758 N.ar    1  UNL1       -0.2486
     14 C          49.0840   16.0712  -24.6871 C.ar    1  UNL1        0.1094
     15 BR         50.4199   16.2656  -23.3243 Br      1  UNL1       -0.0287
     16 C          46.1562   14.5546  -26.0435 C.2     1  UNL1        0.2650
     17 O          45.3747   14.8550  -26.9843 O.2     1  UNL1       -0.2684
     18 N          45.9013   13.4156  -25.2045 N.am    1  UNL1       -0.3023
     19 H          45.0557   12.8401  -25.4199 H       1  UNL1        0.1497
     20 C          51.2502   12.5459  -16.4178 C.ar    1  UNL1        0.2249
     21 C          50.0141   12.4743  -15.7679 C.ar    1  UNL1        0.0577
     22 C          48.8892   12.0350  -16.4691 C.ar    1  UNL1        0.0063
     23 C          49.0073   11.6692  -17.8158 C.ar    1  UNL1        0.0179
     24 C          47.8997   11.2274  -18.5503 C.ar    1  UNL1        0.0016
     25 C          48.0480   10.8689  -19.8931 C.ar    1  UNL1        0.0046
     26 C          49.3060   10.9376  -20.5190 C.ar    1  UNL1        0.0551
     27 C          50.4137   11.3947  -19.7828 C.ar    1  UNL1        0.0237
     28 C          50.2709   11.7545  -18.4383 C.ar    1  UNL1        0.0845
     29 N          51.3481   12.1866  -17.7291 N.ar    1  UNL1       -0.2117
     30 C          52.3121   13.3965  -14.3497 C.3     1  UNL1        0.2542
     31 O          52.3725   12.9866  -15.7107 O.3     1  UNL1       -0.4561
     32 C          49.6391   18.0591  -26.2110 C.3     1  UNL1        0.0872
     33 C          51.0989   17.6703  -26.5186 C.3     1  UNL1        0.0244
     34 C          49.0243   18.6485  -27.5031 C.3     1  UNL1        0.0244
     35 C          49.5904   19.1490  -25.1225 C.3     1  UNL1        0.0244
@<TRIPOS>BOND
     1    30    31    1
     2    31    20    1
     3    20    21   ar
     4    21    22   ar
     5    22    23   ar
     6    23    24   ar
     7    24    25   ar
     8    25    26   ar
     9    26     1    1
    10     1     2    2
    11     1     3   am
    12     3     4    1
    13     4     5    1
    14     5     6    1
    15     6     7    1
    16     7     8    1
    17     6     9    1
    18     9    10    1
    19    10    11   ar
    20    11    12   ar
    21    12    13   ar
    22    13    32    1
    23    32    33    1
    24    32    34    1
    25    32    35    1
    26    13    14   ar
    27    14    15    1
    28    11    16    1
    29    16    17    2
    30    16    18   am
    31    26    27   ar
    32    27    28   ar
    33    28    29   ar
    34    29    20   ar
    35    28    23   ar
    36     8     3    1
    37    14    10   ar
    38    18     6    1
    39    18    19    1
@<TRIPOS>MOLECULE
*****
 35 39 0 0 0
SMALL
GASTEIGER

@<TRIPOS>ATOM
      1 C          49.7633   10.4341  -20.9956 C.2     1  UNL1        0.2491
      2 O          50.5638    9.6241  -21.5385 O.2     1  UNL1       -0.2699
      3 N          48.4969   10.7014  -21.6266 N.am    1  UNL1       -0.2760
      4 C          47.2547   10.6787  -20.8462 C.3     1  UNL1        0.0954
      5 C          46.3264   11.8473  -21.2320 C.3     1  UNL1        0.0399
      6 C          46.5193   12.3738  -22.6926 C.3     1  UNL1        0.0645
      7 C          47.0700   11.2342  -23.5918 C.3     1  UNL1        0.0399
      8 C          48.4150   10.6797  -23.0921 C.3     1  UNL1        0.0954
      9 C          47.5070   13.6001  -22.6853 C.3     1  UNL1        0.0482
     10 C          47.4377   14.3491  -23.9815 C.ar    1  UNL1        0.0268
     11 C          46.3011   14.4403  -24.7173 C.ar    1  UNL1        0.1520
     12 N          46.4579   15.3085  -25.7291 N.ar    1  UNL1       -0.1646
     13 N          47.6959   15.7925  -25.6486 N.ar    1  UNL1       -0.2486
     14 C          48.3157   15.2333  -24.5681 C.ar    1  UNL1        0.1094
     15 BR         50.0683   15.6098  -23.8849 Br      1  UNL1       -0.0287
     16 C          45.1069   13.6944  -24.3511 C.2     1  UNL1        0.2650
     17 O          44.0229   13.8468  -24.9738 O.2     1  UNL1       -0.2684
     18 N          45.2021   12.7843  -23.2425 N.am    1  UNL1       -0.3023
     19 H          44.3439   12.2437  -22.9900 H       1  UNL1        0.1497
     20 C          49.8472   11.4428  -14.9424 C.ar    1  UNL1        0.2249
     21 C          50.7562   12.5052  -14.9269 C.ar    1  UNL1        0.0577
     22 C          51.3037   12.9638  -16.1269 C.ar    1  UNL1        0.0063
     23 C          50.9382   12.3577  -17.3354 C.ar    1  UNL1        0.0179
     24 C          51.4700   12.7897  -18.5569 C.ar    1  UNL1        0.0016
     25 C          51.0865   12.1654  -19.7472 C.ar    1  UNL1        0.0046
     26 C          50.1596   11.1072  -19.7358 C.ar    1  UNL1        0.0551
     27 C          49.6378   10.6665  -18.5064 C.ar    1  UNL1        0.0237
     28 C          50.0180   11.2881  -17.3120 C.ar    1  UNL1        0.0845
     29 N          49.5022   10.8635  -16.1272 N.ar    1  UNL1       -0.2117
     30 C          47.9352   11.1751  -13.3929 C.3     1  UNL1        0.2542
     31 O          49.3027   10.9881  -13.7380 O.3     1  UNL1       -0.4561
     32 C          48.2287   16.8004  -26.5975 C.3     1  UNL1        0.0872
     33 C          47.3066   16.9157  -27.8277 C.3     1  UNL1        0.0244
     34 C          48.2906   18.1909  -25.9208 C.3     1  UNL1        0.0244
     35 C          49.6580   16.4195  -27.0301 C.3     1  UNL1        0.0244
@<TRIPOS>BOND
     1    30    31    1
     2    31    20    1
     3    20    21   ar
     4    21    22   ar
     5    22    23   ar
     6    23    24   ar
     7    24    25   ar
     8    25    26   ar
     9    26     1    1
    10     1     2    2
    11     1     3   am
    12     3     4    1
    13     4     5    1
    14     5     6    1
    15     6     7    1
    16     7     8    1
    17     6     9    1
    18     9    10    1
    19    10    11   ar
    20    11    12   ar
    21    12    13   ar
    22    13    32    1
    23    32    33    1
    24    32    34    1
    25    32    35    1
    26    13    14   ar
    27    14    15    1
    28    11    16    1
    29    16    17    2
    30    16    18   am
    31    26    27   ar
    32    27    28   ar
    33    28    29   ar
    34    29    20   ar
    35    28    23   ar
    36     8     3    1
    37    14    10   ar
    38    18     6    1
    39    18    19    1
@<TRIPOS>MOLECULE
*****
 35 39 0 0 0
SMALL
GASTEIGER

@<TRIPOS>ATOM
      1 C          49.5231   10.4858  -22.3467 C.2     1  UNL1        0.2491
      2 O          50.4696    9.7956  -22.8153 O.2     1  UNL1       -0.2699
      3 N          48.5080   10.9847  -23.2377 N.am    1  UNL1       -0.2760
      4 C          47.0863   10.8380  -22.9061 C.3     1  UNL1        0.0954
      5 C          46.2972   12.1216  -23.2315 C.3     1  UNL1        0.0399
      6 C          46.9202   12.9946  -24.3706 C.3     1  UNL1        0.0645
      7 C          47.7464   12.0942  -25.3284 C.3     1  UNL1        0.0399
      8 C          48.8832   11.3475  -24.6097 C.3     1  UNL1        0.0954
      9 C          47.8305   14.1139  -23.7396 C.3     1  UNL1        0.0482
     10 C          48.1485   15.1752  -24.7489 C.ar    1  UNL1        0.0268
     11 C          47.2930   15.5235  -25.7430 C.ar    1  UNL1        0.1520
     12 N          47.7356   16.6122  -26.3917 N.ar    1  UNL1       -0.1646
     13 N          48.8774   16.9815  -25.8144 N.ar    1  UNL1       -0.2486
     14 C          49.1453   16.1250  -24.7854 C.ar    1  UNL1        0.1094
     15 BR         50.5925   16.2030  -23.5287 Br      1  UNL1       -0.0287
     16 C          46.0606   14.7835  -25.9675 C.2     1  UNL1        0.2650
     17 O          45.2189   15.1583  -26.8261 O.2     1  UNL1       -0.2684
     18 N          45.8286   13.6139  -25.1649 N.am    1  UNL1       -0.3023
     19 H          44.9464   13.0804  -25.3372 H       1  UNL1        0.1497
     20 C          48.1509   13.6720  -17.2840 C.ar    1  UNL1        0.2249
     21 C          48.7243   12.8122  -16.3421 C.ar    1  UNL1        0.0577
     22 C          49.3550   11.6416  -16.7689 C.ar    1  UNL1        0.0063
     23 C          49.4093   11.3384  -18.1351 C.ar    1  UNL1        0.0179
     24 C          50.0307   10.1718  -18.5980 C.ar    1  UNL1        0.0016
     25 C          50.0694    9.8955  -19.9676 C.ar    1  UNL1        0.0046
     26 C          49.4962   10.7846  -20.8951 C.ar    1  UNL1        0.0551
     27 C          48.8608   11.9484  -20.4262 C.ar    1  UNL1        0.0237
     28 C          48.8196   12.2299  -19.0564 C.ar    1  UNL1        0.0845
     29 N          48.2120   13.3621  -18.6101 N.ar    1  UNL1       -0.2117
     30 C          47.3665   15.1683  -15.4746 C.3     1  UNL1        0.2542
     31 O          47.5207   14.8421  -16.8508 O.3     1  UNL1       -0.4561
     32 C          49.6551   18.1654  -26.2544 C.3     1  UNL1        0.0872
     33 C          48.9808   18.8239  -27.4746 C.3     1  UNL1        0.0244
     34 C          49.7132   19.2177  -25.1212 C.3     1  UNL1        0.0244
     35 C          51.1009   17.7547  -26.5950 C.3     1  UNL1        0.0244
@<TRIPOS>BOND
     1    30    31    1
     2    31    20    1
     3    20    21   ar
     4    21    22   ar
     5    22    23   ar
     6    23    24   ar
     7    24    25   ar
     8    25    26   ar
     9    26     1    1
    10     1     2    2
    11     1     3   am
    12     3     4    1
    13     4     5    1
    14     5     6    1
    15     6     7    1
    16     7     8    1
    17     6     9    1
    18     9    10    1
    19    10    11   ar
    20    11    12   ar
    21    12    13   ar
    22    13    32    1
    23    32    33    1
    24    32    34    1
    25    32    35    1
    26    13    14   ar
    27    14    15    1
    28    11    16    1
    29    16    17    2
    30    16    18   am
    31    26    27   ar
    32    27    28   ar
    33    28    29   ar
    34    29    20   ar
    35    28    23   ar
    36     8     3    1
    37    14    10   ar
    38    18     6    1
    39    18    19    1
@<TRIPOS>MOLECULE
*****
 35 39 0 0 0
SMALL
GASTEIGER

@<TRIPOS>ATOM
      1 C          50.4682    8.8636  -25.8242 C.2     1  UNL1        0.2491
      2 O          49.5544    8.0761  -25.4549 O.2     1  UNL1       -0.2699
      3 N          50.9940    9.8207  -24.8857 N.am    1  UNL1       -0.2760
      4 C          52.4425    9.9918  -24.7268 C.3     1  UNL1        0.0954
      5 C          52.8242   11.4811  -24.6146 C.3     1  UNL1        0.0399
      6 C          51.6927   12.3995  -24.0455 C.3     1  UNL1        0.0645
      7 C          50.7519   11.5674  -23.1328 C.3     1  UNL1        0.0399
      8 C          50.0967   10.3880  -23.8718 C.3     1  UNL1        0.0954
      9 C          50.8851   13.0408  -25.2356 C.3     1  UNL1        0.0482
     10 C          50.0465   14.1863  -24.7555 C.ar    1  UNL1        0.0268
     11 C          50.4157   14.9845  -23.7220 C.ar    1  UNL1        0.1520
     12 N          49.5864   16.0344  -23.6121 N.ar    1  UNL1       -0.1646
     13 N          48.6795   15.9271  -24.5814 N.ar    1  UNL1       -0.2486
     14 C          48.9515   14.8075  -25.3141 C.ar    1  UNL1        0.1094
     15 BR         48.0578   14.1814  -26.8918 Br      1  UNL1       -0.0287
     16 C          51.5968   14.6861  -22.9267 C.2     1  UNL1        0.2650
     17 O          51.9970   15.4724  -22.0280 O.2     1  UNL1       -0.2684
     18 N          52.3019   13.4661  -23.2106 N.am    1  UNL1       -0.3023
     19 H          53.1440   13.2518  -22.6296 H       1  UNL1        0.1497
     20 C          50.5303    7.0361  -31.6827 C.ar    1  UNL1        0.2249
     21 C          51.6231    7.7916  -32.1188 C.ar    1  UNL1        0.0577
     22 C          52.2897    8.6257  -31.2187 C.ar    1  UNL1        0.0063
     23 C          51.8600    8.6987  -29.8879 C.ar    1  UNL1        0.0179
     24 C          52.5029    9.5269  -28.9593 C.ar    1  UNL1        0.0016
     25 C          52.0515    9.5791  -27.6375 C.ar    1  UNL1        0.0046
     26 C          50.9576    8.7982  -27.2218 C.ar    1  UNL1        0.0551
     27 C          50.3055    7.9779  -28.1598 C.ar    1  UNL1        0.0237
     28 C          50.7534    7.9216  -29.4840 C.ar    1  UNL1        0.0845
     29 N          50.1243    7.1188  -30.3840 N.ar    1  UNL1       -0.2117
     30 C          48.4493    6.0940  -32.6366 C.3     1  UNL1        0.2542
     31 O          49.8669    6.2032  -32.5882 O.3     1  UNL1       -0.4561
     32 C          47.6004   16.9237  -24.7871 C.3     1  UNL1        0.0872
     33 C          46.4842   16.3281  -25.6683 C.3     1  UNL1        0.0244
     34 C          46.9713   17.3180  -23.4293 C.3     1  UNL1        0.0244
     35 C          48.1725   18.2005  -25.4334 C.3     1  UNL1        0.0244
@<TRIPOS>BOND
     1    30    31    1
     2    31    20    1
     3    20    21   ar
     4    21    22   ar
     5    22    23   ar
     6    23    24   ar
     7    24    25   ar
     8    25    26   ar
     9    26     1    1
    10     1     2    2
    11     1     3   am
    12     3     4    1
    13     4     5    1
    14     5     6    1
    15     6     7    1
    16     7     8    1
    17     6     9    1
    18     9    10    1
    19    10    11   ar
    20    11    12   ar
    21    12    13   ar
    22    13    32    1
    23    32    33    1
    24    32    34    1
    25    32    35    1
    26    13    14   ar
    27    14    15    1
    28    11    16    1
    29    16    17    2
    30    16    18   am
    31    26    27   ar
    32    27    28   ar
    33    28    29   ar
    34    29    20   ar
    35    28    23   ar
    36     8     3    1
    37    14    10   ar
    38    18     6    1
    39    18    19    1
@<TRIPOS>MOLECULE
*****
 35 39 0 0 0
SMALL
GASTEIGER

@<TRIPOS>ATOM
      1 C          49.4377   11.0028  -19.9198 C.2     1  UNL1        0.2491
      2 O          50.5541   10.4387  -20.0845 O.2     1  UNL1       -0.2699
      3 N          48.4429   10.9103  -20.9566 N.am    1  UNL1       -0.2760
      4 C          47.0571   10.5543  -20.6316 C.3     1  UNL1        0.0954
      5 C          46.0541   11.4227  -21.4166 C.3     1  UNL1        0.0399
      6 C          46.5980   11.9728  -22.7765 C.3     1  UNL1        0.0645
      7 C          47.6953   11.0212  -23.3253 C.3     1  UNL1        0.0399
      8 C          48.8794   10.8580  -22.3571 C.3     1  UNL1        0.0954
      9 C          47.1764   13.4222  -22.5659 C.3     1  UNL1        0.0482
     10 C          47.3701   14.1157  -23.8803 C.ar    1  UNL1        0.0268
     11 C          46.5734   13.8887  -24.9551 C.ar    1  UNL1        0.1520
     12 N          46.8431   14.7605  -25.9396 N.ar    1  UNL1       -0.1646
     13 N          47.8112   15.5645  -25.5039 N.ar    1  UNL1       -0.2486
     14 C          48.1410   15.2024  -24.2293 C.ar    1  UNL1        0.1094
     15 BR         49.3936   16.0471  -23.0472 Br      1  UNL1       -0.0287
     16 C          45.5576   12.8475  -24.9310 C.2     1  UNL1        0.2650
     17 O          44.7540   12.6943  -25.8885 O.2     1  UNL1       -0.2684
     18 N          45.4929   12.0048  -23.7683 N.am    1  UNL1       -0.3023
     19 H          44.7678   11.2520  -23.7605 H       1  UNL1        0.1497
     20 C          50.7325   13.2895  -14.3736 C.ar    1  UNL1        0.2249
     21 C          49.5420   13.9915  -14.1612 C.ar    1  UNL1        0.0577
     22 C          48.5437   13.9702  -15.1374 C.ar    1  UNL1        0.0063
     23 C          48.7415   13.2463  -16.3198 C.ar    1  UNL1        0.0179
     24 C          47.7633   13.2057  -17.3212 C.ar    1  UNL1        0.0016
     25 C          47.9889   12.4746  -18.4910 C.ar    1  UNL1        0.0046
     26 C          49.1906   11.7662  -18.6734 C.ar    1  UNL1        0.0551
     27 C          50.1766   11.8201  -17.6721 C.ar    1  UNL1        0.0237
     28 C          49.9558   12.5500  -16.4992 C.ar    1  UNL1        0.0845
     29 N          50.9096   12.5901  -15.5303 N.ar    1  UNL1       -0.2117
     30 C          53.0914   13.0188  -13.6730 C.3     1  UNL1        0.2542
     31 O          51.7283   13.3148  -13.3930 O.3     1  UNL1       -0.4561
     32 C          48.3635   16.6737  -26.3192 C.3     1  UNL1        0.0872
     33 C          49.8564   16.4271  -26.6149 C.3     1  UNL1        0.0244
     34 C          47.6212   16.7616  -27.6742 C.3     1  UNL1        0.0244
     35 C          48.1745   18.0165  -25.5868 C.3     1  UNL1        0.0244
@<TRIPOS>BOND
     1    30    31    1
     2    31    20    1
     3    20    21   ar
     4    21    22   ar
     5    22    23   ar
     6    23    24   ar
     7    24    25   ar
     8    25    26   ar
     9    26     1    1
    10     1     2    2
    11     1     3   am
    12     3     4    1
    13     4     5    1
    14     5     6    1
    15     6     7    1
    16     7     8    1
    17     6     9    1
    18     9    10    1
    19    10    11   ar
    20    11    12   ar
    21    12    13   ar
    22    13    32    1
    23    32    33    1
    24    32    34    1
    25    32    35    1
    26    13    14   ar
    27    14    15    1
    28    11    16    1
    29    16    17    2
    30    16    18   am
    31    26    27   ar
    32    27    28   ar
    33    28    29   ar
    34    29    20   ar
    35    28    23   ar
    36     8     3    1
    37    14    10   ar
    38    18     6    1
    39    18    19    1
@<TRIPOS>MOLECULE
*****
 35 39 0 0 0
SMALL
GASTEIGER

@<TRIPOS>ATOM
      1 C          50.6042   12.2555  -20.6685 C.2     1  UNL1        0.2491
      2 O          51.8381   12.4675  -20.8239 O.2     1  UNL1       -0.2699
      3 N          49.8412   11.7091  -21.7605 N.am    1  UNL1       -0.2760
      4 C          48.9280   10.5816  -21.5422 C.3     1  UNL1        0.0954
      5 C          47.5992   10.7793  -22.2982 C.3     1  UNL1        0.0399
      6 C          47.7060   11.6802  -23.5728 C.3     1  UNL1        0.0645
      7 C          49.1472   11.6083  -24.1459 C.3     1  UNL1        0.0399
      8 C          50.2126   12.0659  -23.1350 C.3     1  UNL1        0.0954
      9 C          47.3303   13.1640  -23.2032 C.3     1  UNL1        0.0482
     10 C          47.0696   13.9720  -24.4381 C.ar    1  UNL1        0.0268
     11 C          46.5456   13.4363  -25.5695 C.ar    1  UNL1        0.1520
     12 N          46.2455   14.3982  -26.4565 N.ar    1  UNL1       -0.1646
     13 N          46.5652   15.5651  -25.9001 N.ar    1  UNL1       -0.2486
     14 C          47.0566   15.3333  -24.6474 C.ar    1  UNL1        0.1094
     15 BR         47.5905   16.6215  -23.3301 Br      1  UNL1       -0.0287
     16 C          46.3301   12.0027  -25.6923 C.2     1  UNL1        0.2650
     17 O          45.7585   11.5104  -26.7007 O.2     1  UNL1       -0.2684
     18 N          46.7812   11.1652  -24.6146 N.am    1  UNL1       -0.3023
     19 H          46.6329   10.1352  -24.7125 H       1  UNL1        0.1497
     20 C          49.7646   12.0710  -14.5918 C.ar    1  UNL1        0.2249
     21 C          48.7099   12.9850  -14.5053 C.ar    1  UNL1        0.0577
     22 C          48.2223   13.5892  -15.6661 C.ar    1  UNL1        0.0063
     23 C          48.7919   13.2752  -16.9064 C.ar    1  UNL1        0.0179
     24 C          48.3302   13.8645  -18.0900 C.ar    1  UNL1        0.0016
     25 C          48.9182   13.5316  -19.3135 C.ar    1  UNL1        0.0046
     26 C          49.9694   12.5985  -19.3736 C.ar    1  UNL1        0.0551
     27 C          50.4401   12.0186  -18.1819 C.ar    1  UNL1        0.0237
     28 C          49.8548   12.3482  -16.9546 C.ar    1  UNL1        0.0845
     29 N          50.3082   11.7765  -15.8067 N.ar    1  UNL1       -0.2117
     30 C          50.7239   10.1291  -13.3930 C.3     1  UNL1        0.2542
     31 O          50.2485   11.4696  -13.4264 O.3     1  UNL1       -0.4561
     32 C          46.3573   16.8655  -26.5826 C.3     1  UNL1        0.0872
     33 C          47.6536   17.3115  -27.2882 C.3     1  UNL1        0.0244
     34 C          45.2541   16.7331  -27.6598 C.3     1  UNL1        0.0244
     35 C          45.9031   17.9319  -25.5670 C.3     1  UNL1        0.0244
@<TRIPOS>BOND
     1    30    31    1
     2    31    20    1
     3    20    21   ar
     4    21    22   ar
     5    22    23   ar
     6    23    24   ar
     7    24    25   ar
     8    25    26   ar
     9    26     1    1
    10     1     2    2
    11     1     3   am
    12     3     4    1
    13     4     5    1
    14     5     6    1
    15     6     7    1
    16     7     8    1
    17     6     9    1
    18     9    10    1
    19    10    11   ar
    20    11    12   ar
    21    12    13   ar
    22    13    32    1
    23    32    33    1
    24    32    34    1
    25    32    35    1
    26    13    14   ar
    27    14    15    1
    28    11    16    1
    29    16    17    2
    30    16    18   am
    31    26    27   ar
    32    27    28   ar
    33    28    29   ar
    34    29    20   ar
    35    28    23   ar
    36     8     3    1
    37    14    10   ar
    38    18     6    1
    39    18    19    1
