@<TRIPOS>MOLECULE
*****
 51 56 0 0 0
SMALL
GASTEIGER

@<TRIPOS>ATOM
      1 O          57.5723   84.0562   12.4319 O.2     1  UNL1       -0.2701
      2 C          58.7732   83.9151   12.7921 C.2     1  UNL1        0.2483
      3 N          59.3505   82.6008   12.8728 N.am    1  UNL1       -0.2945
      4 H          60.2862   82.4932   13.3260 H       1  UNL1        0.1501
      5 C          59.5538   85.1097   13.1780 C.ar    1  UNL1        0.0808
      6 C          58.9089   86.1772   13.8243 C.ar    1  UNL1        0.0080
      7 C          59.6270   87.3116   14.2103 C.ar    1  UNL1        0.0148
      8 C          61.0015   87.4054   13.9460 C.ar    1  UNL1        0.0503
      9 C          61.6458   86.3461   13.2883 C.ar    1  UNL1        0.0443
     10 C          60.9310   85.2077   12.9028 C.ar    1  UNL1        0.1457
     11 F          61.5797   84.2271   12.2249 F       1  UNL1       -0.2040
     12 N          61.7440   88.5700   14.3512 N.pl3   1  UNL1       -0.3020
     13 C          62.2707   88.6547   15.7201 C.3     1  UNL1        0.1124
     14 C          63.0244   89.9703   15.9644 C.3     1  UNL1        0.1157
     15 N          63.9399   90.2829   14.8513 N.pl3   1  UNL1       -0.2686
     16 C          63.5322   89.9920   13.4620 C.3     1  UNL1        0.2101
     17 O          64.2962   88.9204   12.9731 O.3     1  UNL1       -0.3658
     18 C          62.0411   89.6364   13.3898 C.3     1  UNL1        0.1420
     19 H          64.2278   88.9470   11.9830 H       1  UNL1        0.2123
     20 C          65.1338   91.0586   15.1209 C.ar    1  UNL1        0.1334
     21 C          65.1493   92.0809   16.0879 C.ar    1  UNL1        0.0343
     22 C          66.3229   92.8015   16.3152 C.ar    1  UNL1        0.0083
     23 C          67.4788   92.5252   15.5715 C.ar    1  UNL1        0.0906
     24 C          67.4329   91.4834   14.6339 C.ar    1  UNL1        0.1041
     25 N          66.2796   90.7938   14.4313 N.ar    1  UNL1       -0.2292
     26 C          68.7652   93.2625   15.8433 C.3     1  UNL1        0.4200
     27 F          69.4585   92.6132   16.8476 F       1  UNL1       -0.1658
     28 F          68.5076   94.5630   16.2408 F       1  UNL1       -0.1658
     29 F          69.5532   93.3054   14.7060 F       1  UNL1       -0.1658
     30 C          58.5783   81.3817   12.6136 C.3     1  UNL1        0.1535
     31 C          58.4047   81.2080   11.1281 C.2     1  UNL1        0.2443
     32 O          57.4752   80.4756   10.6904 O.2     1  UNL1       -0.2730
     33 N          59.3476   81.8024   10.2215 N.am    1  UNL1       -0.2825
     34 H          60.2683   82.1116   10.6081 H       1  UNL1        0.1549
     35 C          59.1478   81.8970    8.8007 C.ar    1  UNL1        0.0535
     36 C          60.0501   82.6387    8.0258 C.ar    1  UNL1        0.0353
     37 C          59.8481   82.7527    6.6482 C.ar    1  UNL1        0.1002
     38 N          58.7723   82.1606    6.0656 N.ar    1  UNL1       -0.2422
     39 C          57.8693   81.4514    6.7930 C.ar    1  UNL1        0.1002
     40 C          58.0347   81.3117    8.1734 C.ar    1  UNL1        0.0353
     41 C          59.2851   80.1592   13.2272 C.3     1  UNL1        0.0569
     42 C          60.7604   80.1865   12.9500 C.ar    1  UNL1       -0.0017
     43 C          61.4241   79.5044   11.9339 C.ar    1  UNL1        0.0681
     44 N          62.7298   79.8557   11.9039 N.ar    1  UNL1       -0.3523
     45 C          62.8932   80.7619   12.8835 C.ar    1  UNL1        0.0563
     46 C          64.0634   81.4410   13.2195 C.ar    1  UNL1        0.0170
     47 C          64.0011   82.3806   14.2649 C.ar    1  UNL1        0.0015
     48 C          62.7833   82.6219   14.9391 C.ar    1  UNL1        0.0001
     49 C          61.6169   81.9246   14.5755 C.ar    1  UNL1        0.0012
     50 C          61.7123   80.9933   13.5413 C.ar    1  UNL1        0.0131
     51 H          63.4546   79.5102   11.2363 H       1  UNL1        0.1660
@<TRIPOS>BOND
     1     1     2    2
     2     2     3   am
     3     3    30    1
     4    30    41    1
     5    41    42    1
     6    42    43   ar
     7    43    44   ar
     8    44    45   ar
     9    45    46   ar
    10    46    47   ar
    11    47    48   ar
    12    48    49   ar
    13    49    50   ar
    14    30    31    1
    15    31    32    2
    16    31    33   am
    17    33    35    1
    18    35    36   ar
    19    36    37   ar
    20    37    38   ar
    21    38    39   ar
    22    39    40   ar
    23     2     5    1
    24     5     6   ar
    25     6     7   ar
    26     7     8   ar
    27     8    12    1
    28    12    13    1
    29    13    14    1
    30    14    15    1
    31    15    20    1
    32    20    21   ar
    33    21    22   ar
    34    22    23   ar
    35    23    26    1
    36    26    27    1
    37    26    28    1
    38    26    29    1
    39    23    24   ar
    40    24    25   ar
    41    15    16    1
    42    16    17    1
    43    16    18    1
    44     8     9   ar
    45     9    10   ar
    46    10    11    1
    47    50    42   ar
    48    40    35   ar
    49    10     5   ar
    50    50    45   ar
    51    18    12    1
    52    25    20   ar
    53     3     4    1
    54    44    51    1
    55    33    34    1
    56    17    19    1
@<TRIPOS>MOLECULE
*****
 51 56 0 0 0
SMALL
GASTEIGER

@<TRIPOS>ATOM
      1 O          59.6969   86.0818    7.9935 O.2     1  UNL1       -0.2701
      2 C          60.2636   85.6107    9.0175 C.2     1  UNL1        0.2483
      3 N          60.2265   84.1965    9.2740 N.am    1  UNL1       -0.2945
      4 H          60.5569   83.8483   10.2025 H       1  UNL1        0.1501
      5 C          60.9148   86.5357    9.9693 C.ar    1  UNL1        0.0808
      6 C          61.3686   86.0479   11.2058 C.ar    1  UNL1        0.0080
      7 C          61.9984   86.8991   12.1171 C.ar    1  UNL1        0.0148
      8 C          62.1749   88.2574   11.8142 C.ar    1  UNL1        0.0503
      9 C          61.7104   88.7505   10.5850 C.ar    1  UNL1        0.0443
     10 C          61.0819   87.9009    9.6691 C.ar    1  UNL1        0.1457
     11 F          60.6024   88.4262    8.5132 F       1  UNL1       -0.2040
     12 N          62.8315   89.1333   12.7487 N.pl3   1  UNL1       -0.3020
     13 C          63.6465   88.5619   13.8294 C.3     1  UNL1        0.1124
     14 C          64.2566   89.6503   14.7247 C.3     1  UNL1        0.1157
     15 N          64.8387   90.7440   13.9248 N.pl3   1  UNL1       -0.2686
     16 C          64.1608   91.1926   12.6919 C.3     1  UNL1        0.2101
     17 O          64.9241   90.8037   11.5796 O.3     1  UNL1       -0.3658
     18 C          62.7539   90.5886   12.5873 C.3     1  UNL1        0.1420
     19 H          64.6242   91.3627   10.8158 H       1  UNL1        0.2123
     20 C          65.9498   91.4978   14.4697 C.ar    1  UNL1        0.1334
     21 C          65.8464   92.1904   15.6904 C.ar    1  UNL1        0.0343
     22 C          66.9435   92.9024   16.1778 C.ar    1  UNL1        0.0083
     23 C          68.1397   92.9471   15.4479 C.ar    1  UNL1        0.0906
     24 C          68.2139   92.2249   14.2481 C.ar    1  UNL1        0.1041
     25 N          67.1335   91.5368   13.7943 N.ar    1  UNL1       -0.2292
     26 C          69.3464   93.6709   15.9886 C.3     1  UNL1        0.4200
     27 F          69.9352   92.9009   16.9743 F       1  UNL1       -0.1658
     28 F          68.9817   94.8923   16.5278 F       1  UNL1       -0.1658
     29 F          70.2698   93.8998   14.9831 F       1  UNL1       -0.1658
     30 C          59.4917   83.2580    8.4201 C.3     1  UNL1        0.1535
     31 C          60.1239   81.8950    8.5182 C.2     1  UNL1        0.2443
     32 O          60.1837   81.1602    7.4942 O.2     1  UNL1       -0.2730
     33 N          60.5745   81.4033    9.7908 N.am    1  UNL1       -0.2825
     34 H          60.2188   81.8783   10.6514 H       1  UNL1        0.1549
     35 C          61.3935   80.2333    9.9571 C.ar    1  UNL1        0.0535
     36 C          61.2150   79.4219   11.0861 C.ar    1  UNL1        0.0353
     37 C          62.0234   78.2966   11.2641 C.ar    1  UNL1        0.1002
     38 N          62.9891   78.0001   10.3549 N.ar    1  UNL1       -0.2422
     39 C          63.1995   78.7783    9.2605 C.ar    1  UNL1        0.1002
     40 C          62.4124   79.9122    9.0439 C.ar    1  UNL1        0.0353
     41 C          58.0100   83.2036    8.8349 C.3     1  UNL1        0.0569
     42 C          57.8640   83.1348   10.3276 C.ar    1  UNL1       -0.0017
     43 C          57.9874   81.9963   11.1193 C.ar    1  UNL1        0.0681
     44 N          57.9162   82.3227   12.4299 N.ar    1  UNL1       -0.3523
     45 C          57.7614   83.6574   12.4725 C.ar    1  UNL1        0.0563
     46 C          57.6736   84.4619   13.6076 C.ar    1  UNL1        0.0170
     47 C          57.5487   85.8509   13.4209 C.ar    1  UNL1        0.0015
     48 C          57.5207   86.3987   12.1190 C.ar    1  UNL1        0.0001
     49 C          57.6155   85.5625   10.9917 C.ar    1  UNL1        0.0012
     50 C          57.7296   84.1894   11.2088 C.ar    1  UNL1        0.0131
     51 H          57.9930   81.6699   13.2414 H       1  UNL1        0.1660
@<TRIPOS>BOND
     1     1     2    2
     2     2     3   am
     3     3    30    1
     4    30    41    1
     5    41    42    1
     6    42    43   ar
     7    43    44   ar
     8    44    45   ar
     9    45    46   ar
    10    46    47   ar
    11    47    48   ar
    12    48    49   ar
    13    49    50   ar
    14    30    31    1
    15    31    32    2
    16    31    33   am
    17    33    35    1
    18    35    36   ar
    19    36    37   ar
    20    37    38   ar
    21    38    39   ar
    22    39    40   ar
    23     2     5    1
    24     5     6   ar
    25     6     7   ar
    26     7     8   ar
    27     8    12    1
    28    12    13    1
    29    13    14    1
    30    14    15    1
    31    15    20    1
    32    20    21   ar
    33    21    22   ar
    34    22    23   ar
    35    23    26    1
    36    26    27    1
    37    26    28    1
    38    26    29    1
    39    23    24   ar
    40    24    25   ar
    41    15    16    1
    42    16    17    1
    43    16    18    1
    44     8     9   ar
    45     9    10   ar
    46    10    11    1
    47    50    42   ar
    48    40    35   ar
    49    10     5   ar
    50    50    45   ar
    51    18    12    1
    52    25    20   ar
    53     3     4    1
    54    44    51    1
    55    33    34    1
    56    17    19    1
