@<TRIPOS>MOLECULE
*****
 56 62 0 0 0
SMALL
GASTEIGER

@<TRIPOS>ATOM
      1 C          -5.4570   -8.2251   30.7556 C.3     1  UNL1        0.1239
      2 C          -5.3705   -8.3442   29.2405 C.3     1  UNL1        0.0374
      3 C          -5.5620   -9.8239   28.9759 C.3     1  UNL1        0.0739
      4 N          -5.0075  -10.5476   30.1327 N.3     1  UNL1       -0.2638
      5 C          -4.8689   -9.5691   31.2276 C.3     1  UNL1        0.0913
      6 C          -6.9105   -8.0294   31.1657 C.2     1  UNL1        0.2359
      7 O          -7.2984   -8.3572   32.3211 O.2     1  UNL1       -0.2739
      8 N          -7.8633   -7.5349   30.2103 N.am    1  UNL1       -0.2831
      9 H          -7.5735   -7.4618   29.2093 H       1  UNL1        0.1549
     10 C          -9.2185   -7.2036   30.5562 C.ar    1  UNL1        0.0567
     11 C          -9.6286   -5.8454   30.5446 C.ar    1  UNL1        0.0164
     12 C         -10.9642   -5.4926   30.7831 C.ar    1  UNL1        0.0198
     13 C         -11.8657   -6.5134   31.0534 C.ar    1  UNL1        0.0756
     14 N         -13.1751   -6.3946   31.3187 N.ar    1  UNL1       -0.2757
     15 N         -13.6664   -7.6007   31.5658 N.ar    1  UNL1       -0.1726
     16 C         -12.6622   -8.5024   31.4519 C.ar    1  UNL1        0.1038
     17 C         -11.4911   -7.8309   31.1003 C.ar    1  UNL1        0.0438
     18 C         -10.1705   -8.2311   30.8118 C.ar    1  UNL1        0.0918
     19 H         -13.7307   -5.5111   31.3503 H       1  UNL1        0.1889
     20 C         -12.8344   -9.9211   31.8079 C.ar    1  UNL1        0.0388
     21 C         -13.0917  -10.8864   30.8243 C.ar    1  UNL1        0.0079
     22 C         -13.2186  -12.2298   31.1809 C.ar    1  UNL1        0.0578
     23 C         -13.0679  -12.6033   32.5186 C.ar    1  UNL1        0.2247
     24 N         -12.7881  -11.6549   33.4562 N.ar    1  UNL1       -0.2101
     25 C         -12.6612  -10.3403   33.1335 C.ar    1  UNL1        0.1036
     26 O         -13.1971  -13.9513   32.8728 O.3     1  UNL1       -0.4640
     27 C         -12.0954  -14.7869   33.2298 C.3     1  UNL1        0.1678
     28 C         -11.8722  -14.7495   34.7444 C.3     1  UNL1        0.0473
     29 C         -12.3873  -16.2132   32.7684 C.3     1  UNL1        0.0473
     30 C          -9.7869   -9.6528   30.7179 C.2     1  UNL1        0.3393
     31 O          -9.9699  -10.2892   29.6458 O.2     1  UNL1       -0.2450
     32 O          -9.1959  -10.2891   31.8056 O.3     1  UNL1       -0.4771
     33 H          -8.9185  -11.2617   31.7511 H       1  UNL1        0.2954
     34 C          -4.3681   -7.2457   33.1022 C.3     1  UNL1        0.0696
     35 S          -4.4301   -6.8040   31.3315 S.3     1  UNL1       -0.1308
     36 C          -5.8402  -11.7029   30.5240 C.3     1  UNL1        0.1587
     37 C          -7.1156  -11.7431   29.7194 C.2     1  UNL1        0.2423
     38 O          -7.8248  -10.7010   29.6592 O.2     1  UNL1       -0.2733
     39 N          -7.5211  -12.9233   28.9938 N.am    1  UNL1       -0.2740
     40 C          -6.5418  -13.9784   28.6754 C.3     1  UNL1        0.1196
     41 C          -6.9691  -14.8035   27.4940 C.2     1  UNL1       -0.0089
     42 C          -8.2644  -15.0528   27.2540 C.2     1  UNL1       -0.0231
     43 C          -9.2936  -14.4815   28.1936 C.3     1  UNL1        0.0476
     44 C          -8.9309  -13.0441   28.5830 C.3     1  UNL1        0.0984
     45 C          -8.6777  -15.9381   26.1336 C.ar    1  UNL1       -0.0042
     46 C          -8.6758  -15.4710   24.8070 C.ar    1  UNL1       -0.0002
     47 C          -9.0715  -16.3067   23.7589 C.ar    1  UNL1        0.0031
     48 C          -9.4790  -17.6263   24.0145 C.ar    1  UNL1        0.0375
     49 C          -9.4847  -18.0932   25.3390 C.ar    1  UNL1        0.0031
     50 C          -9.0901  -17.2573   26.3875 C.ar    1  UNL1       -0.0002
     51 C          -9.8970  -18.5107   22.9054 C.ar    1  UNL1        0.1832
     52 N         -10.8059  -19.5054   23.0375 N.ar    1  UNL1       -0.2034
     53 C         -10.8624  -20.0142   21.7915 C.ar    1  UNL1        0.1972
     54 N         -10.0259  -19.3659   20.9660 N.ar    1  UNL1       -0.2281
     55 C          -9.8717  -19.5846   19.5350 C.3     1  UNL1        0.1556
     56 N          -9.4226  -18.4097   21.6461 N.ar    1  UNL1       -0.1484
@<TRIPOS>BOND
     1    34    35    1
     2     1    35    1
     3     1     6    1
     4     6     7    2
     5     6     8   am
     6     8    10    1
     7    10    11   ar
     8    11    12   ar
     9    12    13   ar
    10    13    14   ar
    11    14    15   ar
    12    15    16   ar
    13    16    20    1
    14    20    21   ar
    15    21    22   ar
    16    22    23   ar
    17    23    26    1
    18    26    27    1
    19    27    28    1
    20    27    29    1
    21    23    24   ar
    22    24    25   ar
    23    16    17   ar
    24    17    18   ar
    25    18    30    1
    26    30    31    2
    27    30    32    1
    28     1     2    1
    29     2     3    1
    30     3     4    1
    31     4    36    1
    32    36    37    1
    33    37    38    2
    34    37    39   am
    35    39    40    1
    36    40    41    1
    37    41    42    2
    38    42    45    1
    39    45    46   ar
    40    46    47   ar
    41    47    48   ar
    42    48    51    1
    43    51    52   ar
    44    52    53   ar
    45    53    54   ar
    46    54    55    1
    47    54    56   ar
    48    48    49   ar
    49    49    50   ar
    50    42    43    1
    51    43    44    1
    52     4     5    1
    53     5     1    1
    54    18    10   ar
    55    44    39    1
    56    17    13   ar
    57    50    45   ar
    58    25    20   ar
    59    56    51   ar
    60     8     9    1
    61    14    19    1
    62    32    33    1
@<TRIPOS>MOLECULE
*****
 56 62 0 0 0
SMALL
GASTEIGER

@<TRIPOS>ATOM
      1 C          -5.5354   -8.3099   30.3742 C.3     1  UNL1        0.1239
      2 C          -5.5019   -8.5368   28.8693 C.3     1  UNL1        0.0374
      3 C          -5.6120  -10.0409   28.7212 C.3     1  UNL1        0.0739
      4 N          -4.9682  -10.6421   29.9016 N.3     1  UNL1       -0.2638
      5 C          -4.8470   -9.5779   30.9158 C.3     1  UNL1        0.0913
      6 C          -6.9808   -8.1698   30.8329 C.2     1  UNL1        0.2359
      7 O          -7.3271   -8.5586   31.9825 O.2     1  UNL1       -0.2739
      8 N          -7.9724   -7.6576   29.9277 N.am    1  UNL1       -0.2831
      9 H          -7.7135   -7.5325   28.9234 H       1  UNL1        0.1549
     10 C          -9.3247   -7.3766   30.3257 C.ar    1  UNL1        0.0567
     11 C          -9.8110   -6.0459   30.2509 C.ar    1  UNL1        0.0164
     12 C         -11.1505   -5.7496   30.5395 C.ar    1  UNL1        0.0198
     13 C         -11.9778   -6.7968   30.9227 C.ar    1  UNL1        0.0756
     14 N         -13.2765   -6.7305   31.2512 N.ar    1  UNL1       -0.2757
     15 N         -13.6855   -7.9421   31.6005 N.ar    1  UNL1       -0.1726
     16 C         -12.6390   -8.7947   31.4889 C.ar    1  UNL1        0.1038
     17 C         -11.5273   -8.0866   31.0320 C.ar    1  UNL1        0.0438
     18 C         -10.2027   -8.4342   30.6974 C.ar    1  UNL1        0.0918
     19 H         -13.8788   -5.8776   31.2574 H       1  UNL1        0.1889
     20 C         -12.7122  -10.1940   31.9427 C.ar    1  UNL1        0.0388
     21 C         -13.2384  -11.1952   31.1143 C.ar    1  UNL1        0.0079
     22 C         -13.2676  -12.5199   31.5525 C.ar    1  UNL1        0.0578
     23 C         -12.7516  -12.8394   32.8109 C.ar    1  UNL1        0.2247
     24 N         -12.2166  -11.8574   33.5896 N.ar    1  UNL1       -0.2101
     25 C         -12.1783  -10.5600   33.1852 C.ar    1  UNL1        0.1036
     26 O         -12.7836  -14.1688   33.2477 O.3     1  UNL1       -0.4640
     27 C         -13.4518  -15.2183   32.5468 C.3     1  UNL1        0.1678
     28 C         -12.5136  -16.4153   32.3668 C.3     1  UNL1        0.0473
     29 C         -14.6934  -15.6275   33.3364 C.3     1  UNL1        0.0473
     30 C          -9.7446   -9.8366   30.6726 C.2     1  UNL1        0.3393
     31 O          -9.8630  -10.5235   29.6228 O.2     1  UNL1       -0.2450
     32 O          -9.1545  -10.3977   31.8013 O.3     1  UNL1       -0.4771
     33 H          -8.8265  -11.3560   31.7945 H       1  UNL1        0.2954
     34 C          -4.6224   -6.9718   32.6163 C.3     1  UNL1        0.0696
     35 S          -4.5763   -6.7918   30.7999 S.3     1  UNL1       -0.1308
     36 C          -5.7116  -11.8118   30.4119 C.3     1  UNL1        0.1587
     37 C          -6.9737  -12.0352   29.6164 C.2     1  UNL1        0.2423
     38 O          -7.9144  -11.2018   29.7296 O.2     1  UNL1       -0.2733
     39 N          -7.1147  -13.1494   28.7095 N.am    1  UNL1       -0.2740
     40 C          -5.9253  -13.8698   28.2196 C.3     1  UNL1        0.1196
     41 C          -6.1927  -14.5778   26.9210 C.2     1  UNL1       -0.0089
     42 C          -7.3992  -15.0950   26.6484 C.2     1  UNL1       -0.0231
     43 C          -8.4938  -14.9474   27.6725 C.3     1  UNL1        0.0476
     44 C          -8.4706  -13.5447   28.2898 C.3     1  UNL1        0.0984
     45 C          -7.6358  -15.8668   25.4002 C.ar    1  UNL1       -0.0042
     46 C          -6.6816  -15.8775   24.3671 C.ar    1  UNL1       -0.0002
     47 C          -6.9130  -16.6002   23.1934 C.ar    1  UNL1        0.0031
     48 C          -8.1037  -17.3263   23.0267 C.ar    1  UNL1        0.0375
     49 C          -9.0591  -17.3139   24.0559 C.ar    1  UNL1        0.0031
     50 C          -8.8284  -16.5904   25.2293 C.ar    1  UNL1       -0.0002
     51 C          -8.3482  -18.0916   21.7851 C.ar    1  UNL1        0.1832
     52 N          -7.3661  -18.6516   21.0402 N.ar    1  UNL1       -0.2034
     53 C          -8.0561  -19.2324   20.0397 C.ar    1  UNL1        0.1972
     54 N          -9.3746  -19.0208   20.1749 N.ar    1  UNL1       -0.2281
     55 C         -10.4334  -19.5567   19.3317 C.3     1  UNL1        0.1556
     56 N          -9.5762  -18.3184   21.2735 N.ar    1  UNL1       -0.1484
@<TRIPOS>BOND
     1    34    35    1
     2     1    35    1
     3     1     6    1
     4     6     7    2
     5     6     8   am
     6     8    10    1
     7    10    11   ar
     8    11    12   ar
     9    12    13   ar
    10    13    14   ar
    11    14    15   ar
    12    15    16   ar
    13    16    20    1
    14    20    21   ar
    15    21    22   ar
    16    22    23   ar
    17    23    26    1
    18    26    27    1
    19    27    28    1
    20    27    29    1
    21    23    24   ar
    22    24    25   ar
    23    16    17   ar
    24    17    18   ar
    25    18    30    1
    26    30    31    2
    27    30    32    1
    28     1     2    1
    29     2     3    1
    30     3     4    1
    31     4    36    1
    32    36    37    1
    33    37    38    2
    34    37    39   am
    35    39    40    1
    36    40    41    1
    37    41    42    2
    38    42    45    1
    39    45    46   ar
    40    46    47   ar
    41    47    48   ar
    42    48    51    1
    43    51    52   ar
    44    52    53   ar
    45    53    54   ar
    46    54    55    1
    47    54    56   ar
    48    48    49   ar
    49    49    50   ar
    50    42    43    1
    51    43    44    1
    52     4     5    1
    53     5     1    1
    54    18    10   ar
    55    44    39    1
    56    17    13   ar
    57    50    45   ar
    58    25    20   ar
    59    56    51   ar
    60     8     9    1
    61    14    19    1
    62    32    33    1
