@<TRIPOS>MOLECULE
*****
 36 39 0 0 0
SMALL
GASTEIGER

@<TRIPOS>ATOM
      1 C          -8.8136  -11.1838   33.4580 C.2     1  UNL1        0.2702
      2 O          -8.3685  -11.9322   34.3690 O.2     1  UNL1       -0.2681
      3 N         -10.0924  -11.4724   32.8675 N.am    1  UNL1       -0.2685
      4 C          -7.1397  -10.1305   31.8873 C.ar    1  UNL1        0.1606
      5 C          -8.0203  -10.0323   32.9853 C.ar    1  UNL1        0.1684
      6 N          -8.1152   -8.8585   33.6673 N.ar    1  UNL1       -0.2362
      7 C          -7.3863   -7.7624   33.3398 C.ar    1  UNL1        0.0992
      8 C          -6.4910   -7.8110   32.2675 C.ar    1  UNL1        0.0221
      9 C          -5.7144   -6.6925   31.9300 C.ar    1  UNL1        0.0016
     10 C          -4.8220   -6.7581   30.8575 C.ar    1  UNL1        0.0001
     11 C          -4.7009   -7.9354   30.1161 C.ar    1  UNL1        0.0001
     12 C          -5.4697   -9.0561   30.4433 C.ar    1  UNL1        0.0031
     13 C          -6.3706   -9.0080   31.5233 C.ar    1  UNL1        0.0372
     14 C          -7.2995  -11.3919   29.7801 C.3     1  UNL1        0.2525
     15 O          -7.0189  -11.3264   31.1725 O.3     1  UNL1       -0.4698
     16 C         -10.2552  -12.7548   32.1546 C.3     1  UNL1        0.1007
     17 C         -10.3739  -12.5544   30.6362 C.3     1  UNL1        0.0265
     18 C         -11.3903  -13.5780   32.7515 C.ar    1  UNL1        0.0234
     19 C         -12.5418  -13.9034   32.0034 C.ar    1  UNL1        0.0019
     20 C         -13.5870  -14.6276   32.5831 C.ar    1  UNL1        0.0295
     21 C         -13.5049  -15.0342   33.9151 C.ar    1  UNL1        0.1424
     22 F         -14.5212  -15.7361   34.4743 F       1  UNL1       -0.2041
     23 C         -12.3756  -14.7178   34.6711 C.ar    1  UNL1        0.0590
     24 C         -11.3244  -13.9935   34.0996 C.ar    1  UNL1        0.1399
     25 F         -10.2413  -13.7067   34.8657 F       1  UNL1       -0.2044
     26 C         -11.2418  -10.6338   33.2555 C.3     1  UNL1        0.1207
     27 C         -11.4434   -9.5003   32.2815 C.ar    1  UNL1       -0.0021
     28 C         -12.5422   -8.6398   32.4176 C.ar    1  UNL1       -0.0026
     29 C         -12.7815   -7.6482   31.4652 C.ar    1  UNL1       -0.0001
     30 C         -11.9320   -7.5078   30.3654 C.ar    1  UNL1        0.0064
     31 C         -10.8174   -8.3514   30.2151 C.ar    1  UNL1        0.0752
     32 C         -10.5780   -9.3422   31.1852 C.ar    1  UNL1        0.0038
     33 C          -9.9288   -8.2417   29.0328 C.2     1  UNL1        0.3380
     34 O          -8.8537   -7.5909   29.1171 O.2     1  UNL1       -0.2451
     35 O         -10.2530   -8.8346   27.8131 O.3     1  UNL1       -0.4771
     36 H         -11.1430   -9.2853   27.6457 H       1  UNL1        0.2954
@<TRIPOS>BOND
     1    14    15    1
     2    15     4    1
     3     4     5   ar
     4     5     1    1
     5     1     2    2
     6     1     3   am
     7     3    26    1
     8    26    27    1
     9    27    28   ar
    10    28    29   ar
    11    29    30   ar
    12    30    31   ar
    13    31    33    1
    14    33    34    2
    15    33    35    1
    16    31    32   ar
    17     3    16    1
    18    16    17    1
    19    16    18    1
    20    18    19   ar
    21    19    20   ar
    22    20    21   ar
    23    21    22    1
    24    21    23   ar
    25    23    24   ar
    26    24    25    1
    27     5     6   ar
    28     6     7   ar
    29     7     8   ar
    30     8     9   ar
    31     9    10   ar
    32    10    11   ar
    33    11    12   ar
    34    12    13   ar
    35    13     4   ar
    36    32    27   ar
    37    24    18   ar
    38    13     8   ar
    39    35    36    1
@<TRIPOS>MOLECULE
*****
 36 39 0 0 0
SMALL
GASTEIGER

@<TRIPOS>ATOM
      1 C          -8.9050  -11.2392   33.1474 C.2     1  UNL1        0.2702
      2 O          -7.9772  -10.9239   33.9399 O.2     1  UNL1       -0.2681
      3 N          -9.0358  -10.5402   31.8978 N.am    1  UNL1       -0.2685
      4 C         -10.9344  -12.6621   32.6619 C.ar    1  UNL1        0.1606
      5 C          -9.8630  -12.3030   33.5070 C.ar    1  UNL1        0.1684
      6 N          -9.7253  -12.9157   34.7143 N.ar    1  UNL1       -0.2362
      7 C         -10.5873  -13.8666   35.1534 C.ar    1  UNL1        0.0992
      8 C         -11.6717  -14.2500   34.3591 C.ar    1  UNL1        0.0221
      9 C         -12.5840  -15.2163   34.8085 C.ar    1  UNL1        0.0016
     10 C         -13.6643  -15.5864   34.0041 C.ar    1  UNL1        0.0001
     11 C         -13.8391  -14.9983   32.7495 C.ar    1  UNL1        0.0001
     12 C         -12.9363  -14.0344   32.2914 C.ar    1  UNL1        0.0031
     13 C         -11.8449  -13.6473   33.0911 C.ar    1  UNL1        0.0372
     14 C         -12.3493  -11.4827   31.0298 C.3     1  UNL1        0.2525
     15 O         -11.1022  -12.0444   31.4186 O.3     1  UNL1       -0.4698
     16 C          -9.3069   -9.0896   31.9380 C.3     1  UNL1        0.1007
     17 C         -10.5049   -8.7067   31.0560 C.3     1  UNL1        0.0265
     18 C          -8.0480   -8.2843   31.6396 C.ar    1  UNL1        0.0234
     19 C          -7.8153   -7.7181   30.3681 C.ar    1  UNL1        0.0019
     20 C          -6.6362   -7.0150   30.1061 C.ar    1  UNL1        0.0295
     21 C          -5.6701   -6.8691   31.1019 C.ar    1  UNL1        0.1424
     22 F          -4.5272   -6.1870   30.8439 F       1  UNL1       -0.2041
     23 C          -5.8815   -7.4258   32.3638 C.ar    1  UNL1        0.0590
     24 C          -7.0584   -8.1310   32.6354 C.ar    1  UNL1        0.1399
     25 F          -7.2296   -8.6562   33.8753 F       1  UNL1       -0.2044
     26 C          -8.5989  -11.2275   30.6683 C.3     1  UNL1        0.1207
     27 C          -7.1255  -11.0207   30.4222 C.ar    1  UNL1       -0.0021
     28 C          -6.1995  -11.2472   31.4505 C.ar    1  UNL1       -0.0026
     29 C          -4.8465  -10.9683   31.2530 C.ar    1  UNL1       -0.0001
     30 C          -4.4037  -10.4560   30.0313 C.ar    1  UNL1        0.0064
     31 C          -5.3125  -10.2325   28.9821 C.ar    1  UNL1        0.0752
     32 C          -6.6735  -10.5257   29.1867 C.ar    1  UNL1        0.0038
     33 C          -4.8650   -9.6516   27.6931 C.2     1  UNL1        0.3380
     34 O          -3.7613   -9.0479   27.6291 O.2     1  UNL1       -0.2451
     35 O          -5.6395   -9.7448   26.5374 O.3     1  UNL1       -0.4771
     36 H          -6.5765  -10.1261   26.5386 H       1  UNL1        0.2954
@<TRIPOS>BOND
     1    14    15    1
     2    15     4    1
     3     4     5   ar
     4     5     1    1
     5     1     2    2
     6     1     3   am
     7     3    26    1
     8    26    27    1
     9    27    28   ar
    10    28    29   ar
    11    29    30   ar
    12    30    31   ar
    13    31    33    1
    14    33    34    2
    15    33    35    1
    16    31    32   ar
    17     3    16    1
    18    16    17    1
    19    16    18    1
    20    18    19   ar
    21    19    20   ar
    22    20    21   ar
    23    21    22    1
    24    21    23   ar
    25    23    24   ar
    26    24    25    1
    27     5     6   ar
    28     6     7   ar
    29     7     8   ar
    30     8     9   ar
    31     9    10   ar
    32    10    11   ar
    33    11    12   ar
    34    12    13   ar
    35    13     4   ar
    36    32    27   ar
    37    24    18   ar
    38    13     8   ar
    39    35    36    1
@<TRIPOS>MOLECULE
*****
 36 39 0 0 0
SMALL
GASTEIGER

@<TRIPOS>ATOM
      1 C         -10.5156   -9.9924   32.0747 C.2     1  UNL1        0.2702
      2 O         -11.7680   -9.9054   31.9644 O.2     1  UNL1       -0.2681
      3 N          -9.9204  -11.2614   32.3951 N.am    1  UNL1       -0.2685
      4 C         -10.0204   -7.7525   31.0180 C.ar    1  UNL1        0.1606
      5 C          -9.6669   -8.7978   31.8974 C.ar    1  UNL1        0.1684
      6 N          -8.4873   -8.7371   32.5731 N.ar    1  UNL1       -0.2362
      7 C          -7.6180   -7.7050   32.4340 C.ar    1  UNL1        0.0992
      8 C          -7.9158   -6.6502   31.5666 C.ar    1  UNL1        0.0221
      9 C          -7.0173   -5.5865   31.3956 C.ar    1  UNL1        0.0016
     10 C          -7.3282   -4.5413   30.5227 C.ar    1  UNL1        0.0001
     11 C          -8.5345   -4.5498   29.8191 C.ar    1  UNL1        0.0001
     12 C          -9.4374   -5.6044   29.9817 C.ar    1  UNL1        0.0031
     13 C          -9.1378   -6.6672   30.8541 C.ar    1  UNL1        0.0372
     14 C         -12.3693   -7.0713   30.7435 C.3     1  UNL1        0.2525
     15 O         -11.2241   -7.7925   30.3074 O.3     1  UNL1       -0.4698
     16 C         -10.2675  -11.8853   33.6873 C.3     1  UNL1        0.1007
     17 C          -9.0217  -12.1598   34.5431 C.3     1  UNL1        0.0265
     18 C         -11.1529  -13.1097   33.4890 C.ar    1  UNL1        0.0234
     19 C         -11.9486  -13.2689   32.3345 C.ar    1  UNL1        0.0019
     20 C         -12.7813  -14.3820   32.1909 C.ar    1  UNL1        0.0295
     21 C         -12.8389  -15.3495   33.1944 C.ar    1  UNL1        0.1424
     22 F         -13.6485  -16.4277   33.0520 F       1  UNL1       -0.2041
     23 C         -12.0621  -15.2064   34.3447 C.ar    1  UNL1        0.0590
     24 C         -11.2255  -14.0959   34.4972 C.ar    1  UNL1        0.1399
     25 F         -10.4831  -13.9925   35.6288 F       1  UNL1       -0.2044
     26 C          -9.2497  -12.0069   31.3138 C.3     1  UNL1        0.1207
     27 C          -7.8407  -11.5124   31.1031 C.ar    1  UNL1       -0.0021
     28 C          -6.9791  -11.3487   32.1972 C.ar    1  UNL1       -0.0026
     29 C          -5.7069  -10.8046   32.0157 C.ar    1  UNL1       -0.0001
     30 C          -5.2829  -10.4131   30.7437 C.ar    1  UNL1        0.0064
     31 C          -6.1254  -10.5792   29.6304 C.ar    1  UNL1        0.0752
     32 C          -7.4028  -11.1378   29.8210 C.ar    1  UNL1        0.0038
     33 C          -5.7058  -10.1321   28.2801 C.2     1  UNL1        0.3380
     34 O          -4.9393  -10.8567   27.5917 O.2     1  UNL1       -0.2451
     35 O          -6.1296   -8.9164   27.7446 O.3     1  UNL1       -0.4771
     36 H          -6.6622   -8.2419   28.2782 H       1  UNL1        0.2954
@<TRIPOS>BOND
     1    14    15    1
     2    15     4    1
     3     4     5   ar
     4     5     1    1
     5     1     2    2
     6     1     3   am
     7     3    26    1
     8    26    27    1
     9    27    28   ar
    10    28    29   ar
    11    29    30   ar
    12    30    31   ar
    13    31    33    1
    14    33    34    2
    15    33    35    1
    16    31    32   ar
    17     3    16    1
    18    16    17    1
    19    16    18    1
    20    18    19   ar
    21    19    20   ar
    22    20    21   ar
    23    21    22    1
    24    21    23   ar
    25    23    24   ar
    26    24    25    1
    27     5     6   ar
    28     6     7   ar
    29     7     8   ar
    30     8     9   ar
    31     9    10   ar
    32    10    11   ar
    33    11    12   ar
    34    12    13   ar
    35    13     4   ar
    36    32    27   ar
    37    24    18   ar
    38    13     8   ar
    39    35    36    1
@<TRIPOS>MOLECULE
*****
 36 39 0 0 0
SMALL
GASTEIGER

@<TRIPOS>ATOM
      1 C          -9.7009  -10.5433   32.6319 C.2     1  UNL1        0.2702
      2 O          -8.9093  -10.3732   33.5976 O.2     1  UNL1       -0.2681
      3 N          -9.5125   -9.7900   31.4218 N.am    1  UNL1       -0.2685
      4 C         -10.7247  -12.6838   33.4972 C.ar    1  UNL1        0.1606
      5 C         -10.8255  -11.4923   32.7482 C.ar    1  UNL1        0.1684
      6 N         -11.9730  -11.2209   32.0689 N.ar    1  UNL1       -0.2362
      7 C         -13.0398  -12.0588   32.0730 C.ar    1  UNL1        0.0992
      8 C         -12.9866  -13.2575   32.7900 C.ar    1  UNL1        0.0221
      9 C         -14.0735  -14.1445   32.7864 C.ar    1  UNL1        0.0016
     10 C         -14.0036  -15.3398   33.5056 C.ar    1  UNL1        0.0001
     11 C         -12.8535  -15.6555   34.2323 C.ar    1  UNL1        0.0001
     12 C         -11.7646  -14.7792   34.2432 C.ar    1  UNL1        0.0031
     13 C         -11.8171  -13.5727   33.5208 C.ar    1  UNL1        0.0372
     14 C          -9.5094  -12.9498   35.6207 C.3     1  UNL1        0.2525
     15 O          -9.5551  -12.9896   34.2001 O.3     1  UNL1       -0.4698
     16 C          -9.6176   -8.3193   31.4953 C.3     1  UNL1        0.1007
     17 C         -10.7058   -7.7759   30.5570 C.3     1  UNL1        0.0265
     18 C          -8.2585   -7.6583   31.3000 C.ar    1  UNL1        0.0234
     19 C          -7.9157   -7.0126   30.0929 C.ar    1  UNL1        0.0019
     20 C          -6.6498   -6.4456   29.9227 C.ar    1  UNL1        0.0295
     21 C          -5.7054   -6.5167   30.9470 C.ar    1  UNL1        0.1424
     22 F          -4.4780   -5.9661   30.7780 F       1  UNL1       -0.2041
     23 C          -6.0255   -7.1549   32.1459 C.ar    1  UNL1        0.0590
     24 C          -7.2899   -7.7251   32.3256 C.ar    1  UNL1        0.1399
     25 F          -7.5655   -8.3353   33.5064 F       1  UNL1       -0.2044
     26 C          -8.9335  -10.4824   30.2556 C.3     1  UNL1        0.1207
     27 C          -7.4328  -10.5789   30.3682 C.ar    1  UNL1       -0.0021
     28 C          -6.8439  -11.0907   31.5333 C.ar    1  UNL1       -0.0026
     29 C          -5.4557  -11.0953   31.6764 C.ar    1  UNL1       -0.0001
     30 C          -4.6412  -10.5850   30.6630 C.ar    1  UNL1        0.0064
     31 C          -5.2093  -10.0779   29.4811 C.ar    1  UNL1        0.0752
     32 C          -6.6094  -10.0861   29.3410 C.ar    1  UNL1        0.0038
     33 C          -4.3608   -9.4960   28.4129 C.2     1  UNL1        0.3380
     34 O          -3.1462   -9.2534   28.6420 O.2     1  UNL1       -0.2451
     35 O          -4.8720   -9.1963   27.1508 O.3     1  UNL1       -0.4771
     36 H          -5.8562   -9.2715   26.9294 H       1  UNL1        0.2954
@<TRIPOS>BOND
     1    14    15    1
     2    15     4    1
     3     4     5   ar
     4     5     1    1
     5     1     2    2
     6     1     3   am
     7     3    26    1
     8    26    27    1
     9    27    28   ar
    10    28    29   ar
    11    29    30   ar
    12    30    31   ar
    13    31    33    1
    14    33    34    2
    15    33    35    1
    16    31    32   ar
    17     3    16    1
    18    16    17    1
    19    16    18    1
    20    18    19   ar
    21    19    20   ar
    22    20    21   ar
    23    21    22    1
    24    21    23   ar
    25    23    24   ar
    26    24    25    1
    27     5     6   ar
    28     6     7   ar
    29     7     8   ar
    30     8     9   ar
    31     9    10   ar
    32    10    11   ar
    33    11    12   ar
    34    12    13   ar
    35    13     4   ar
    36    32    27   ar
    37    24    18   ar
    38    13     8   ar
    39    35    36    1
@<TRIPOS>MOLECULE
*****
 36 39 0 0 0
SMALL
GASTEIGER

@<TRIPOS>ATOM
      1 C         -10.1035   -8.5253   30.9772 C.2     1  UNL1        0.2702
      2 O         -10.7987   -7.5738   30.5307 O.2     1  UNL1       -0.2681
      3 N         -10.5952   -9.8721   30.8687 N.am    1  UNL1       -0.2685
      4 C          -7.8325   -7.4218   31.0379 C.ar    1  UNL1        0.1606
      5 C          -8.8043   -8.2592   31.6254 C.ar    1  UNL1        0.1684
      6 N          -8.5294   -8.8841   32.8026 N.ar    1  UNL1       -0.2362
      7 C          -7.3432   -8.7424   33.4452 C.ar    1  UNL1        0.0992
      8 C          -6.3428   -7.9333   32.8992 C.ar    1  UNL1        0.0221
      9 C          -5.1030   -7.7940   33.5407 C.ar    1  UNL1        0.0016
     10 C          -4.1124   -6.9839   32.9807 C.ar    1  UNL1        0.0001
     11 C          -4.3527   -6.3083   31.7823 C.ar    1  UNL1        0.0001
     12 C          -5.5843   -6.4397   31.1343 C.ar    1  UNL1        0.0031
     13 C          -6.5916   -7.2549   31.6830 C.ar    1  UNL1        0.0372
     14 C          -8.6165   -5.4529   29.7867 C.3     1  UNL1        0.2525
     15 O          -8.0871   -6.7720   29.8260 O.3     1  UNL1       -0.4698
     16 C         -11.8507  -10.2119   31.5669 C.3     1  UNL1        0.1007
     17 C         -12.4354   -9.0033   32.3135 C.3     1  UNL1        0.0265
     18 C         -11.6777  -11.4455   32.4448 C.ar    1  UNL1        0.0234
     19 C         -10.5983  -11.5679   33.3455 C.ar    1  UNL1        0.0019
     20 C         -10.4388  -12.7244   34.1137 C.ar    1  UNL1        0.0295
     21 C         -11.3464  -13.7770   33.9940 C.ar    1  UNL1        0.1424
     22 F         -11.1882  -14.8978   34.7404 F       1  UNL1       -0.2041
     23 C         -12.4175  -13.6751   33.1054 C.ar    1  UNL1        0.0590
     24 C         -12.5854  -12.5216   32.3326 C.ar    1  UNL1        0.1399
     25 F         -13.6406  -12.4580   31.4811 F       1  UNL1       -0.2044
     26 C         -10.0025  -10.7472   29.8402 C.3     1  UNL1        0.1207
     27 C          -8.5104  -10.8690   30.0216 C.ar    1  UNL1       -0.0021
     28 C          -7.9870  -11.5134   31.1517 C.ar    1  UNL1       -0.0026
     29 C          -6.6087  -11.5463   31.3677 C.ar    1  UNL1       -0.0001
     30 C          -5.7389  -10.9329   30.4632 C.ar    1  UNL1        0.0064
     31 C          -6.2405  -10.2914   29.3170 C.ar    1  UNL1        0.0752
     32 C          -7.6310  -10.2715   29.1020 C.ar    1  UNL1        0.0038
     33 C          -5.3337   -9.6010   28.3682 C.2     1  UNL1        0.3380
     34 O          -4.1749   -9.2730   28.7372 O.2     1  UNL1       -0.2451
     35 O          -5.7298   -9.2908   27.0678 O.3     1  UNL1       -0.4771
     36 H          -6.6750   -9.4341   26.7371 H       1  UNL1        0.2954
@<TRIPOS>BOND
     1    14    15    1
     2    15     4    1
     3     4     5   ar
     4     5     1    1
     5     1     2    2
     6     1     3   am
     7     3    26    1
     8    26    27    1
     9    27    28   ar
    10    28    29   ar
    11    29    30   ar
    12    30    31   ar
    13    31    33    1
    14    33    34    2
    15    33    35    1
    16    31    32   ar
    17     3    16    1
    18    16    17    1
    19    16    18    1
    20    18    19   ar
    21    19    20   ar
    22    20    21   ar
    23    21    22    1
    24    21    23   ar
    25    23    24   ar
    26    24    25    1
    27     5     6   ar
    28     6     7   ar
    29     7     8   ar
    30     8     9   ar
    31     9    10   ar
    32    10    11   ar
    33    11    12   ar
    34    12    13   ar
    35    13     4   ar
    36    32    27   ar
    37    24    18   ar
    38    13     8   ar
    39    35    36    1
@<TRIPOS>MOLECULE
*****
 36 39 0 0 0
SMALL
GASTEIGER

@<TRIPOS>ATOM
      1 C          -9.6021  -10.6402   33.3707 C.2     1  UNL1        0.2702
      2 O          -9.3973   -9.9435   34.4007 O.2     1  UNL1       -0.2681
      3 N         -10.7555  -11.4968   33.3142 N.am    1  UNL1       -0.2685
      4 C          -8.0261   -9.3967   31.8382 C.ar    1  UNL1        0.1606
      5 C          -8.6552  -10.5943   32.2393 C.ar    1  UNL1        0.1684
      6 N          -8.4268  -11.7396   31.5408 N.ar    1  UNL1       -0.2362
      7 C          -7.6144  -11.7835   30.4554 C.ar    1  UNL1        0.0992
      8 C          -6.9766  -10.6222   30.0101 C.ar    1  UNL1        0.0221
      9 C          -6.1506  -10.6471   28.8764 C.ar    1  UNL1        0.0016
     10 C          -5.5226   -9.4774   28.4424 C.ar    1  UNL1        0.0001
     11 C          -5.7123   -8.2801   29.1359 C.ar    1  UNL1        0.0001
     12 C          -6.5330   -8.2435   30.2669 C.ar    1  UNL1        0.0031
     13 C          -7.1762   -9.4122   30.7150 C.ar    1  UNL1        0.0372
     14 C          -7.1747   -7.4675   33.1072 C.3     1  UNL1        0.2525
     15 O          -8.2477   -8.2047   32.5350 O.3     1  UNL1       -0.4698
     16 C         -10.8605  -12.5873   34.3036 C.3     1  UNL1        0.1007
     17 C          -9.4962  -12.9364   34.9173 C.3     1  UNL1        0.0265
     18 C         -11.5938  -13.7906   33.7233 C.ar    1  UNL1        0.0234
     19 C         -11.4823  -14.1389   32.3603 C.ar    1  UNL1        0.0019
     20 C         -12.1934  -15.2246   31.8418 C.ar    1  UNL1        0.0295
     21 C         -13.0287  -15.9759   32.6689 C.ar    1  UNL1        0.1424
     22 F         -13.7176  -17.0280   32.1623 F       1  UNL1       -0.2041
     23 C         -13.1542  -15.6434   34.0183 C.ar    1  UNL1        0.0590
     24 C         -12.4464  -14.5588   34.5463 C.ar    1  UNL1        0.1399
     25 F         -12.5921  -14.2675   35.8639 F       1  UNL1       -0.2044
     26 C         -11.8997  -11.0676   32.4885 C.3     1  UNL1        0.1207
     27 C         -11.4387  -10.3059   31.2715 C.ar    1  UNL1       -0.0021
     28 C         -10.9646  -10.9943   30.1456 C.ar    1  UNL1       -0.0026
     29 C         -10.4519  -10.2907   29.0549 C.ar    1  UNL1       -0.0001
     30 C         -10.4013   -8.8951   29.0775 C.ar    1  UNL1        0.0064
     31 C         -10.8823   -8.1835   30.1907 C.ar    1  UNL1        0.0752
     32 C         -11.4065   -8.9006   31.2820 C.ar    1  UNL1        0.0038
     33 C         -10.7990   -6.7039   30.2471 C.2     1  UNL1        0.3380
     34 O          -9.7699   -6.1534   30.7208 O.2     1  UNL1       -0.2451
     35 O         -11.8391   -5.8922   29.7960 O.3     1  UNL1       -0.4771
     36 H         -12.7309   -6.2647   29.4974 H       1  UNL1        0.2954
@<TRIPOS>BOND
     1    14    15    1
     2    15     4    1
     3     4     5   ar
     4     5     1    1
     5     1     2    2
     6     1     3   am
     7     3    26    1
     8    26    27    1
     9    27    28   ar
    10    28    29   ar
    11    29    30   ar
    12    30    31   ar
    13    31    33    1
    14    33    34    2
    15    33    35    1
    16    31    32   ar
    17     3    16    1
    18    16    17    1
    19    16    18    1
    20    18    19   ar
    21    19    20   ar
    22    20    21   ar
    23    21    22    1
    24    21    23   ar
    25    23    24   ar
    26    24    25    1
    27     5     6   ar
    28     6     7   ar
    29     7     8   ar
    30     8     9   ar
    31     9    10   ar
    32    10    11   ar
    33    11    12   ar
    34    12    13   ar
    35    13     4   ar
    36    32    27   ar
    37    24    18   ar
    38    13     8   ar
    39    35    36    1
@<TRIPOS>MOLECULE
*****
 36 39 0 0 0
SMALL
GASTEIGER

@<TRIPOS>ATOM
      1 C          -9.7891   -9.9290   32.3150 C.2     1  UNL1        0.2702
      2 O          -9.9838  -10.0659   33.5525 O.2     1  UNL1       -0.2681
      3 N          -9.1802  -10.9990   31.5723 N.am    1  UNL1       -0.2685
      4 C          -9.2013   -7.7144   31.2524 C.ar    1  UNL1        0.1606
      5 C         -10.1632   -8.6728   31.6360 C.ar    1  UNL1        0.1684
      6 N         -11.4835   -8.4225   31.4218 N.ar    1  UNL1       -0.2362
      7 C         -11.9261   -7.2732   30.8531 C.ar    1  UNL1        0.0992
      8 C         -11.0147   -6.2868   30.4657 C.ar    1  UNL1        0.0221
      9 C         -11.4583   -5.0839   29.8962 C.ar    1  UNL1        0.0016
     10 C         -10.5351   -4.1068   29.5170 C.ar    1  UNL1        0.0001
     11 C          -9.1678   -4.3240   29.7010 C.ar    1  UNL1        0.0001
     12 C          -8.7143   -5.5187   30.2675 C.ar    1  UNL1        0.0031
     13 C          -9.6315   -6.5118   30.6586 C.ar    1  UNL1        0.0372
     14 C          -7.1476   -7.3539   32.5597 C.3     1  UNL1        0.2525
     15 O          -7.8386   -7.9441   31.4661 O.3     1  UNL1       -0.4698
     16 C          -7.8079  -11.4041   31.9356 C.3     1  UNL1        0.1007
     17 C          -7.4821  -11.0727   33.3999 C.3     1  UNL1        0.0265
     18 C          -6.7892  -10.8537   30.9448 C.ar    1  UNL1        0.0234
     19 C          -7.1877  -10.1906   29.7646 C.ar    1  UNL1        0.0019
     20 C          -6.2364   -9.7269   28.8519 C.ar    1  UNL1        0.0295
     21 C          -4.8766   -9.9200   29.0965 C.ar    1  UNL1        0.1424
     22 F          -3.9566   -9.4694   28.2084 F       1  UNL1       -0.2041
     23 C          -4.4645  -10.5772   30.2563 C.ar    1  UNL1        0.0590
     24 C          -5.4091  -11.0446   31.1757 C.ar    1  UNL1        0.1399
     25 F          -4.9700  -11.6770   32.2936 F       1  UNL1       -0.2044
     26 C         -10.0448  -11.8258   30.7099 C.3     1  UNL1        0.1207
     27 C         -11.2141  -12.3820   31.4829 C.ar    1  UNL1       -0.0021
     28 C         -12.5248  -12.0299   31.1305 C.ar    1  UNL1       -0.0026
     29 C         -13.6026  -12.4693   31.9004 C.ar    1  UNL1       -0.0001
     30 C         -13.3848  -13.2589   33.0318 C.ar    1  UNL1        0.0064
     31 C         -12.0800  -13.6343   33.3970 C.ar    1  UNL1        0.0752
     32 C         -10.9999  -13.1949   32.6094 C.ar    1  UNL1        0.0038
     33 C         -11.8288  -14.4386   34.6174 C.2     1  UNL1        0.3380
     34 O         -10.7168  -14.3549   35.2033 O.2     1  UNL1       -0.2451
     35 O         -12.7914  -15.3021   35.1388 O.3     1  UNL1       -0.4771
     36 H         -13.6651  -15.4936   34.6662 H       1  UNL1        0.2954
@<TRIPOS>BOND
     1    14    15    1
     2    15     4    1
     3     4     5   ar
     4     5     1    1
     5     1     2    2
     6     1     3   am
     7     3    26    1
     8    26    27    1
     9    27    28   ar
    10    28    29   ar
    11    29    30   ar
    12    30    31   ar
    13    31    33    1
    14    33    34    2
    15    33    35    1
    16    31    32   ar
    17     3    16    1
    18    16    17    1
    19    16    18    1
    20    18    19   ar
    21    19    20   ar
    22    20    21   ar
    23    21    22    1
    24    21    23   ar
    25    23    24   ar
    26    24    25    1
    27     5     6   ar
    28     6     7   ar
    29     7     8   ar
    30     8     9   ar
    31     9    10   ar
    32    10    11   ar
    33    11    12   ar
    34    12    13   ar
    35    13     4   ar
    36    32    27   ar
    37    24    18   ar
    38    13     8   ar
    39    35    36    1
@<TRIPOS>MOLECULE
*****
 36 39 0 0 0
SMALL
GASTEIGER

@<TRIPOS>ATOM
      1 C         -10.2621  -10.0022   32.4372 C.2     1  UNL1        0.2702
      2 O         -10.6527  -10.1105   33.6304 O.2     1  UNL1       -0.2681
      3 N          -9.6334  -11.1241   31.7943 N.am    1  UNL1       -0.2685
      4 C          -9.3346   -7.8892   31.4107 C.ar    1  UNL1        0.1606
      5 C         -10.4287   -8.7280   31.7110 C.ar    1  UNL1        0.1684
      6 N         -11.6870   -8.3395   31.3678 N.ar    1  UNL1       -0.2362
      7 C         -11.9437   -7.1615   30.7460 C.ar    1  UNL1        0.0992
      8 C         -10.8961   -6.2895   30.4368 C.ar    1  UNL1        0.0221
      9 C         -11.1478   -5.0582   29.8135 C.ar    1  UNL1        0.0016
     10 C         -10.0902   -4.1965   29.5137 C.ar    1  UNL1        0.0001
     11 C          -8.7790   -4.5577   29.8309 C.ar    1  UNL1        0.0001
     12 C          -8.5163   -5.7821   30.4520 C.ar    1  UNL1        0.0031
     13 C          -9.5708   -6.6601   30.7644 C.ar    1  UNL1        0.0372
     14 C          -7.2999   -7.5637   32.7564 C.3     1  UNL1        0.2525
     15 O          -8.0320   -8.2618   31.7570 O.3     1  UNL1       -0.4698
     16 C          -8.3683  -11.6311   32.3618 C.3     1  UNL1        0.1007
     17 C          -8.2234  -11.2717   33.8483 C.3     1  UNL1        0.0265
     18 C          -7.1746  -11.2095   31.5134 C.ar    1  UNL1        0.0234
     19 C          -6.0233  -10.6322   32.0902 C.ar    1  UNL1        0.0019
     20 C          -4.9556  -10.2189   31.2888 C.ar    1  UNL1        0.0295
     21 C          -5.0191  -10.3687   29.9032 C.ar    1  UNL1        0.1424
     22 F          -3.9817   -9.9659   29.1288 F       1  UNL1       -0.2041
     23 C          -6.1514  -10.9337   29.3153 C.ar    1  UNL1        0.0590
     24 C          -7.2248  -11.3505   30.1092 C.ar    1  UNL1        0.1399
     25 F          -8.3081  -11.8979   29.5015 F       1  UNL1       -0.2044
     26 C         -10.4191  -11.8902   30.8090 C.3     1  UNL1        0.1207
     27 C         -11.6525  -12.4861   31.4397 C.ar    1  UNL1       -0.0021
     28 C         -12.8777  -11.8074   31.3726 C.ar    1  UNL1       -0.0026
     29 C         -13.9985  -12.3116   32.0338 C.ar    1  UNL1       -0.0001
     30 C         -13.9082  -13.4935   32.7727 C.ar    1  UNL1        0.0064
     31 C         -12.6931  -14.1971   32.8439 C.ar    1  UNL1        0.0752
     32 C         -11.5705  -13.6867   32.1661 C.ar    1  UNL1        0.0038
     33 C         -12.5704  -15.4315   33.6566 C.2     1  UNL1        0.3380
     34 O         -12.4605  -16.5483   33.0845 O.2     1  UNL1       -0.2451
     35 O         -12.5821  -15.3971   35.0504 O.3     1  UNL1       -0.4771
     36 H         -12.7665  -14.5510   35.5732 H       1  UNL1        0.2954
@<TRIPOS>BOND
     1    14    15    1
     2    15     4    1
     3     4     5   ar
     4     5     1    1
     5     1     2    2
     6     1     3   am
     7     3    26    1
     8    26    27    1
     9    27    28   ar
    10    28    29   ar
    11    29    30   ar
    12    30    31   ar
    13    31    33    1
    14    33    34    2
    15    33    35    1
    16    31    32   ar
    17     3    16    1
    18    16    17    1
    19    16    18    1
    20    18    19   ar
    21    19    20   ar
    22    20    21   ar
    23    21    22    1
    24    21    23   ar
    25    23    24   ar
    26    24    25    1
    27     5     6   ar
    28     6     7   ar
    29     7     8   ar
    30     8     9   ar
    31     9    10   ar
    32    10    11   ar
    33    11    12   ar
    34    12    13   ar
    35    13     4   ar
    36    32    27   ar
    37    24    18   ar
    38    13     8   ar
    39    35    36    1
@<TRIPOS>MOLECULE
*****
 36 39 0 0 0
SMALL
GASTEIGER

@<TRIPOS>ATOM
      1 C          -7.8579  -10.1967   31.7765 C.2     1  UNL1        0.2702
      2 O          -7.9164  -10.2688   30.5197 O.2     1  UNL1       -0.2681
      3 N          -7.0385   -9.1868   32.3895 N.am    1  UNL1       -0.2685
      4 C          -9.7653  -11.8105   32.1457 C.ar    1  UNL1        0.1606
      5 C          -8.6073  -11.1539   32.6137 C.ar    1  UNL1        0.1684
      6 N          -8.1850  -11.3648   33.8900 N.ar    1  UNL1       -0.2362
      7 C          -8.8391  -12.1853   34.7497 C.ar    1  UNL1        0.0992
      8 C          -9.9979  -12.8504   34.3389 C.ar    1  UNL1        0.0221
      9 C         -10.6975  -13.6852   35.2230 C.ar    1  UNL1        0.0016
     10 C         -11.8556  -14.3405   34.7981 C.ar    1  UNL1        0.0001
     11 C         -12.3199  -14.1693   33.4922 C.ar    1  UNL1        0.0001
     12 C         -11.6308  -13.3400   32.6026 C.ar    1  UNL1        0.0031
     13 C         -10.4647  -12.6694   33.0159 C.ar    1  UNL1        0.0372
     14 C          -9.9497  -12.5397   29.8024 C.3     1  UNL1        0.2525
     15 O         -10.2241  -11.6074   30.8405 O.3     1  UNL1       -0.4698
     16 C          -5.5848   -9.2221   32.1347 C.3     1  UNL1        0.1007
     17 C          -4.8574   -8.0476   32.8065 C.3     1  UNL1        0.0265
     18 C          -5.2884   -9.3514   30.6455 C.ar    1  UNL1        0.0234
     19 C          -5.6571   -8.3454   29.7271 C.ar    1  UNL1        0.0019
     20 C          -5.4085   -8.5020   28.3608 C.ar    1  UNL1        0.0295
     21 C          -4.7951   -9.6622   27.8876 C.ar    1  UNL1        0.1424
     22 F          -4.5562   -9.8110   26.5613 F       1  UNL1       -0.2041
     23 C          -4.4274  -10.6691   28.7808 C.ar    1  UNL1        0.0590
     24 C          -4.6719  -10.5213   30.1499 C.ar    1  UNL1        0.1399
     25 F          -4.2978  -11.5211   30.9883 F       1  UNL1       -0.2044
     26 C          -7.7080   -8.0121   32.9784 C.3     1  UNL1        0.1207
     27 C          -7.9689   -6.9537   31.9364 C.ar    1  UNL1       -0.0021
     28 C          -6.9273   -6.1242   31.4967 C.ar    1  UNL1       -0.0026
     29 C          -7.1854   -5.0850   30.6018 C.ar    1  UNL1       -0.0001
     30 C          -8.4843   -4.8584   30.1408 C.ar    1  UNL1        0.0064
     31 C          -9.5420   -5.6850   30.5587 C.ar    1  UNL1        0.0752
     32 C          -9.2710   -6.7366   31.4536 C.ar    1  UNL1        0.0038
     33 C         -10.9329   -5.4332   30.1101 C.2     1  UNL1        0.3380
     34 O         -11.3224   -4.2515   29.9144 O.2     1  UNL1       -0.2451
     35 O         -11.8377   -6.4739   29.9043 O.3     1  UNL1       -0.4771
     36 H         -11.6250   -7.4352   30.1368 H       1  UNL1        0.2954
@<TRIPOS>BOND
     1    14    15    1
     2    15     4    1
     3     4     5   ar
     4     5     1    1
     5     1     2    2
     6     1     3   am
     7     3    26    1
     8    26    27    1
     9    27    28   ar
    10    28    29   ar
    11    29    30   ar
    12    30    31   ar
    13    31    33    1
    14    33    34    2
    15    33    35    1
    16    31    32   ar
    17     3    16    1
    18    16    17    1
    19    16    18    1
    20    18    19   ar
    21    19    20   ar
    22    20    21   ar
    23    21    22    1
    24    21    23   ar
    25    23    24   ar
    26    24    25    1
    27     5     6   ar
    28     6     7   ar
    29     7     8   ar
    30     8     9   ar
    31     9    10   ar
    32    10    11   ar
    33    11    12   ar
    34    12    13   ar
    35    13     4   ar
    36    32    27   ar
    37    24    18   ar
    38    13     8   ar
    39    35    36    1
