@<TRIPOS>MOLECULE
*****
 53 59 0 0 0
SMALL
GASTEIGER

@<TRIPOS>ATOM
      1 C          60.1985   87.1210   10.2007 C.ar    1  UNL1        0.0497
      2 C          59.1500   86.9677   11.1188 C.ar    1  UNL1        0.0177
      3 C          59.3009   86.1332   12.2290 C.ar    1  UNL1        0.0382
      4 C          60.4980   85.4397   12.4389 C.ar    1  UNL1        0.1388
      5 C          61.5486   85.5845   11.5148 C.ar    1  UNL1        0.0382
      6 C          61.3998   86.4235   10.4068 C.ar    1  UNL1        0.0177
      7 N          59.6347   89.8058    6.9834 N.pl3   1  UNL1       -0.3021
      8 C          59.9336   90.3474    8.3119 C.3     1  UNL1        0.1124
      9 C          60.7026   89.3136    9.1332 C.3     1  UNL1        0.1143
     10 N          60.0419   88.0026    9.0727 N.pl3   1  UNL1       -0.2831
     11 C          59.6862   87.4660    7.7441 C.3     1  UNL1        0.2091
     12 O          58.9043   86.3018    7.8551 O.3     1  UNL1       -0.3658
     13 C          58.9327   88.5207    6.9198 C.3     1  UNL1        0.1419
     14 H          58.1103   86.5298    8.4064 H       1  UNL1        0.2123
     15 C          59.9339   92.2729    3.5205 C.ar    1  UNL1        0.0699
     16 C          61.0628   91.6037    4.0229 C.ar    1  UNL1        0.0190
     17 C          60.9623   90.7964    5.1593 C.ar    1  UNL1        0.0160
     18 C          59.7305   90.6371    5.8114 C.ar    1  UNL1        0.0481
     19 C          58.5995   91.2993    5.3079 C.ar    1  UNL1        0.0160
     20 C          58.6994   92.1073    4.1717 C.ar    1  UNL1        0.0190
     21 N          60.1611   93.8184    0.2434 N.ar    1  UNL1       -0.2024
     22 N          60.2262   94.8906    1.0186 N.ar    1  UNL1       -0.1442
     23 C          60.1515   94.4470    2.2923 C.ar    1  UNL1        0.2073
     24 N          60.0436   93.1000    2.3459 N.ar    1  UNL1       -0.2398
     25 C          60.0461   92.7423    1.0465 C.ar    1  UNL1        0.3522
     26 O          59.9199   91.5581    0.6328 O.2     1  UNL1       -0.2444
     27 C          60.1892   93.8695   -1.2230 C.3     1  UNL1        0.1099
     28 C          61.5692   93.4420   -1.7411 C.3     1  UNL1        0.0265
     29 C          57.6643   93.5975   -1.5228 C.3     1  UNL1        0.0021
     30 C          59.0473   93.0118   -1.8075 C.3     1  UNL1        0.0245
     31 O          60.6061   84.6317   13.5777 O.3     1  UNL1       -0.4727
     32 C          59.8360   83.4530   13.8091 C.3     1  UNL1        0.2374
     33 C          59.1789   82.9782   12.5059 C.3     1  UNL1        0.1909
     34 C          58.7203   81.5427   12.5757 C.3     1  UNL1        0.1783
     35 O          59.6800   80.8169   11.8758 O.3     1  UNL1       -0.3271
     36 C          60.2200   81.7330   10.9441 C.3     1  UNL1        0.2232
     37 O          60.1017   83.0442   11.4585 O.3     1  UNL1       -0.3258
     38 C          59.4815   81.6269    9.6026 C.ar    1  UNL1        0.0404
     39 C          58.4355   80.6895    9.4534 C.ar    1  UNL1        0.0021
     40 C          57.7580   80.5557    8.2403 C.ar    1  UNL1        0.0113
     41 C          58.1215   81.3369    7.1445 C.ar    1  UNL1        0.0585
     42 CL         57.2695   81.1633    5.6209 Cl      1  UNL1       -0.0822
     43 C          59.1753   82.2445    7.2566 C.ar    1  UNL1        0.0226
     44 C          59.8656   82.3898    8.4665 C.ar    1  UNL1        0.0591
     45 CL         61.2243   83.5128    8.4826 Cl      1  UNL1       -0.0824
     46 C          61.7087   81.3839   10.7194 C.3     1  UNL1        0.1338
     47 N          62.5923   82.1892   11.5978 N.3     1  UNL1       -0.2659
     48 C          62.8416   81.4924   12.8808 C.3     1  UNL1        0.0898
     49 C          64.0226   82.1068   13.6614 C.3     1  UNL1        0.0897
     50 N          64.2893   83.4761   13.1917 N.3     1  UNL1       -0.2691
     51 C          65.3167   84.1180   14.0253 C.3     1  UNL1        0.0897
     52 C          64.7009   83.4807   11.7719 C.3     1  UNL1        0.0897
     53 C          63.8745   82.4910   10.9293 C.3     1  UNL1        0.0898
@<TRIPOS>BOND
     1    29    30    1
     2    30    27    1
     3    27    28    1
     4    27    21    1
     5    21    22   ar
     6    22    23   ar
     7    23    24   ar
     8    24    15    1
     9    15    16   ar
    10    16    17   ar
    11    17    18   ar
    12    18     7    1
    13     7     8    1
    14     8     9    1
    15     9    10    1
    16    10     1    1
    17     1     2   ar
    18     2     3   ar
    19     3     4   ar
    20     4    31    1
    21    31    32    1
    22    32    33    1
    23    33    34    1
    24    34    35    1
    25    35    36    1
    26    36    46    1
    27    46    47    1
    28    47    48    1
    29    48    49    1
    30    49    50    1
    31    50    51    1
    32    50    52    1
    33    52    53    1
    34    36    38    1
    35    38    39   ar
    36    39    40   ar
    37    40    41   ar
    38    41    42    1
    39    41    43   ar
    40    43    44   ar
    41    44    45    1
    42    36    37    1
    43     4     5   ar
    44     5     6   ar
    45    10    11    1
    46    11    12    1
    47    11    13    1
    48    18    19   ar
    49    19    20   ar
    50    24    25   ar
    51    25    26    2
    52    25    21   ar
    53    20    15   ar
    54    13     7    1
    55     6     1   ar
    56    37    33    1
    57    53    47    1
    58    44    38   ar
    59    12    14    1
@<TRIPOS>MOLECULE
*****
 53 59 0 0 0
SMALL
GASTEIGER

@<TRIPOS>ATOM
      1 C          60.6417   87.6563   10.8563 C.ar    1  UNL1        0.0497
      2 C          59.5500   87.3452   11.6791 C.ar    1  UNL1        0.0177
      3 C          59.7476   86.6801   12.8916 C.ar    1  UNL1        0.0382
      4 C          61.0354   86.3154   13.3002 C.ar    1  UNL1        0.1388
      5 C          62.1317   86.6182   12.4725 C.ar    1  UNL1        0.0382
      6 C          61.9348   87.2884   11.2619 C.ar    1  UNL1        0.0177
      7 N          59.8958   89.8219    7.3021 N.pl3   1  UNL1       -0.3021
      8 C          60.0075   90.5549    8.5663 C.3     1  UNL1        0.1124
      9 C          60.8686   89.7646    9.5505 C.3     1  UNL1        0.1143
     10 N          60.4301   88.3640    9.6198 N.pl3   1  UNL1       -0.2831
     11 C          60.2617   87.6264    8.3520 C.3     1  UNL1        0.2091
     12 O          59.6680   86.3692    8.5664 O.3     1  UNL1       -0.3658
     13 C          59.4128   88.4394    7.3631 C.3     1  UNL1        0.1419
     14 H          58.8099   86.5241    9.0418 H       1  UNL1        0.2123
     15 C          60.0539   91.8870    3.5769 C.ar    1  UNL1        0.0699
     16 C          61.2091   91.2988    4.1194 C.ar    1  UNL1        0.0190
     17 C          61.1548   90.6234    5.3417 C.ar    1  UNL1        0.0160
     18 C          59.9440   90.5171    6.0419 C.ar    1  UNL1        0.0481
     19 C          58.7867   91.0982    5.4992 C.ar    1  UNL1        0.0160
     20 C          58.8404   91.7743    4.2771 C.ar    1  UNL1        0.0190
     21 N          60.7848   93.3815    0.3502 N.ar    1  UNL1       -0.2024
     22 N          59.5497   93.8200    0.5426 N.ar    1  UNL1       -0.1442
     23 C          59.1497   93.3262    1.7347 C.ar    1  UNL1        0.2073
     24 N          60.1158   92.5780    2.3141 N.ar    1  UNL1       -0.2398
     25 C          61.1204   92.6297    1.4170 C.ar    1  UNL1        0.3522
     26 O          62.2187   92.0234    1.5409 O.2     1  UNL1       -0.2444
     27 C          61.5785   93.6798   -0.8478 C.3     1  UNL1        0.1099
     28 C          60.6646   94.1686   -1.9799 C.3     1  UNL1        0.0265
     29 C          63.9960   94.4065   -1.2557 C.3     1  UNL1        0.0021
     30 C          62.6927   94.6922   -0.5095 C.3     1  UNL1        0.0245
     31 O          61.1821   85.6683   14.5335 O.3     1  UNL1       -0.4727
     32 C          62.1605   84.6673   14.8103 C.3     1  UNL1        0.2374
     33 C          61.6823   83.2979   14.3084 C.3     1  UNL1        0.1909
     34 C          62.7815   82.5058   13.6450 C.3     1  UNL1        0.1783
     35 O          62.5494   82.6305   12.2782 O.3     1  UNL1       -0.3271
     36 C          61.1570   82.8483   12.1648 C.3     1  UNL1        0.2232
     37 O          60.6853   83.4682   13.3442 O.3     1  UNL1       -0.3258
     38 C          60.4255   81.5172   11.9429 C.ar    1  UNL1        0.0404
     39 C          59.2198   81.2594   12.6320 C.ar    1  UNL1        0.0021
     40 C          58.5415   80.0507   12.4662 C.ar    1  UNL1        0.0113
     41 C          59.0600   79.0652   11.6277 C.ar    1  UNL1        0.0585
     42 CL         58.2059   77.5465   11.4246 Cl      1  UNL1       -0.0822
     43 C          60.2679   79.2821   10.9638 C.ar    1  UNL1        0.0226
     44 C          60.9610   80.4890   11.1206 C.ar    1  UNL1        0.0591
     45 CL         62.5106   80.6349   10.2930 Cl      1  UNL1       -0.0824
     46 C          60.9014   83.7636   10.9460 C.3     1  UNL1        0.1338
     47 N          60.0976   83.0719    9.9085 N.3     1  UNL1       -0.2659
     48 C          58.6835   83.5100    9.9541 C.3     1  UNL1        0.0898
     49 C          57.9029   83.1029    8.6866 C.3     1  UNL1        0.0897
     50 N          58.5945   82.0061    7.9899 N.3     1  UNL1       -0.2691
     51 C          57.7857   81.5177    6.8630 C.3     1  UNL1        0.0897
     52 C          59.9294   82.4328    7.5194 C.3     1  UNL1        0.0897
     53 C          60.6555   83.3049    8.5606 C.3     1  UNL1        0.0898
@<TRIPOS>BOND
     1    29    30    1
     2    30    27    1
     3    27    28    1
     4    27    21    1
     5    21    22   ar
     6    22    23   ar
     7    23    24   ar
     8    24    15    1
     9    15    16   ar
    10    16    17   ar
    11    17    18   ar
    12    18     7    1
    13     7     8    1
    14     8     9    1
    15     9    10    1
    16    10     1    1
    17     1     2   ar
    18     2     3   ar
    19     3     4   ar
    20     4    31    1
    21    31    32    1
    22    32    33    1
    23    33    34    1
    24    34    35    1
    25    35    36    1
    26    36    46    1
    27    46    47    1
    28    47    48    1
    29    48    49    1
    30    49    50    1
    31    50    51    1
    32    50    52    1
    33    52    53    1
    34    36    38    1
    35    38    39   ar
    36    39    40   ar
    37    40    41   ar
    38    41    42    1
    39    41    43   ar
    40    43    44   ar
    41    44    45    1
    42    36    37    1
    43     4     5   ar
    44     5     6   ar
    45    10    11    1
    46    11    12    1
    47    11    13    1
    48    18    19   ar
    49    19    20   ar
    50    24    25   ar
    51    25    26    2
    52    25    21   ar
    53    20    15   ar
    54    13     7    1
    55     6     1   ar
    56    37    33    1
    57    53    47    1
    58    44    38   ar
    59    12    14    1
@<TRIPOS>MOLECULE
*****
 53 59 0 0 0
SMALL
GASTEIGER

@<TRIPOS>ATOM
      1 C          60.1075   87.6246   10.5467 C.ar    1  UNL1        0.0497
      2 C          59.0059   86.9109   11.0392 C.ar    1  UNL1        0.0177
      3 C          59.1094   86.1867   12.2294 C.ar    1  UNL1        0.0382
      4 C          60.3121   86.1634   12.9444 C.ar    1  UNL1        0.1388
      5 C          61.4218   86.8712   12.4481 C.ar    1  UNL1        0.0382
      6 C          61.3169   87.6001   11.2601 C.ar    1  UNL1        0.0177
      7 N          59.6170   89.9542    7.0524 N.pl3   1  UNL1       -0.3021
      8 C          59.6778   90.6314    8.3507 C.3     1  UNL1        0.1124
      9 C          60.4620   89.7771    9.3457 C.3     1  UNL1        0.1143
     10 N          59.9834   88.3880    9.3317 N.pl3   1  UNL1       -0.2831
     11 C          59.8660   87.7081    8.0266 C.3     1  UNL1        0.2091
     12 O          59.2284   86.4607    8.1550 O.3     1  UNL1       -0.3658
     13 C          59.0949   88.5849    7.0284 C.3     1  UNL1        0.1419
     14 H          58.3496   86.6206    8.5893 H       1  UNL1        0.2123
     15 C          60.0357   92.1641    3.4319 C.ar    1  UNL1        0.0699
     16 C          61.1338   91.4866    3.9886 C.ar    1  UNL1        0.0190
     17 C          60.9941   90.7639    5.1766 C.ar    1  UNL1        0.0160
     18 C          59.7531   90.6987    5.8273 C.ar    1  UNL1        0.0481
     19 C          58.6526   91.3693    5.2700 C.ar    1  UNL1        0.0160
     20 C          58.7916   92.0928    4.0822 C.ar    1  UNL1        0.0190
     21 N          60.3988   93.4652    0.0622 N.ar    1  UNL1       -0.2024
     22 N          60.3867   94.5945    0.7547 N.ar    1  UNL1       -0.1442
     23 C          60.2543   94.2458    2.0530 C.ar    1  UNL1        0.2073
     24 N          60.1855   92.9037    2.2045 N.ar    1  UNL1       -0.2398
     25 C          60.2723   92.4494    0.9386 C.ar    1  UNL1        0.3522
     26 O          60.2065   91.2337    0.6114 O.2     1  UNL1       -0.2444
     27 C          60.5078   93.4067   -1.4002 C.3     1  UNL1        0.1099
     28 C          59.1516   93.7240   -2.0450 C.3     1  UNL1        0.0265
     29 C          63.0253   93.7689   -1.6643 C.3     1  UNL1        0.0021
     30 C          61.6285   94.3482   -1.8885 C.3     1  UNL1        0.0245
     31 O          60.3584   85.4390   14.1421 O.3     1  UNL1       -0.4727
     32 C          61.5539   84.9391   14.7393 C.3     1  UNL1        0.2374
     33 C          61.9860   83.6324   14.0599 C.3     1  UNL1        0.1909
     34 C          63.4053   83.6836   13.5512 C.3     1  UNL1        0.1783
     35 O          63.2954   83.8820   12.1779 O.3     1  UNL1       -0.3271
     36 C          62.0437   83.3245   11.8294 C.3     1  UNL1        0.2232
     37 O          61.1789   83.3882   12.9456 O.3     1  UNL1       -0.3258
     38 C          62.2157   81.8664   11.3813 C.ar    1  UNL1        0.0404
     39 C          61.3774   80.8662   11.9214 C.ar    1  UNL1        0.0021
     40 C          61.5219   79.5288   11.5485 C.ar    1  UNL1        0.0113
     41 C          62.5175   79.1563   10.6467 C.ar    1  UNL1        0.0585
     42 CL         62.6977   77.4740   10.1832 Cl      1  UNL1       -0.0822
     43 C          63.3812   80.1209   10.1269 C.ar    1  UNL1        0.0226
     44 C          63.2498   81.4667   10.4919 C.ar    1  UNL1        0.0591
     45 CL         64.4341   82.5937    9.8327 Cl      1  UNL1       -0.0824
     46 C          61.4543   84.1378   10.6548 C.3     1  UNL1        0.1338
     47 N          60.5918   83.2946    9.7913 N.3     1  UNL1       -0.2659
     48 C          59.1734   83.3864   10.2077 C.3     1  UNL1        0.0898
     49 C          58.2113   82.8292    9.1375 C.3     1  UNL1        0.0897
     50 N          58.9332   81.9385    8.2144 N.3     1  UNL1       -0.2691
     51 C          57.9980   81.2932    7.2809 C.3     1  UNL1        0.0897
     52 C          59.9768   82.6757    7.4710 C.3     1  UNL1        0.0897
     53 C          60.7269   83.6760    8.3705 C.3     1  UNL1        0.0898
@<TRIPOS>BOND
     1    29    30    1
     2    30    27    1
     3    27    28    1
     4    27    21    1
     5    21    22   ar
     6    22    23   ar
     7    23    24   ar
     8    24    15    1
     9    15    16   ar
    10    16    17   ar
    11    17    18   ar
    12    18     7    1
    13     7     8    1
    14     8     9    1
    15     9    10    1
    16    10     1    1
    17     1     2   ar
    18     2     3   ar
    19     3     4   ar
    20     4    31    1
    21    31    32    1
    22    32    33    1
    23    33    34    1
    24    34    35    1
    25    35    36    1
    26    36    46    1
    27    46    47    1
    28    47    48    1
    29    48    49    1
    30    49    50    1
    31    50    51    1
    32    50    52    1
    33    52    53    1
    34    36    38    1
    35    38    39   ar
    36    39    40   ar
    37    40    41   ar
    38    41    42    1
    39    41    43   ar
    40    43    44   ar
    41    44    45    1
    42    36    37    1
    43     4     5   ar
    44     5     6   ar
    45    10    11    1
    46    11    12    1
    47    11    13    1
    48    18    19   ar
    49    19    20   ar
    50    24    25   ar
    51    25    26    2
    52    25    21   ar
    53    20    15   ar
    54    13     7    1
    55     6     1   ar
    56    37    33    1
    57    53    47    1
    58    44    38   ar
    59    12    14    1
@<TRIPOS>MOLECULE
*****
 53 59 0 0 0
SMALL
GASTEIGER

@<TRIPOS>ATOM
      1 C          60.7825   87.6522   10.7132 C.ar    1  UNL1        0.0497
      2 C          59.7225   87.2305   11.5281 C.ar    1  UNL1        0.0177
      3 C          59.9771   86.5379   12.7144 C.ar    1  UNL1        0.0382
      4 C          61.2911   86.2555   13.1041 C.ar    1  UNL1        0.1388
      5 C          62.3564   86.6695   12.2840 C.ar    1  UNL1        0.0382
      6 C          62.1021   87.3671   11.0998 C.ar    1  UNL1        0.0177
      7 N          59.8395   89.8651    7.2359 N.pl3   1  UNL1       -0.3021
      8 C          59.7157   90.5159    8.5431 C.3     1  UNL1        0.1124
      9 C          60.6553   89.8485    9.5465 C.3     1  UNL1        0.1143
     10 N          60.5106   88.3869    9.5047 N.pl3   1  UNL1       -0.2831
     11 C          60.5801   87.7206    8.1891 C.3     1  UNL1        0.2091
     12 O          60.2451   86.3578    8.2875 O.3     1  UNL1       -0.3658
     13 C          59.6482   88.4128    7.1833 C.3     1  UNL1        0.1419
     14 H          59.3445   86.3034    8.7025 H       1  UNL1        0.2123
     15 C          59.8128   92.1715    3.6517 C.ar    1  UNL1        0.0699
     16 C          61.0090   91.6166    4.1374 C.ar    1  UNL1        0.0190
     17 C          61.0152   90.8619    5.3137 C.ar    1  UNL1        0.0160
     18 C          59.8253   90.6416    6.0232 C.ar    1  UNL1        0.0481
     19 C          58.6275   91.1893    5.5368 C.ar    1  UNL1        0.0160
     20 C          58.6206   91.9447    4.3608 C.ar    1  UNL1        0.0190
     21 N          59.8066   93.5638    0.2989 N.ar    1  UNL1       -0.2024
     22 N          59.7893   94.6752    1.0195 N.ar    1  UNL1       -0.1442
     23 C          59.7903   94.2915    2.3147 C.ar    1  UNL1        0.2073
     24 N          59.8126   92.9448    2.4359 N.ar    1  UNL1       -0.2398
     25 C          59.8155   92.5237    1.1557 C.ar    1  UNL1        0.3522
     26 O          59.7921   91.3135    0.8032 O.2     1  UNL1       -0.2444
     27 C          59.7916   93.5431   -1.1685 C.3     1  UNL1        0.1099
     28 C          61.1666   93.1233   -1.7059 C.3     1  UNL1        0.0265
     29 C          57.2766   93.0819   -1.1946 C.3     1  UNL1        0.0021
     30 C          58.6555   92.6308   -1.6764 C.3     1  UNL1        0.0245
     31 O          61.4938   85.5764   14.3120 O.3     1  UNL1       -0.4727
     32 C          62.4579   84.5427   14.5068 C.3     1  UNL1        0.2374
     33 C          61.8944   83.1912   14.0467 C.3     1  UNL1        0.1909
     34 C          62.9008   82.3744   13.2748 C.3     1  UNL1        0.1783
     35 O          62.5399   82.5165   11.9379 O.3     1  UNL1       -0.3271
     36 C          61.1499   82.7737   11.9624 C.3     1  UNL1        0.2232
     37 O          60.8133   83.3969   13.1855 O.3     1  UNL1       -0.3258
     38 C          60.3627   81.4652   11.8059 C.ar    1  UNL1        0.0404
     39 C          60.9473   80.3758   11.1231 C.ar    1  UNL1        0.0021
     40 C          60.2496   79.1795   10.9477 C.ar    1  UNL1        0.0113
     41 C          58.9479   79.0502   11.4294 C.ar    1  UNL1        0.0585
     42 CL         58.0736   77.5462   11.2039 Cl      1  UNL1       -0.0822
     43 C          58.3357   80.1245   12.0756 C.ar    1  UNL1        0.0226
     44 C          59.0220   81.3316   12.2586 C.ar    1  UNL1        0.0591
     45 CL         58.1349   82.6481   13.0251 Cl      1  UNL1       -0.0824
     46 C          60.8026   83.7056   10.7793 C.3     1  UNL1        0.1338
     47 N          59.9936   83.0011    9.7546 N.3     1  UNL1       -0.2659
     48 C          58.6270   83.5669    9.6772 C.3     1  UNL1        0.0898
     49 C          57.8803   83.1227    8.4018 C.3     1  UNL1        0.0897
     50 N          58.5011   81.9116    7.8409 N.3     1  UNL1       -0.2691
     51 C          57.7111   81.4015    6.7103 C.3     1  UNL1        0.0897
     52 C          59.8937   82.1739    7.4200 C.3     1  UNL1        0.0897
     53 C          60.6424   83.0647    8.4289 C.3     1  UNL1        0.0898
@<TRIPOS>BOND
     1    29    30    1
     2    30    27    1
     3    27    28    1
     4    27    21    1
     5    21    22   ar
     6    22    23   ar
     7    23    24   ar
     8    24    15    1
     9    15    16   ar
    10    16    17   ar
    11    17    18   ar
    12    18     7    1
    13     7     8    1
    14     8     9    1
    15     9    10    1
    16    10     1    1
    17     1     2   ar
    18     2     3   ar
    19     3     4   ar
    20     4    31    1
    21    31    32    1
    22    32    33    1
    23    33    34    1
    24    34    35    1
    25    35    36    1
    26    36    46    1
    27    46    47    1
    28    47    48    1
    29    48    49    1
    30    49    50    1
    31    50    51    1
    32    50    52    1
    33    52    53    1
    34    36    38    1
    35    38    39   ar
    36    39    40   ar
    37    40    41   ar
    38    41    42    1
    39    41    43   ar
    40    43    44   ar
    41    44    45    1
    42    36    37    1
    43     4     5   ar
    44     5     6   ar
    45    10    11    1
    46    11    12    1
    47    11    13    1
    48    18    19   ar
    49    19    20   ar
    50    24    25   ar
    51    25    26    2
    52    25    21   ar
    53    20    15   ar
    54    13     7    1
    55     6     1   ar
    56    37    33    1
    57    53    47    1
    58    44    38   ar
    59    12    14    1
@<TRIPOS>MOLECULE
*****
 53 59 0 0 0
SMALL
GASTEIGER

@<TRIPOS>ATOM
      1 C          61.0909   86.6354    9.9506 C.ar    1  UNL1        0.0497
      2 C          60.1120   86.2433   10.8745 C.ar    1  UNL1        0.0177
      3 C          60.4303   85.3561   11.9057 C.ar    1  UNL1        0.0382
      4 C          61.7279   84.8471   12.0296 C.ar    1  UNL1        0.1388
      5 C          62.7099   85.2317   11.0989 C.ar    1  UNL1        0.0382
      6 C          62.3931   86.1235   10.0703 C.ar    1  UNL1        0.0177
      7 N          60.0210   89.4638    6.9955 N.pl3   1  UNL1       -0.3021
      8 C          60.4599   89.9449    8.3083 C.3     1  UNL1        0.1124
      9 C          61.3672   88.9057    8.9654 C.3     1  UNL1        0.1143
     10 N          60.7590   87.5696    8.9059 N.pl3   1  UNL1       -0.2831
     11 C          60.2634   87.0907    7.6002 C.3     1  UNL1        0.2091
     12 O          59.5502   85.8856    7.7343 O.3     1  UNL1       -0.3658
     13 C          59.3703   88.1516    6.9396 C.3     1  UNL1        0.1419
     14 H          58.8222   86.0438    8.3910 H       1  UNL1        0.2123
     15 C          59.7844   92.1315    3.6796 C.ar    1  UNL1        0.0699
     16 C          61.0131   91.5619    4.0544 C.ar    1  UNL1        0.0190
     17 C          61.0882   90.6885    5.1429 C.ar    1  UNL1        0.0160
     18 C          59.9359   90.3624    5.8734 C.ar    1  UNL1        0.0481
     19 C          58.7056   90.9250    5.4973 C.ar    1  UNL1        0.0160
     20 C          58.6299   91.7990    4.4092 C.ar    1  UNL1        0.0190
     21 N          59.6517   93.8695    0.4951 N.ar    1  UNL1       -0.2024
     22 N          59.5297   94.8905    1.3301 N.ar    1  UNL1       -0.1442
     23 C          59.5651   94.3716    2.5768 C.ar    1  UNL1        0.2073
     24 N          59.7132   93.0276    2.5536 N.ar    1  UNL1       -0.2398
     25 C          59.7569   92.7486    1.2358 C.ar    1  UNL1        0.3522
     26 O          59.8472   91.5864    0.7558 O.2     1  UNL1       -0.2444
     27 C          59.6404   94.0054   -0.9662 C.3     1  UNL1        0.1099
     28 C          60.9930   93.5728   -1.5484 C.3     1  UNL1        0.0265
     29 C          57.1003   93.7899   -1.1677 C.3     1  UNL1        0.0021
     30 C          58.4593   93.2135   -1.5652 C.3     1  UNL1        0.0245
     31 O          62.0008   83.9768   13.0924 O.3     1  UNL1       -0.4727
     32 C          62.1363   84.3808   14.4542 C.3     1  UNL1        0.2374
     33 C          62.9707   85.6652   14.5512 C.3     1  UNL1        0.1909
     34 C          63.4330   85.9531   15.9582 C.3     1  UNL1        0.1783
     35 O          62.5867   86.9552   16.4241 O.3     1  UNL1       -0.3271
     36 C          62.1678   87.6455   15.2635 C.3     1  UNL1        0.2232
     37 O          62.1989   86.7626   14.1602 O.3     1  UNL1       -0.3258
     38 C          63.0837   88.8486   14.9989 C.ar    1  UNL1        0.0404
     39 C          63.5166   89.6479   16.0799 C.ar    1  UNL1        0.0021
     40 C          64.3340   90.7597   15.8696 C.ar    1  UNL1        0.0113
     41 C          64.7199   91.1114   14.5771 C.ar    1  UNL1        0.0585
     42 CL         65.7446   92.5113   14.3169 Cl      1  UNL1       -0.0822
     43 C          64.2758   90.3585   13.4897 C.ar    1  UNL1        0.0226
     44 C          63.4545   89.2408   13.6841 C.ar    1  UNL1        0.0591
     45 CL         62.8928   88.3999   12.2402 Cl      1  UNL1       -0.0824
     46 C          60.7280   88.1592   15.4911 C.3     1  UNL1        0.1338
     47 N          59.7755   87.5421   14.5357 N.3     1  UNL1       -0.2659
     48 C          59.2619   86.2543   15.0567 C.3     1  UNL1        0.0898
     49 C          58.0186   85.7642   14.2849 C.3     1  UNL1        0.0897
     50 N          57.9415   86.4199   12.9693 N.3     1  UNL1       -0.2691
     51 C          56.8425   85.8539   12.1729 C.3     1  UNL1        0.0897
     52 C          57.7746   87.8817   13.1126 C.3     1  UNL1        0.0897
     53 C          58.6504   88.4535   14.2430 C.3     1  UNL1        0.0898
@<TRIPOS>BOND
     1    29    30    1
     2    30    27    1
     3    27    28    1
     4    27    21    1
     5    21    22   ar
     6    22    23   ar
     7    23    24   ar
     8    24    15    1
     9    15    16   ar
    10    16    17   ar
    11    17    18   ar
    12    18     7    1
    13     7     8    1
    14     8     9    1
    15     9    10    1
    16    10     1    1
    17     1     2   ar
    18     2     3   ar
    19     3     4   ar
    20     4    31    1
    21    31    32    1
    22    32    33    1
    23    33    34    1
    24    34    35    1
    25    35    36    1
    26    36    46    1
    27    46    47    1
    28    47    48    1
    29    48    49    1
    30    49    50    1
    31    50    51    1
    32    50    52    1
    33    52    53    1
    34    36    38    1
    35    38    39   ar
    36    39    40   ar
    37    40    41   ar
    38    41    42    1
    39    41    43   ar
    40    43    44   ar
    41    44    45    1
    42    36    37    1
    43     4     5   ar
    44     5     6   ar
    45    10    11    1
    46    11    12    1
    47    11    13    1
    48    18    19   ar
    49    19    20   ar
    50    24    25   ar
    51    25    26    2
    52    25    21   ar
    53    20    15   ar
    54    13     7    1
    55     6     1   ar
    56    37    33    1
    57    53    47    1
    58    44    38   ar
    59    12    14    1
@<TRIPOS>MOLECULE
*****
 53 59 0 0 0
SMALL
GASTEIGER

@<TRIPOS>ATOM
      1 C          59.5019   85.6466    9.5919 C.ar    1  UNL1        0.0497
      2 C          58.6405   85.6470   10.6980 C.ar    1  UNL1        0.0177
      3 C          58.6358   84.5708   11.5888 C.ar    1  UNL1        0.0382
      4 C          59.4887   83.4795   11.3889 C.ar    1  UNL1        0.1388
      5 C          60.3476   83.4721   10.2750 C.ar    1  UNL1        0.0382
      6 C          60.3563   84.5511    9.3866 C.ar    1  UNL1        0.0177
      7 N          59.4994   89.0501    7.0832 N.pl3   1  UNL1       -0.3021
      8 C          60.1702   89.1310    8.3837 C.3     1  UNL1        0.1124
      9 C          60.6157   87.7378    8.8257 C.3     1  UNL1        0.1143
     10 N          59.5166   86.7718    8.6930 N.pl3   1  UNL1       -0.2831
     11 C          58.7955   86.7142    7.4061 C.3     1  UNL1        0.2091
     12 O          57.6648   85.8815    7.4900 O.3     1  UNL1       -0.3658
     13 C          58.3715   88.1220    6.9613 C.3     1  UNL1        0.1419
     14 H          57.1020   86.2203    8.2349 H       1  UNL1        0.2123
     15 C          60.1691   92.0348    4.1150 C.ar    1  UNL1        0.0699
     16 C          61.2390   91.2819    4.6278 C.ar    1  UNL1        0.0190
     17 C          61.0169   90.3048    5.6020 C.ar    1  UNL1        0.0160
     18 C          59.7206   90.0567    6.0774 C.ar    1  UNL1        0.0481
     19 C          58.6487   90.8029    5.5621 C.ar    1  UNL1        0.0160
     20 C          58.8702   91.7807    4.5882 C.ar    1  UNL1        0.0190
     21 N          61.2133   94.1754    1.3751 N.ar    1  UNL1       -0.2024
     22 N          60.2167   94.8924    1.8723 N.ar    1  UNL1       -0.1442
     23 C          59.7293   94.1944    2.9212 C.ar    1  UNL1        0.2073
     24 N          60.4044   93.0376    3.1074 N.ar    1  UNL1       -0.2398
     25 C          61.3200   93.0566    2.1187 C.ar    1  UNL1        0.3522
     26 O          62.1459   92.1310    1.8940 O.2     1  UNL1       -0.2444
     27 C          62.0019   94.5771    0.2043 C.3     1  UNL1        0.1099
     28 C          63.4925   94.6364    0.5654 C.3     1  UNL1        0.0265
     29 C          60.2821   93.7374   -1.4916 C.3     1  UNL1        0.0021
     30 C          61.7184   93.6287   -0.9793 C.3     1  UNL1        0.0245
     31 O          59.4601   82.4351   12.3216 O.3     1  UNL1       -0.4727
     32 C          60.4562   81.4193   12.4291 C.3     1  UNL1        0.2374
     33 C          61.7201   81.9772   13.0976 C.3     1  UNL1        0.1909
     34 C          61.6707   81.8849   14.6026 C.3     1  UNL1        0.1783
     35 O          61.3674   83.1715   15.0388 O.3     1  UNL1       -0.3271
     36 C          61.8625   84.0246   14.0258 C.3     1  UNL1        0.2232
     37 O          61.8581   83.3340   12.7926 O.3     1  UNL1       -0.3258
     38 C          63.2873   84.4841   14.3650 C.ar    1  UNL1        0.0404
     39 C          64.3495   84.1708   13.4884 C.ar    1  UNL1        0.0021
     40 C          65.6589   84.5579   13.7787 C.ar    1  UNL1        0.0113
     41 C          65.9413   85.2460   14.9576 C.ar    1  UNL1        0.0585
     42 CL         67.5887   85.7278   15.3200 Cl      1  UNL1       -0.0822
     43 C          64.9145   85.5357   15.8567 C.ar    1  UNL1        0.0226
     44 C          63.5958   85.1533   15.5804 C.ar    1  UNL1        0.0591
     45 CL         62.3856   85.5058   16.8128 Cl      1  UNL1       -0.0824
     46 C          60.9477   85.2674   13.9408 C.3     1  UNL1        0.1338
     47 N          61.7375   86.5092   13.7535 N.3     1  UNL1       -0.2659
     48 C          61.9598   86.7841   12.3152 C.3     1  UNL1        0.0898
     49 C          62.4491   88.2258   12.0631 C.3     1  UNL1        0.0897
     50 N          63.0155   88.7970   13.2959 N.3     1  UNL1       -0.2691
     51 C          63.6121   90.1143   13.0292 C.3     1  UNL1        0.0897
     52 C          61.9889   88.9009   14.3545 C.3     1  UNL1        0.0897
     53 C          61.0724   87.6636   14.3917 C.3     1  UNL1        0.0898
@<TRIPOS>BOND
     1    29    30    1
     2    30    27    1
     3    27    28    1
     4    27    21    1
     5    21    22   ar
     6    22    23   ar
     7    23    24   ar
     8    24    15    1
     9    15    16   ar
    10    16    17   ar
    11    17    18   ar
    12    18     7    1
    13     7     8    1
    14     8     9    1
    15     9    10    1
    16    10     1    1
    17     1     2   ar
    18     2     3   ar
    19     3     4   ar
    20     4    31    1
    21    31    32    1
    22    32    33    1
    23    33    34    1
    24    34    35    1
    25    35    36    1
    26    36    46    1
    27    46    47    1
    28    47    48    1
    29    48    49    1
    30    49    50    1
    31    50    51    1
    32    50    52    1
    33    52    53    1
    34    36    38    1
    35    38    39   ar
    36    39    40   ar
    37    40    41   ar
    38    41    42    1
    39    41    43   ar
    40    43    44   ar
    41    44    45    1
    42    36    37    1
    43     4     5   ar
    44     5     6   ar
    45    10    11    1
    46    11    12    1
    47    11    13    1
    48    18    19   ar
    49    19    20   ar
    50    24    25   ar
    51    25    26    2
    52    25    21   ar
    53    20    15   ar
    54    13     7    1
    55     6     1   ar
    56    37    33    1
    57    53    47    1
    58    44    38   ar
    59    12    14    1
@<TRIPOS>MOLECULE
*****
 53 59 0 0 0
SMALL
GASTEIGER

@<TRIPOS>ATOM
      1 C          59.4949   86.5962    9.9192 C.ar    1  UNL1        0.0497
      2 C          60.4280   85.5501    9.9432 C.ar    1  UNL1        0.0177
      3 C          60.3587   84.5655   10.9319 C.ar    1  UNL1        0.0382
      4 C          59.3592   84.6105   11.9103 C.ar    1  UNL1        0.1388
      5 C          58.4270   85.6638   11.8941 C.ar    1  UNL1        0.0382
      6 C          58.4930   86.6460   10.9019 C.ar    1  UNL1        0.0177
      7 N          59.6159   89.6334    6.9800 N.pl3   1  UNL1       -0.3021
      8 C          60.0906   89.9391    8.3324 C.3     1  UNL1        0.1124
      9 C          60.5622   88.6582    9.0192 C.3     1  UNL1        0.1143
     10 N          59.5600   87.5927    8.8813 N.pl3   1  UNL1       -0.2831
     11 C          59.0321   87.3074    7.5324 C.3     1  UNL1        0.2091
     12 O          57.9593   86.3989    7.5844 O.3     1  UNL1       -0.3658
     13 C          58.5812   88.6042    6.8437 C.3     1  UNL1        0.1419
     14 H          57.2762   86.7819    8.1951 H       1  UNL1        0.2123
     15 C          60.4964   92.2508    3.7334 C.ar    1  UNL1        0.0699
     16 C          61.4828   91.3937    4.2502 C.ar    1  UNL1        0.0190
     17 C          61.1918   90.5374    5.3157 C.ar    1  UNL1        0.0160
     18 C          59.9080   90.5164    5.8806 C.ar    1  UNL1        0.0481
     19 C          58.9186   91.3670    5.3621 C.ar    1  UNL1        0.0160
     20 C          59.2090   92.2241    4.2969 C.ar    1  UNL1        0.0190
     21 N          61.8447   94.2233    1.0001 N.ar    1  UNL1       -0.2024
     22 N          60.5836   94.6286    0.9882 N.ar    1  UNL1       -0.1442
     23 C          59.9567   93.9577    1.9790 C.ar    1  UNL1        0.2073
     24 N          60.8018   93.1280    2.6318 N.ar    1  UNL1       -0.2398
     25 C          61.9709   93.3158    1.9882 C.ar    1  UNL1        0.3522
     26 O          63.0369   92.6961    2.2510 O.2     1  UNL1       -0.2444
     27 C          62.8636   94.7014    0.0582 C.3     1  UNL1        0.1099
     28 C          64.1625   93.9027    0.2335 C.3     1  UNL1        0.0265
     29 C          61.7644   93.2653   -1.7497 C.3     1  UNL1        0.0021
     30 C          62.3236   94.6408   -1.3860 C.3     1  UNL1        0.0245
     31 O          59.3207   83.5887   12.8673 O.3     1  UNL1       -0.4727
     32 C          58.5271   82.4080   12.7583 C.3     1  UNL1        0.2374
     33 C          59.3009   81.3093   12.0167 C.3     1  UNL1        0.1909
     34 C          59.2090   79.9692   12.7035 C.3     1  UNL1        0.1783
     35 O          60.4250   79.8109   13.3622 O.3     1  UNL1       -0.3271
     36 C          61.3463   80.5788   12.6134 C.3     1  UNL1        0.2232
     37 O          60.6593   81.6342   11.9717 O.3     1  UNL1       -0.3258
     38 C          62.0496   79.6993   11.5702 C.ar    1  UNL1        0.0404
     39 C          62.2833   78.3348   11.8503 C.ar    1  UNL1        0.0021
     40 C          62.9376   77.5140   10.9301 C.ar    1  UNL1        0.0113
     41 C          63.3917   78.0392    9.7214 C.ar    1  UNL1        0.0585
     42 CL         64.2164   77.0049    8.5692 Cl      1  UNL1       -0.0822
     43 C          63.2047   79.3923    9.4371 C.ar    1  UNL1        0.0226
     44 C          62.5510   80.2291   10.3504 C.ar    1  UNL1        0.0591
     45 CL         62.4275   81.9355    9.9255 Cl      1  UNL1       -0.0824
     46 C          62.4096   81.1483   13.5796 C.3     1  UNL1        0.1338
     47 N          62.4051   82.6318   13.5763 N.3     1  UNL1       -0.2659
     48 C          62.1757   83.1642   14.9392 C.3     1  UNL1        0.0898
     49 C          62.5199   84.6647   15.0477 C.3     1  UNL1        0.0897
     50 N          62.5281   85.2856   13.7131 N.3     1  UNL1       -0.2691
     51 C          62.7139   86.7404   13.8207 C.3     1  UNL1        0.0897
     52 C          63.5783   84.6937   12.8575 C.3     1  UNL1        0.0897
     53 C          63.6699   83.1662   13.0314 C.3     1  UNL1        0.0898
@<TRIPOS>BOND
     1    29    30    1
     2    30    27    1
     3    27    28    1
     4    27    21    1
     5    21    22   ar
     6    22    23   ar
     7    23    24   ar
     8    24    15    1
     9    15    16   ar
    10    16    17   ar
    11    17    18   ar
    12    18     7    1
    13     7     8    1
    14     8     9    1
    15     9    10    1
    16    10     1    1
    17     1     2   ar
    18     2     3   ar
    19     3     4   ar
    20     4    31    1
    21    31    32    1
    22    32    33    1
    23    33    34    1
    24    34    35    1
    25    35    36    1
    26    36    46    1
    27    46    47    1
    28    47    48    1
    29    48    49    1
    30    49    50    1
    31    50    51    1
    32    50    52    1
    33    52    53    1
    34    36    38    1
    35    38    39   ar
    36    39    40   ar
    37    40    41   ar
    38    41    42    1
    39    41    43   ar
    40    43    44   ar
    41    44    45    1
    42    36    37    1
    43     4     5   ar
    44     5     6   ar
    45    10    11    1
    46    11    12    1
    47    11    13    1
    48    18    19   ar
    49    19    20   ar
    50    24    25   ar
    51    25    26    2
    52    25    21   ar
    53    20    15   ar
    54    13     7    1
    55     6     1   ar
    56    37    33    1
    57    53    47    1
    58    44    38   ar
    59    12    14    1
@<TRIPOS>MOLECULE
*****
 53 59 0 0 0
SMALL
GASTEIGER

@<TRIPOS>ATOM
      1 C          59.9039   85.8035    9.0905 C.ar    1  UNL1        0.0497
      2 C          60.5647   84.8391    8.3167 C.ar    1  UNL1        0.0177
      3 C          59.8396   83.8336    7.6725 C.ar    1  UNL1        0.0382
      4 C          58.4465   83.7751    7.7914 C.ar    1  UNL1        0.1388
      5 C          57.7816   84.7360    8.5744 C.ar    1  UNL1        0.0382
      6 C          58.5063   85.7452    9.2147 C.ar    1  UNL1        0.0177
      7 N          62.0003   88.8815   11.0926 N.pl3   1  UNL1       -0.3021
      8 C          61.5209   87.7334   11.8670 C.3     1  UNL1        0.1124
      9 C          61.3909   86.5119   10.9581 C.3     1  UNL1        0.1143
     10 N          60.6580   86.8504    9.7305 N.pl3   1  UNL1       -0.2831
     11 C          61.0951   88.0355    8.9663 C.3     1  UNL1        0.2091
     12 O          60.1943   88.3359    7.9284 O.3     1  UNL1       -0.3658
     13 C          61.2430   89.2513    9.8934 C.3     1  UNL1        0.1419
     14 H          59.2968   88.4484    8.3385 H       1  UNL1        0.2123
     15 C          64.8420   91.5851   12.7607 C.ar    1  UNL1        0.0699
     16 C          64.3530   90.5047   13.5146 C.ar    1  UNL1        0.0190
     17 C          63.4202   89.6205   12.9657 C.ar    1  UNL1        0.0160
     18 C          62.9634   89.7950   11.6509 C.ar    1  UNL1        0.0481
     19 C          63.4551   90.8698   10.8931 C.ar    1  UNL1        0.0160
     20 C          64.3875   91.7549   11.4415 C.ar    1  UNL1        0.0190
     21 N          67.4168   93.3879   14.5773 N.ar    1  UNL1       -0.2024
     22 N          67.0482   94.3129   13.7037 N.ar    1  UNL1       -0.1442
     23 C          66.0733   93.7601   12.9495 C.ar    1  UNL1        0.2073
     24 N          65.8069   92.4904   13.3311 N.ar    1  UNL1       -0.2398
     25 C          66.6703   92.2899   14.3464 C.ar    1  UNL1        0.3522
     26 O          66.7912   91.2041   14.9756 O.2     1  UNL1       -0.2444
     27 C          68.4753   93.5841   15.5748 C.3     1  UNL1        0.1099
     28 C          68.1202   92.8492   16.8747 C.3     1  UNL1        0.0265
     29 C          69.6981   92.1082   13.8821 C.3     1  UNL1        0.0021
     30 C          69.8371   93.1420   14.9997 C.3     1  UNL1        0.0245
     31 O          57.7642   82.7596    7.1097 O.3     1  UNL1       -0.4727
     32 C          57.9629   81.3637    7.3287 C.3     1  UNL1        0.2374
     33 C          57.8588   81.0362    8.8246 C.3     1  UNL1        0.1909
     34 C          57.9509   82.2641    9.6962 C.3     1  UNL1        0.1783
     35 O          59.2471   82.2569   10.2035 O.3     1  UNL1       -0.3271
     36 C          59.6249   80.8945   10.2152 C.3     1  UNL1        0.2232
     37 O          58.9178   80.2067    9.2030 O.3     1  UNL1       -0.3258
     38 C          59.3227   80.2692   11.5842 C.ar    1  UNL1        0.0404
     39 C          58.9394   78.9121   11.6628 C.ar    1  UNL1        0.0021
     40 C          58.6393   78.3200   12.8908 C.ar    1  UNL1        0.0113
     41 C          58.6938   79.0718   14.0634 C.ar    1  UNL1        0.0585
     42 CL         58.3128   78.3246   15.6041 Cl      1  UNL1       -0.0822
     43 C          59.0349   80.4236   14.0074 C.ar    1  UNL1        0.0226
     44 C          59.3378   81.0325   12.7830 C.ar    1  UNL1        0.0591
     45 CL         59.6885   82.7598   12.8137 Cl      1  UNL1       -0.0824
     46 C          61.1456   80.8050    9.9542 C.3     1  UNL1        0.1338
     47 N          61.9063   81.6796   10.8801 N.3     1  UNL1       -0.2659
     48 C          62.6487   80.8760   11.8785 C.3     1  UNL1        0.0898
     49 C          63.7212   81.7043   12.6169 C.3     1  UNL1        0.0897
     50 N          63.4279   83.1420   12.4995 N.3     1  UNL1       -0.2691
     51 C          64.3624   83.9290   13.3180 C.3     1  UNL1        0.0897
     52 C          63.4812   83.5823   11.0893 C.3     1  UNL1        0.0897
     53 C          62.8396   82.5533   10.1399 C.3     1  UNL1        0.0898
@<TRIPOS>BOND
     1    29    30    1
     2    30    27    1
     3    27    28    1
     4    27    21    1
     5    21    22   ar
     6    22    23   ar
     7    23    24   ar
     8    24    15    1
     9    15    16   ar
    10    16    17   ar
    11    17    18   ar
    12    18     7    1
    13     7     8    1
    14     8     9    1
    15     9    10    1
    16    10     1    1
    17     1     2   ar
    18     2     3   ar
    19     3     4   ar
    20     4    31    1
    21    31    32    1
    22    32    33    1
    23    33    34    1
    24    34    35    1
    25    35    36    1
    26    36    46    1
    27    46    47    1
    28    47    48    1
    29    48    49    1
    30    49    50    1
    31    50    51    1
    32    50    52    1
    33    52    53    1
    34    36    38    1
    35    38    39   ar
    36    39    40   ar
    37    40    41   ar
    38    41    42    1
    39    41    43   ar
    40    43    44   ar
    41    44    45    1
    42    36    37    1
    43     4     5   ar
    44     5     6   ar
    45    10    11    1
    46    11    12    1
    47    11    13    1
    48    18    19   ar
    49    19    20   ar
    50    24    25   ar
    51    25    26    2
    52    25    21   ar
    53    20    15   ar
    54    13     7    1
    55     6     1   ar
    56    37    33    1
    57    53    47    1
    58    44    38   ar
    59    12    14    1
