@<TRIPOS>MOLECULE
*****
 60 64 0 0 0
SMALL
GASTEIGER

@<TRIPOS>ATOM
      1 C         -22.3319   -8.9884  -13.4918 C.ar    1  UNL1       -0.0099
      2 C         -21.1899   -9.2086  -12.6765 C.ar    1  UNL1        0.0880
      3 CL        -19.8394   -8.0644  -12.6866 Cl      1  UNL1       -0.0794
      4 C         -21.1421  -10.3208  -11.8095 C.ar    1  UNL1        0.1577
      5 C         -22.2578  -11.1419  -11.6781 C.ar    1  UNL1        0.0676
      6 C         -23.3856  -10.9424  -12.4662 C.ar    1  UNL1        0.1395
      7 F         -24.4340  -11.7924  -12.3178 F       1  UNL1       -0.2044
      8 C         -23.4299   -9.8970  -13.4085 C.ar    1  UNL1        0.0135
      9 C         -21.4629   -7.9288  -15.6045 C.3     1  UNL1        0.0050
     10 C         -22.3773   -7.7618  -14.3910 C.3     1  UNL1        0.0271
     11 O         -20.0033  -10.6383  -11.0535 O.3     1  UNL1       -0.4513
     12 C         -19.6680  -10.0627   -9.8168 C.ar    1  UNL1        0.1598
     13 C         -18.5152  -10.5234   -9.1737 C.ar    1  UNL1        0.0390
     14 C         -18.1658  -10.0491   -7.9084 C.ar    1  UNL1        0.0077
     15 C         -18.9654   -9.0937   -7.2610 C.ar    1  UNL1        0.0548
     16 C         -20.0967   -8.5918   -7.9252 C.ar    1  UNL1        0.0235
     17 C         -20.4491   -9.0540   -9.2039 C.ar    1  UNL1        0.0993
     18 C         -18.6054   -8.5803   -5.9174 C.2     1  UNL1        0.2458
     19 O         -17.3986   -8.3158   -5.6670 O.2     1  UNL1       -0.2701
     20 N         -19.6180   -8.3621   -4.9147 N.am    1  UNL1       -0.3040
     21 H         -20.6142   -8.3764   -5.2312 H       1  UNL1        0.1496
     22 C         -19.3487   -8.1036   -3.4860 C.3     1  UNL1        0.0572
     23 C         -18.8836   -6.6481   -3.2846 C.3     1  UNL1        0.0196
     24 C         -18.2834   -9.0847   -2.9583 C.3     1  UNL1        0.0196
     25 C         -20.6490   -8.3167   -2.6833 C.3     1  UNL1        0.0196
     26 N         -21.5479   -8.4494   -9.9005 N.pl3   1  UNL1       -0.2120
     27 H         -21.3963   -8.0388  -10.8480 H       1  UNL1        0.1738
     28 S         -23.1698   -8.4998   -9.2896 S.O2    1  UNL1        0.0745
     29 O         -23.2533   -7.6431   -8.0570 O.2     1  UNL1       -0.1499
     30 O         -23.5017   -9.9188   -8.9229 O.2     1  UNL1       -0.1499
     31 C         -24.3168   -7.9224  -10.5037 C.ar    1  UNL1        0.1356
     32 C         -25.5397   -8.5861  -10.6711 C.ar    1  UNL1        0.0207
     33 C         -26.4579   -8.1559  -11.6311 C.ar    1  UNL1       -0.0028
     34 C         -26.1735   -7.0405  -12.4452 C.ar    1  UNL1       -0.0216
     35 C         -24.9525   -6.3723  -12.2651 C.ar    1  UNL1        0.0085
     36 C         -24.0287   -6.8008  -11.3050 C.ar    1  UNL1        0.0762
     37 CL        -22.5274   -5.8969  -11.1336 Cl      1  UNL1       -0.0809
     38 C         -27.1170   -6.5117  -13.5129 C.3     1  UNL1        0.0224
     39 C         -26.4908   -5.8669  -14.7420 C.3     1  UNL1        0.0047
     40 C         -27.1848   -5.0017  -13.6970 C.3     1  UNL1        0.0047
     41 C         -24.6576   -9.7830  -14.2933 C.3     1  UNL1        0.1379
     42 C         -24.4043  -10.3532  -15.6512 C.2     1  UNL1        0.3234
     43 O         -23.8699   -9.6382  -16.5425 O.2     1  UNL1       -0.2497
     44 O         -24.7679  -11.6762  -15.9184 O.3     1  UNL1       -0.4215
     45 C         -23.8961  -12.6149  -16.5470 C.3     1  UNL1        0.3207
     46 O         -24.5524  -13.8707  -16.7077 O.3     1  UNL1       -0.3070
     47 C         -24.5030  -14.6916  -15.5503 C.3     1  UNL1        0.2456
     48 C         -23.0390  -15.0771  -15.1677 C.3     1  UNL1        0.1781
     49 O         -22.7550  -16.4020  -15.5472 O.3     1  UNL1       -0.3790
     50 C         -22.0073  -14.1154  -15.7980 C.3     1  UNL1        0.1733
     51 O         -20.7991  -14.1716  -15.0844 O.3     1  UNL1       -0.3793
     52 C         -22.5559  -12.6861  -15.7718 C.3     1  UNL1        0.2106
     53 O         -21.6322  -11.8018  -16.3557 O.3     1  UNL1       -0.3766
     54 H         -22.8814  -16.4668  -16.5303 H       1  UNL1        0.2106
     55 H         -20.3537  -15.0201  -15.3437 H       1  UNL1        0.2105
     56 H         -20.9604  -11.5798  -15.6591 H       1  UNL1        0.2107
     57 C         -25.3186  -14.1066  -14.4182 C.2     1  UNL1        0.3439
     58 O         -24.9963  -14.2967  -13.2142 O.2     1  UNL1       -0.2475
     59 O         -26.4089  -13.2951  -14.7161 O.3     1  UNL1       -0.4785
     60 H         -26.9551  -12.8672  -13.9781 H       1  UNL1        0.2951
@<TRIPOS>BOND
     1     9    10    1
     2    10     1    1
     3     1     2   ar
     4     2     3    1
     5     2     4   ar
     6     4    11    1
     7    11    12    1
     8    12    13   ar
     9    13    14   ar
    10    14    15   ar
    11    15    18    1
    12    18    19    2
    13    18    20   am
    14    20    22    1
    15    22    23    1
    16    22    24    1
    17    22    25    1
    18    15    16   ar
    19    16    17   ar
    20    17    26    1
    21    26    28    1
    22    28    29    2
    23    28    30    2
    24    28    31    1
    25    31    32   ar
    26    32    33   ar
    27    33    34   ar
    28    34    38    1
    29    38    39    1
    30    39    40    1
    31    34    35   ar
    32    35    36   ar
    33    36    37    1
    34     4     5   ar
    35     5     6   ar
    36     6     7    1
    37     6     8   ar
    38     8    41    1
    39    41    42    1
    40    42    43    2
    41    42    44    1
    42    44    45    1
    43    45    46    1
    44    46    47    1
    45    47    57    1
    46    57    58    2
    47    57    59    1
    48    47    48    1
    49    48    49    1
    50    48    50    1
    51    50    51    1
    52    50    52    1
    53    52    53    1
    54     8     1   ar
    55    52    45    1
    56    17    12   ar
    57    36    31   ar
    58    40    38    1
    59    20    21    1
    60    26    27    1
    61    59    60    1
    62    49    54    1
    63    51    55    1
    64    53    56    1
@<TRIPOS>MOLECULE
*****
 60 64 0 0 0
SMALL
GASTEIGER

@<TRIPOS>ATOM
      1 C         -22.5827   -8.9313  -13.3684 C.ar    1  UNL1       -0.0099
      2 C         -21.2739   -8.9312  -12.8165 C.ar    1  UNL1        0.0880
      3 CL        -20.0355   -7.8256  -13.4305 Cl      1  UNL1       -0.0794
      4 C         -20.9609   -9.7821  -11.7353 C.ar    1  UNL1        0.1577
      5 C         -21.9638  -10.5437  -11.1436 C.ar    1  UNL1        0.0676
      6 C         -23.2513  -10.5567  -11.6681 C.ar    1  UNL1        0.1395
      7 F         -24.1833  -11.3419  -11.0690 F       1  UNL1       -0.2044
      8 C         -23.5739   -9.7899  -12.8042 C.ar    1  UNL1        0.0135
      9 C         -22.4773   -8.5576  -15.8565 C.3     1  UNL1        0.0050
     10 C         -22.9079   -7.9782  -14.5091 C.3     1  UNL1        0.0271
     11 O         -19.6626   -9.8914  -11.2141 O.3     1  UNL1       -0.4513
     12 C         -19.3078   -9.6634   -9.8742 C.ar    1  UNL1        0.1598
     13 C         -18.4722  -10.5961   -9.2525 C.ar    1  UNL1        0.0390
     14 C         -18.1426  -10.4707   -7.9021 C.ar    1  UNL1        0.0077
     15 C         -18.6411   -9.3988   -7.1447 C.ar    1  UNL1        0.0548
     16 C         -19.4400   -8.4326   -7.7781 C.ar    1  UNL1        0.0235
     17 C         -19.7666   -8.5438   -9.1397 C.ar    1  UNL1        0.0993
     18 C         -18.2981   -9.2526   -5.7096 C.2     1  UNL1        0.2458
     19 O         -17.6981  -10.1949   -5.1253 O.2     1  UNL1       -0.2701
     20 N         -18.6216   -8.0447   -4.9924 N.am    1  UNL1       -0.3040
     21 H         -18.9077   -7.2147   -5.5598 H       1  UNL1        0.1496
     22 C         -18.5603   -7.8927   -3.5248 C.3     1  UNL1        0.0572
     23 C         -17.1462   -8.2279   -3.0114 C.3     1  UNL1        0.0196
     24 C         -19.6052   -8.8033   -2.8505 C.3     1  UNL1        0.0196
     25 C         -18.8791   -6.4285   -3.1577 C.3     1  UNL1        0.0196
     26 N         -20.4960   -7.4899   -9.7841 N.pl3   1  UNL1       -0.2120
     27 H         -20.1793   -7.1350  -10.7131 H       1  UNL1        0.1738
     28 S         -21.9839   -6.8704   -9.1448 S.O2    1  UNL1        0.0745
     29 O         -21.7057   -5.5797   -8.4259 O.2     1  UNL1       -0.1499
     30 O         -22.5383   -7.8665   -8.1658 O.2     1  UNL1       -0.1499
     31 C         -23.1586   -6.5995  -10.4371 C.ar    1  UNL1        0.1356
     32 C         -24.3524   -7.3333  -10.4519 C.ar    1  UNL1        0.0207
     33 C         -25.2913   -7.1453  -11.4681 C.ar    1  UNL1       -0.0028
     34 C         -25.0577   -6.2075  -12.4948 C.ar    1  UNL1       -0.0216
     35 C         -23.8660   -5.4668  -12.4683 C.ar    1  UNL1        0.0085
     36 C         -22.9215   -5.6528  -11.4523 C.ar    1  UNL1        0.0762
     37 CL        -21.4598   -4.6716  -11.4856 Cl      1  UNL1       -0.0809
     38 C         -26.0266   -5.9459  -13.6361 C.3     1  UNL1        0.0224
     39 C         -27.3491   -5.2751  -13.2904 C.3     1  UNL1        0.0047
     40 C         -27.3167   -6.7546  -13.6541 C.3     1  UNL1        0.0047
     41 C         -24.9751   -9.9106  -13.3745 C.3     1  UNL1        0.1379
     42 C         -25.0927  -11.0911  -14.2832 C.2     1  UNL1        0.3234
     43 O         -26.1648  -11.2910  -14.9170 O.2     1  UNL1       -0.2497
     44 O         -24.0094  -11.9646  -14.4167 O.3     1  UNL1       -0.4215
     45 C         -24.1334  -13.3833  -14.3262 C.3     1  UNL1        0.3207
     46 O         -22.8445  -13.9914  -14.2750 O.3     1  UNL1       -0.3070
     47 C         -22.2548  -14.1850  -15.5520 C.3     1  UNL1        0.2456
     48 C         -23.0940  -15.1538  -16.4439 C.3     1  UNL1        0.1781
     49 O         -22.4997  -16.4282  -16.4949 O.3     1  UNL1       -0.3790
     50 C         -24.5531  -15.2717  -15.9503 C.3     1  UNL1        0.1733
     51 O         -25.3773  -15.7296  -16.9911 O.3     1  UNL1       -0.3793
     52 C         -25.0434  -13.9038  -15.4678 C.3     1  UNL1        0.2106
     53 O         -26.3664  -13.9998  -15.0023 O.3     1  UNL1       -0.3766
     54 H         -22.4497  -16.7741  -15.5651 H       1  UNL1        0.2106
     55 H         -25.1995  -16.7014  -17.0894 H       1  UNL1        0.2105
     56 H         -26.9593  -13.9559  -15.7974 H       1  UNL1        0.2107
     57 C         -21.9031  -12.8677  -16.2077 C.2     1  UNL1        0.3439
     58 O         -22.0820  -12.6838  -17.4422 O.2     1  UNL1       -0.2475
     59 O         -21.4297  -11.8228  -15.4204 O.3     1  UNL1       -0.4785
     60 H         -21.2136  -10.9212  -15.8286 H       1  UNL1        0.2951
@<TRIPOS>BOND
     1     9    10    1
     2    10     1    1
     3     1     2   ar
     4     2     3    1
     5     2     4   ar
     6     4    11    1
     7    11    12    1
     8    12    13   ar
     9    13    14   ar
    10    14    15   ar
    11    15    18    1
    12    18    19    2
    13    18    20   am
    14    20    22    1
    15    22    23    1
    16    22    24    1
    17    22    25    1
    18    15    16   ar
    19    16    17   ar
    20    17    26    1
    21    26    28    1
    22    28    29    2
    23    28    30    2
    24    28    31    1
    25    31    32   ar
    26    32    33   ar
    27    33    34   ar
    28    34    38    1
    29    38    39    1
    30    39    40    1
    31    34    35   ar
    32    35    36   ar
    33    36    37    1
    34     4     5   ar
    35     5     6   ar
    36     6     7    1
    37     6     8   ar
    38     8    41    1
    39    41    42    1
    40    42    43    2
    41    42    44    1
    42    44    45    1
    43    45    46    1
    44    46    47    1
    45    47    57    1
    46    57    58    2
    47    57    59    1
    48    47    48    1
    49    48    49    1
    50    48    50    1
    51    50    51    1
    52    50    52    1
    53    52    53    1
    54     8     1   ar
    55    52    45    1
    56    17    12   ar
    57    36    31   ar
    58    40    38    1
    59    20    21    1
    60    26    27    1
    61    59    60    1
    62    49    54    1
    63    51    55    1
    64    53    56    1
@<TRIPOS>MOLECULE
*****
 60 64 0 0 0
SMALL
GASTEIGER

@<TRIPOS>ATOM
      1 C         -22.5458   -9.7258  -10.8474 C.ar    1  UNL1       -0.0099
      2 C         -23.8835   -9.6354  -11.3163 C.ar    1  UNL1        0.0880
      3 CL        -24.3271  -10.2709  -12.9077 Cl      1  UNL1       -0.0794
      4 C         -24.8866   -9.0800  -10.4939 C.ar    1  UNL1        0.1577
      5 C         -24.5837   -8.7178   -9.1850 C.ar    1  UNL1        0.0676
      6 C         -23.2808   -8.7997   -8.7068 C.ar    1  UNL1        0.1395
      7 F         -23.0366   -8.4041   -7.4310 F       1  UNL1       -0.2044
      8 C         -22.2384   -9.2624   -9.5326 C.ar    1  UNL1        0.0135
      9 C         -21.3345  -11.8537  -11.4359 C.3     1  UNL1        0.0050
     10 C         -21.4884  -10.3630  -11.7369 C.3     1  UNL1        0.0271
     11 O         -26.2018   -8.8800  -10.9405 O.3     1  UNL1       -0.4513
     12 C         -26.5976   -7.9160  -11.8824 C.ar    1  UNL1        0.1598
     13 C         -27.6717   -8.2263  -12.7219 C.ar    1  UNL1        0.0390
     14 C         -28.0676   -7.3456  -13.7296 C.ar    1  UNL1        0.0077
     15 C         -27.3958   -6.1266  -13.9136 C.ar    1  UNL1        0.0548
     16 C         -26.3486   -5.7892  -13.0403 C.ar    1  UNL1        0.0235
     17 C         -25.9515   -6.6637  -12.0153 C.ar    1  UNL1        0.0993
     18 C         -27.8066   -5.1811  -14.9794 C.2     1  UNL1        0.2458
     19 O         -26.9183   -4.6338  -15.6869 O.2     1  UNL1       -0.2701
     20 N         -29.2001   -4.9046  -15.2242 N.am    1  UNL1       -0.3040
     21 H         -29.8988   -5.5404  -14.7766 H       1  UNL1        0.1496
     22 C         -29.7061   -3.8059  -16.0711 C.3     1  UNL1        0.0572
     23 C         -28.5706   -2.8159  -16.3970 C.3     1  UNL1        0.0196
     24 C         -30.8655   -3.0777  -15.3632 C.3     1  UNL1        0.0196
     25 C         -30.2355   -4.3952  -17.3951 C.3     1  UNL1        0.0196
     26 N         -24.9507   -6.2488  -11.0750 N.pl3   1  UNL1       -0.2120
     27 H         -25.1591   -6.2754  -10.0526 H       1  UNL1        0.1738
     28 S         -23.3388   -5.8359  -11.5625 S.O2    1  UNL1        0.0745
     29 O         -22.4059   -6.0651  -10.4060 O.2     1  UNL1       -0.1499
     30 O         -23.3072   -4.3808  -11.9360 O.2     1  UNL1       -0.1499
     31 C         -22.8323   -6.8098  -12.9475 C.ar    1  UNL1        0.1356
     32 C         -23.7571   -7.1114  -13.9563 C.ar    1  UNL1        0.0207
     33 C         -23.3844   -7.8882  -15.0551 C.ar    1  UNL1       -0.0028
     34 C         -22.0673   -8.3775  -15.1727 C.ar    1  UNL1       -0.0216
     35 C         -21.1421   -8.0623  -14.1656 C.ar    1  UNL1        0.0085
     36 C         -21.5117   -7.2851  -13.0618 C.ar    1  UNL1        0.0762
     37 CL        -20.2855   -6.9234  -11.8511 Cl      1  UNL1       -0.0809
     38 C         -21.5837   -9.2302  -16.3341 C.3     1  UNL1        0.0224
     39 C         -22.5820  -10.1992  -16.9530 C.3     1  UNL1        0.0047
     40 C         -21.4430  -10.7264  -16.0888 C.3     1  UNL1        0.0047
     41 C         -20.8264   -9.2514   -8.9763 C.3     1  UNL1        0.1379
     42 C         -20.6150   -8.0964   -8.0520 C.2     1  UNL1        0.3234
     43 O         -20.6676   -6.9177   -8.4981 O.2     1  UNL1       -0.2497
     44 O         -20.3567   -8.3384   -6.6996 O.3     1  UNL1       -0.4215
     45 C         -19.0533   -8.6181   -6.1906 C.3     1  UNL1        0.3207
     46 O         -19.1098   -9.6784   -5.2386 O.3     1  UNL1       -0.3070
     47 C         -19.4629   -9.2519   -3.9311 C.3     1  UNL1        0.2456
     48 C         -18.4118   -8.2637   -3.3335 C.3     1  UNL1        0.1781
     49 O         -17.5916   -8.9141   -2.3933 O.3     1  UNL1       -0.3790
     50 C         -17.5418   -7.6151   -4.4330 C.3     1  UNL1        0.1733
     51 O         -16.9692   -6.4257   -3.9537 O.3     1  UNL1       -0.3793
     52 C         -18.4066   -7.3134   -5.6600 C.3     1  UNL1        0.2106
     53 O         -17.6237   -6.7352   -6.6744 O.3     1  UNL1       -0.3766
     54 H         -17.1335   -9.6617   -2.8601 H       1  UNL1        0.2106
     55 H         -16.2285   -6.6896   -3.3476 H       1  UNL1        0.2105
     56 H         -17.5440   -5.7678   -6.4658 H       1  UNL1        0.2107
     57 C         -20.8936   -8.7635   -3.8728 C.2     1  UNL1        0.3439
     58 O         -21.2535   -7.8930   -3.0347 O.2     1  UNL1       -0.2475
     59 O         -21.8125   -9.2422   -4.8015 O.3     1  UNL1       -0.4785
     60 H         -22.7698   -8.9111   -4.8035 H       1  UNL1        0.2951
@<TRIPOS>BOND
     1     9    10    1
     2    10     1    1
     3     1     2   ar
     4     2     3    1
     5     2     4   ar
     6     4    11    1
     7    11    12    1
     8    12    13   ar
     9    13    14   ar
    10    14    15   ar
    11    15    18    1
    12    18    19    2
    13    18    20   am
    14    20    22    1
    15    22    23    1
    16    22    24    1
    17    22    25    1
    18    15    16   ar
    19    16    17   ar
    20    17    26    1
    21    26    28    1
    22    28    29    2
    23    28    30    2
    24    28    31    1
    25    31    32   ar
    26    32    33   ar
    27    33    34   ar
    28    34    38    1
    29    38    39    1
    30    39    40    1
    31    34    35   ar
    32    35    36   ar
    33    36    37    1
    34     4     5   ar
    35     5     6   ar
    36     6     7    1
    37     6     8   ar
    38     8    41    1
    39    41    42    1
    40    42    43    2
    41    42    44    1
    42    44    45    1
    43    45    46    1
    44    46    47    1
    45    47    57    1
    46    57    58    2
    47    57    59    1
    48    47    48    1
    49    48    49    1
    50    48    50    1
    51    50    51    1
    52    50    52    1
    53    52    53    1
    54     8     1   ar
    55    52    45    1
    56    17    12   ar
    57    36    31   ar
    58    40    38    1
    59    20    21    1
    60    26    27    1
    61    59    60    1
    62    49    54    1
    63    51    55    1
    64    53    56    1
@<TRIPOS>MOLECULE
*****
 60 64 0 0 0
SMALL
GASTEIGER

@<TRIPOS>ATOM
      1 C         -23.0231   -9.5205  -13.6577 C.ar    1  UNL1       -0.0099
      2 C         -21.7645   -9.1408  -13.1197 C.ar    1  UNL1        0.0880
      3 CL        -20.8655   -7.7773  -13.8021 Cl      1  UNL1       -0.0794
      4 C         -21.2393   -9.8188  -11.9992 C.ar    1  UNL1        0.1577
      5 C         -22.0037  -10.7894  -11.3591 C.ar    1  UNL1        0.0676
      6 C         -23.2383  -11.1744  -11.8693 C.ar    1  UNL1        0.1395
      7 F         -23.9280  -12.1482  -11.2213 F       1  UNL1       -0.2044
      8 C         -23.7500  -10.5827  -13.0401 C.ar    1  UNL1        0.0135
      9 C         -22.6962   -8.8985  -16.0758 C.3     1  UNL1        0.0050
     10 C         -23.5871   -8.7506  -14.8427 C.3     1  UNL1        0.0271
     11 O         -19.9614   -9.5487  -11.4861 O.3     1  UNL1       -0.4513
     12 C         -19.6898   -9.1294  -10.1732 C.ar    1  UNL1        0.1598
     13 C         -19.0419  -10.0293   -9.3217 C.ar    1  UNL1        0.0390
     14 C         -18.8099   -9.7055   -7.9840 C.ar    1  UNL1        0.0077
     15 C         -19.2188   -8.4640   -7.4714 C.ar    1  UNL1        0.0548
     16 C         -19.8249   -7.5379   -8.3362 C.ar    1  UNL1        0.0235
     17 C         -20.0511   -7.8503   -9.6869 C.ar    1  UNL1        0.0993
     18 C         -18.9776   -8.1065   -6.0527 C.2     1  UNL1        0.2458
     19 O         -17.9065   -7.5177   -5.7442 O.2     1  UNL1       -0.2701
     20 N         -19.9590   -8.4035   -5.0393 N.am    1  UNL1       -0.3040
     21 H         -20.9129   -8.6802   -5.3650 H       1  UNL1        0.1496
     22 C         -19.7188   -8.3271   -3.5843 C.3     1  UNL1        0.0572
     23 C         -19.4139   -6.8747   -3.1684 C.3     1  UNL1        0.0196
     24 C         -18.5535   -9.2545   -3.1870 C.3     1  UNL1        0.0196
     25 C         -20.9881   -8.7921   -2.8407 C.3     1  UNL1        0.0196
     26 N         -20.5758   -6.8487  -10.5698 N.pl3   1  UNL1       -0.2120
     27 H         -20.1690   -6.7368  -11.5245 H       1  UNL1        0.1738
     28 S         -21.9699   -5.8999  -10.1670 S.O2    1  UNL1        0.0745
     29 O         -21.7544   -4.4902  -10.6432 O.2     1  UNL1       -0.1499
     30 O         -22.1315   -5.8928   -8.6731 O.2     1  UNL1       -0.1499
     31 C         -23.4243   -6.5722  -10.9127 C.ar    1  UNL1        0.1356
     32 C         -23.9857   -5.9381  -12.0292 C.ar    1  UNL1        0.0207
     33 C         -25.1407   -6.4435  -12.6294 C.ar    1  UNL1       -0.0028
     34 C         -25.7593   -7.6063  -12.1263 C.ar    1  UNL1       -0.0216
     35 C         -25.1860   -8.2442  -11.0155 C.ar    1  UNL1        0.0085
     36 C         -24.0291   -7.7404  -10.4099 C.ar    1  UNL1        0.0762
     37 CL        -23.3664   -8.6101   -9.0298 Cl      1  UNL1       -0.0809
     38 C         -27.0177   -8.2176  -12.7200 C.3     1  UNL1        0.0224
     39 C         -27.9030   -7.3120  -13.5654 C.3     1  UNL1        0.0047
     40 C         -28.3532   -7.7332  -12.1718 C.3     1  UNL1        0.0047
     41 C         -25.0650  -11.1042  -13.5894 C.3     1  UNL1        0.1379
     42 C         -25.0855  -12.5980  -13.6248 C.2     1  UNL1        0.3234
     43 O         -26.0500  -13.2250  -13.1072 O.2     1  UNL1       -0.2497
     44 O         -24.0289  -13.2844  -14.2304 O.3     1  UNL1       -0.4215
     45 C         -23.9948  -13.5956  -15.6226 C.3     1  UNL1        0.3207
     46 O         -22.8474  -14.3861  -15.9261 O.3     1  UNL1       -0.3070
     47 C         -21.6674  -13.6229  -16.1296 C.3     1  UNL1        0.2456
     48 C         -21.7964  -12.6599  -17.3520 C.3     1  UNL1        0.1781
     49 O         -21.0989  -13.1668  -18.4640 O.3     1  UNL1       -0.3790
     50 C         -23.2724  -12.4019  -17.7281 C.3     1  UNL1        0.1733
     51 O         -23.3791  -11.2135  -18.4687 O.3     1  UNL1       -0.3793
     52 C         -24.1147  -12.2931  -16.4540 C.3     1  UNL1        0.2106
     53 O         -25.4636  -12.0721  -16.7824 O.3     1  UNL1       -0.3766
     54 H         -21.4874  -14.0543  -18.6836 H       1  UNL1        0.2106
     55 H         -23.0507  -11.4168  -19.3833 H       1  UNL1        0.2105
     56 H         -25.5655  -11.1004  -16.9586 H       1  UNL1        0.2107
     57 C         -21.2055  -12.9610  -14.8500 C.2     1  UNL1        0.3439
     58 O         -20.9359  -11.7300  -14.8113 O.2     1  UNL1       -0.2475
     59 O         -21.1354  -13.7152  -13.6828 O.3     1  UNL1       -0.4785
     60 H         -20.8569  -13.2911  -12.8061 H       1  UNL1        0.2951
@<TRIPOS>BOND
     1     9    10    1
     2    10     1    1
     3     1     2   ar
     4     2     3    1
     5     2     4   ar
     6     4    11    1
     7    11    12    1
     8    12    13   ar
     9    13    14   ar
    10    14    15   ar
    11    15    18    1
    12    18    19    2
    13    18    20   am
    14    20    22    1
    15    22    23    1
    16    22    24    1
    17    22    25    1
    18    15    16   ar
    19    16    17   ar
    20    17    26    1
    21    26    28    1
    22    28    29    2
    23    28    30    2
    24    28    31    1
    25    31    32   ar
    26    32    33   ar
    27    33    34   ar
    28    34    38    1
    29    38    39    1
    30    39    40    1
    31    34    35   ar
    32    35    36   ar
    33    36    37    1
    34     4     5   ar
    35     5     6   ar
    36     6     7    1
    37     6     8   ar
    38     8    41    1
    39    41    42    1
    40    42    43    2
    41    42    44    1
    42    44    45    1
    43    45    46    1
    44    46    47    1
    45    47    57    1
    46    57    58    2
    47    57    59    1
    48    47    48    1
    49    48    49    1
    50    48    50    1
    51    50    51    1
    52    50    52    1
    53    52    53    1
    54     8     1   ar
    55    52    45    1
    56    17    12   ar
    57    36    31   ar
    58    40    38    1
    59    20    21    1
    60    26    27    1
    61    59    60    1
    62    49    54    1
    63    51    55    1
    64    53    56    1
@<TRIPOS>MOLECULE
*****
 60 64 0 0 0
SMALL
GASTEIGER

@<TRIPOS>ATOM
      1 C         -21.9740   -9.7198  -10.8041 C.ar    1  UNL1       -0.0099
      2 C         -23.0120   -9.9077  -11.7553 C.ar    1  UNL1        0.0880
      3 CL        -23.4358  -11.5307  -12.3202 Cl      1  UNL1       -0.0794
      4 C         -23.7520   -8.8015  -12.2242 C.ar    1  UNL1        0.1577
      5 C         -23.5330   -7.5419  -11.6752 C.ar    1  UNL1        0.0676
      6 C         -22.5227   -7.3376  -10.7422 C.ar    1  UNL1        0.1395
      7 F         -22.3333   -6.0815  -10.2622 F       1  UNL1       -0.2044
      8 C         -21.7042   -8.4034  -10.3220 C.ar    1  UNL1        0.0135
      9 C         -20.2885  -11.5077  -11.3549 C.3     1  UNL1        0.0050
     10 C         -21.2147  -10.9316  -10.2842 C.3     1  UNL1        0.0271
     11 O         -24.7223   -8.9166  -13.2314 O.3     1  UNL1       -0.4513
     12 C         -25.5486   -7.8732  -13.6806 C.ar    1  UNL1        0.1598
     13 C         -26.8657   -7.8365  -13.2130 C.ar    1  UNL1        0.0390
     14 C         -27.7614   -6.8721  -13.6774 C.ar    1  UNL1        0.0077
     15 C         -27.3515   -5.9158  -14.6201 C.ar    1  UNL1        0.0548
     16 C         -26.0156   -5.9187  -15.0544 C.ar    1  UNL1        0.0235
     17 C         -25.1039   -6.8777  -14.5830 C.ar    1  UNL1        0.0993
     18 C         -28.2921   -4.8849  -15.1212 C.2     1  UNL1        0.2458
     19 O         -27.8280   -3.8417  -15.6555 O.2     1  UNL1       -0.2701
     20 N         -29.7177   -5.0761  -15.0233 N.am    1  UNL1       -0.3040
     21 H         -30.0554   -6.0366  -14.7866 H       1  UNL1        0.1496
     22 C         -30.7276   -4.0230  -15.2503 C.3     1  UNL1        0.0572
     23 C         -30.6840   -3.5474  -16.7157 C.3     1  UNL1        0.0196
     24 C         -30.4861   -2.8380  -14.2947 C.3     1  UNL1        0.0196
     25 C         -32.1293   -4.6017  -14.9659 C.3     1  UNL1        0.0196
     26 N         -23.7232   -6.7929  -14.9630 N.pl3   1  UNL1       -0.2120
     27 H         -23.0237   -6.4123  -14.2882 H       1  UNL1        0.1738
     28 S         -23.1356   -7.4372  -16.4616 S.O2    1  UNL1        0.0745
     29 O         -21.9073   -6.6738  -16.8723 O.2     1  UNL1       -0.1499
     30 O         -24.1965   -7.2588  -17.5107 O.2     1  UNL1       -0.1499
     31 C         -22.7517   -9.1547  -16.2996 C.ar    1  UNL1        0.1356
     32 C         -23.3443  -10.0810  -17.1682 C.ar    1  UNL1        0.0207
     33 C         -23.0656  -11.4444  -17.0534 C.ar    1  UNL1       -0.0028
     34 C         -22.1763  -11.9130  -16.0647 C.ar    1  UNL1       -0.0216
     35 C         -21.5763  -10.9797  -15.2053 C.ar    1  UNL1        0.0085
     36 C         -21.8538   -9.6123  -15.3160 C.ar    1  UNL1        0.0762
     37 CL        -21.0468   -8.5074  -14.2077 Cl      1  UNL1       -0.0809
     38 C         -21.8229  -13.3786  -15.8728 C.3     1  UNL1        0.0224
     39 C         -22.6391  -14.1674  -14.8578 C.3     1  UNL1        0.0047
     40 C         -21.2005  -13.7768  -14.5414 C.3     1  UNL1        0.0047
     41 C         -20.5683   -8.0982   -9.3630 C.3     1  UNL1        0.1379
     42 C         -21.0245   -8.1625   -7.9414 C.2     1  UNL1        0.3234
     43 O         -22.1461   -8.6690   -7.6645 O.2     1  UNL1       -0.2497
     44 O         -20.2004   -7.6548   -6.9329 O.3     1  UNL1       -0.4215
     45 C         -18.9029   -8.1756   -6.6473 C.3     1  UNL1        0.3207
     46 O         -19.0086   -9.4231   -5.9646 O.3     1  UNL1       -0.3070
     47 C         -19.1978   -9.2917   -4.5635 C.3     1  UNL1        0.2456
     48 C         -17.9887   -8.5847   -3.8731 C.3     1  UNL1        0.1781
     49 O         -17.1784   -9.5199   -3.2031 O.3     1  UNL1       -0.3790
     50 C         -17.1405   -7.7791   -4.8820 C.3     1  UNL1        0.1733
     51 O         -16.3901   -6.8024   -4.2073 O.3     1  UNL1       -0.3793
     52 C         -18.0610   -7.1072   -5.9046 C.3     1  UNL1        0.2106
     53 O         -17.3005   -6.3814   -6.8379 O.3     1  UNL1       -0.3766
     54 H         -16.8546  -10.1743   -3.8767 H       1  UNL1        0.2106
     55 H         -15.6393   -7.2760   -3.7628 H       1  UNL1        0.2105
     56 H         -17.0870   -5.5055   -6.4223 H       1  UNL1        0.2107
     57 C         -20.5489   -8.6936   -4.2385 C.2     1  UNL1        0.3439
     58 O         -20.6945   -7.8920   -3.2762 O.2     1  UNL1       -0.2475
     59 O         -21.6361   -8.9894   -5.0548 O.3     1  UNL1       -0.4785
     60 H         -22.5457   -8.5803   -4.8773 H       1  UNL1        0.2951
@<TRIPOS>BOND
     1     9    10    1
     2    10     1    1
     3     1     2   ar
     4     2     3    1
     5     2     4   ar
     6     4    11    1
     7    11    12    1
     8    12    13   ar
     9    13    14   ar
    10    14    15   ar
    11    15    18    1
    12    18    19    2
    13    18    20   am
    14    20    22    1
    15    22    23    1
    16    22    24    1
    17    22    25    1
    18    15    16   ar
    19    16    17   ar
    20    17    26    1
    21    26    28    1
    22    28    29    2
    23    28    30    2
    24    28    31    1
    25    31    32   ar
    26    32    33   ar
    27    33    34   ar
    28    34    38    1
    29    38    39    1
    30    39    40    1
    31    34    35   ar
    32    35    36   ar
    33    36    37    1
    34     4     5   ar
    35     5     6   ar
    36     6     7    1
    37     6     8   ar
    38     8    41    1
    39    41    42    1
    40    42    43    2
    41    42    44    1
    42    44    45    1
    43    45    46    1
    44    46    47    1
    45    47    57    1
    46    57    58    2
    47    57    59    1
    48    47    48    1
    49    48    49    1
    50    48    50    1
    51    50    51    1
    52    50    52    1
    53    52    53    1
    54     8     1   ar
    55    52    45    1
    56    17    12   ar
    57    36    31   ar
    58    40    38    1
    59    20    21    1
    60    26    27    1
    61    59    60    1
    62    49    54    1
    63    51    55    1
    64    53    56    1
@<TRIPOS>MOLECULE
*****
 60 64 0 0 0
SMALL
GASTEIGER

@<TRIPOS>ATOM
      1 C         -23.6293   -7.6224  -14.3039 C.ar    1  UNL1       -0.0099
      2 C         -22.2936   -7.6619  -13.8225 C.ar    1  UNL1        0.0880
      3 CL        -20.9927   -8.3247  -14.8232 Cl      1  UNL1       -0.0794
      4 C         -21.9809   -7.1255  -12.5554 C.ar    1  UNL1        0.1577
      5 C         -22.9631   -6.4646  -11.8243 C.ar    1  UNL1        0.0676
      6 C         -24.2761   -6.4140  -12.2787 C.ar    1  UNL1        0.1395
      7 F         -25.2001   -5.7821  -11.5100 F       1  UNL1       -0.2044
      8 C         -24.6408   -7.0207  -13.4958 C.ar    1  UNL1        0.0135
      9 C         -23.1533   -7.4262  -16.7688 C.3     1  UNL1        0.0050
     10 C         -23.9363   -8.1726  -15.6889 C.3     1  UNL1        0.0271
     11 O         -20.6995   -7.2223  -11.9917 O.3     1  UNL1       -0.4513
     12 C         -20.4278   -7.5621  -10.6560 C.ar    1  UNL1        0.1598
     13 C         -20.7026   -6.6086   -9.6711 C.ar    1  UNL1        0.0390
     14 C         -20.3861   -6.8520   -8.3338 C.ar    1  UNL1        0.0077
     15 C         -19.7904   -8.0651   -7.9531 C.ar    1  UNL1        0.0548
     16 C         -19.5588   -9.0452   -8.9323 C.ar    1  UNL1        0.0235
     17 C         -19.8856   -8.8139  -10.2787 C.ar    1  UNL1        0.0993
     18 C         -19.4501   -8.3374   -6.5359 C.2     1  UNL1        0.2458
     19 O         -20.3793   -8.5840   -5.7204 O.2     1  UNL1       -0.2701
     20 N         -18.0777   -8.3450   -6.0944 N.am    1  UNL1       -0.3040
     21 H         -17.3386   -8.3619   -6.8334 H       1  UNL1        0.1496
     22 C         -17.6457   -8.3489   -4.6823 C.3     1  UNL1        0.0572
     23 C         -17.9653   -9.7081   -4.0295 C.3     1  UNL1        0.0196
     24 C         -18.3366   -7.2077   -3.9104 C.3     1  UNL1        0.0196
     25 C         -16.1204   -8.1251   -4.6232 C.3     1  UNL1        0.0196
     26 N         -19.7349   -9.8697  -11.2382 N.pl3   1  UNL1       -0.2120
     27 H         -18.8293   -9.9826  -11.7446 H       1  UNL1        0.1738
     28 S         -20.9598  -11.0703  -11.4915 S.O2    1  UNL1        0.0745
     29 O         -20.5928  -12.3105  -10.7250 O.2     1  UNL1       -0.1499
     30 O         -21.0155  -11.3989  -12.9567 O.2     1  UNL1       -0.1499
     31 C         -22.5385  -10.4790  -10.9610 C.ar    1  UNL1        0.1356
     32 C         -22.6921   -9.9925   -9.6557 C.ar    1  UNL1        0.0207
     33 C         -23.9317   -9.5301   -9.2093 C.ar    1  UNL1       -0.0028
     34 C         -25.0505   -9.5379  -10.0674 C.ar    1  UNL1       -0.0216
     35 C         -24.8881  -10.0148  -11.3772 C.ar    1  UNL1        0.0085
     36 C         -23.6478  -10.4805  -11.8285 C.ar    1  UNL1        0.0762
     37 CL        -23.5270  -11.0477  -13.4910 Cl      1  UNL1       -0.0809
     38 C         -26.4321   -9.0550   -9.6579 C.3     1  UNL1        0.0224
     39 C         -27.2835   -8.3841  -10.7274 C.3     1  UNL1        0.0047
     40 C         -26.6599   -7.5500   -9.6150 C.3     1  UNL1        0.0047
     41 C         -26.1047   -6.9993  -13.8955 C.3     1  UNL1        0.1379
     42 C         -26.5558   -5.6156  -14.2344 C.2     1  UNL1        0.3234
     43 O         -26.5057   -4.7074  -13.3604 O.2     1  UNL1       -0.2497
     44 O         -27.0331   -5.3453  -15.5202 O.3     1  UNL1       -0.4215
     45 C         -26.5453   -4.2734  -16.3259 C.3     1  UNL1        0.3207
     46 O         -27.3058   -3.0902  -16.0905 O.3     1  UNL1       -0.3070
     47 C         -28.5088   -3.0273  -16.8422 C.3     1  UNL1        0.2456
     48 C         -28.2380   -3.0024  -18.3798 C.3     1  UNL1        0.1781
     49 O         -28.3988   -1.7030  -18.8952 O.3     1  UNL1       -0.3790
     50 C         -26.8300   -3.5361  -18.7249 C.3     1  UNL1        0.1733
     51 O         -26.7880   -3.9499  -20.0662 O.3     1  UNL1       -0.3793
     52 C         -26.4905   -4.7161  -17.8101 C.3     1  UNL1        0.2106
     53 O         -25.2049   -5.2030  -18.1042 O.3     1  UNL1       -0.3766
     54 H         -27.7556   -1.1108  -18.4236 H       1  UNL1        0.2106
     55 H         -26.7480   -3.1256  -20.6181 H       1  UNL1        0.2105
     56 H         -25.2937   -5.8073  -18.8869 H       1  UNL1        0.2107
     57 C         -29.5011   -4.0771  -16.3924 C.2     1  UNL1        0.3439
     58 O         -30.2279   -4.6876  -17.2223 O.2     1  UNL1       -0.2475
     59 O         -29.5677   -4.4146  -15.0443 O.3     1  UNL1       -0.4785
     60 H         -30.2026   -5.1340  -14.7195 H       1  UNL1        0.2951
@<TRIPOS>BOND
     1     9    10    1
     2    10     1    1
     3     1     2   ar
     4     2     3    1
     5     2     4   ar
     6     4    11    1
     7    11    12    1
     8    12    13   ar
     9    13    14   ar
    10    14    15   ar
    11    15    18    1
    12    18    19    2
    13    18    20   am
    14    20    22    1
    15    22    23    1
    16    22    24    1
    17    22    25    1
    18    15    16   ar
    19    16    17   ar
    20    17    26    1
    21    26    28    1
    22    28    29    2
    23    28    30    2
    24    28    31    1
    25    31    32   ar
    26    32    33   ar
    27    33    34   ar
    28    34    38    1
    29    38    39    1
    30    39    40    1
    31    34    35   ar
    32    35    36   ar
    33    36    37    1
    34     4     5   ar
    35     5     6   ar
    36     6     7    1
    37     6     8   ar
    38     8    41    1
    39    41    42    1
    40    42    43    2
    41    42    44    1
    42    44    45    1
    43    45    46    1
    44    46    47    1
    45    47    57    1
    46    57    58    2
    47    57    59    1
    48    47    48    1
    49    48    49    1
    50    48    50    1
    51    50    51    1
    52    50    52    1
    53    52    53    1
    54     8     1   ar
    55    52    45    1
    56    17    12   ar
    57    36    31   ar
    58    40    38    1
    59    20    21    1
    60    26    27    1
    61    59    60    1
    62    49    54    1
    63    51    55    1
    64    53    56    1
@<TRIPOS>MOLECULE
*****
 60 64 0 0 0
SMALL
GASTEIGER

@<TRIPOS>ATOM
      1 C         -20.5389   -9.7266  -11.0168 C.ar    1  UNL1       -0.0099
      2 C         -21.0665   -9.9185  -12.3215 C.ar    1  UNL1        0.0880
      3 CL        -21.3261  -11.5490  -12.9594 Cl      1  UNL1       -0.0794
      4 C         -21.4367   -8.8061  -13.1067 C.ar    1  UNL1        0.1577
      5 C         -21.3821   -7.5273  -12.5610 C.ar    1  UNL1        0.0676
      6 C         -20.8699   -7.3187  -11.2854 C.ar    1  UNL1        0.1395
      7 F         -20.8118   -6.0463  -10.8146 F       1  UNL1       -0.2044
      8 C         -20.4049   -8.3985  -10.5106 C.ar    1  UNL1        0.0135
      9 C         -18.6843  -10.9878   -9.8717 C.3     1  UNL1        0.0050
     10 C         -20.1820  -10.9420  -10.1738 C.3     1  UNL1        0.0271
     11 O         -21.8734   -8.9329  -14.4342 O.3     1  UNL1       -0.4513
     12 C         -22.7878   -8.0764  -15.0695 C.ar    1  UNL1        0.1598
     13 C         -22.5824   -7.7903  -16.4225 C.ar    1  UNL1        0.0390
     14 C         -23.4083   -6.8881  -17.0947 C.ar    1  UNL1        0.0077
     15 C         -24.4666   -6.2557  -16.4228 C.ar    1  UNL1        0.0548
     16 C         -24.7067   -6.5786  -15.0771 C.ar    1  UNL1        0.0235
     17 C         -23.8884   -7.4948  -14.3959 C.ar    1  UNL1        0.0993
     18 C         -25.3525   -5.2961  -17.1250 C.2     1  UNL1        0.2458
     19 O         -25.0308   -4.8971  -18.2767 O.2     1  UNL1       -0.2701
     20 N         -26.5768   -4.8398  -16.5157 N.am    1  UNL1       -0.3040
     21 H         -26.9143   -5.3604  -15.6745 H       1  UNL1        0.1496
     22 C         -27.3913   -3.7088  -17.0035 C.3     1  UNL1        0.0572
     23 C         -28.8341   -3.8213  -16.4733 C.3     1  UNL1        0.0196
     24 C         -27.3875   -3.6746  -18.5445 C.3     1  UNL1        0.0196
     25 C         -26.7814   -2.3901  -16.4844 C.3     1  UNL1        0.0196
     26 N         -24.2195   -7.8836  -13.0553 N.pl3   1  UNL1       -0.2120
     27 H         -23.6820   -7.4859  -12.2540 H       1  UNL1        0.1738
     28 S         -25.5859   -8.8884  -12.6950 S.O2    1  UNL1        0.0745
     29 O         -26.8039   -8.3124  -13.3620 O.2     1  UNL1       -0.1499
     30 O         -25.7991   -8.8949  -11.2076 O.2     1  UNL1       -0.1499
     31 C         -25.3157  -10.5418  -13.2577 C.ar    1  UNL1        0.1356
     32 C         -25.7421  -10.9147  -14.5396 C.ar    1  UNL1        0.0207
     33 C         -25.5500  -12.2178  -15.0030 C.ar    1  UNL1       -0.0028
     34 C         -24.9166  -13.1808  -14.1909 C.ar    1  UNL1       -0.0216
     35 C         -24.4808  -12.7986  -12.9128 C.ar    1  UNL1        0.0085
     36 C         -24.6724  -11.4939  -12.4438 C.ar    1  UNL1        0.0762
     37 CL        -24.0819  -11.0936  -10.8340 Cl      1  UNL1       -0.0809
     38 C         -24.6726  -14.6183  -14.6197 C.3     1  UNL1        0.0224
     39 C         -23.4102  -14.9038  -15.4218 C.3     1  UNL1        0.0047
     40 C         -24.7709  -14.9280  -16.1073 C.3     1  UNL1        0.0047
     41 C         -19.7838   -8.0945   -9.1597 C.3     1  UNL1        0.1379
     42 C         -20.8269   -7.9724   -8.0966 C.2     1  UNL1        0.3234
     43 O         -22.0249   -7.7408   -8.4164 O.2     1  UNL1       -0.2497
     44 O         -20.4591   -8.1133   -6.7553 O.3     1  UNL1       -0.4215
     45 C         -19.1466   -8.4890   -6.3399 C.3     1  UNL1        0.3207
     46 O         -19.2056   -9.6194   -5.4726 O.3     1  UNL1       -0.3070
     47 C         -19.4729   -9.2855   -4.1187 C.3     1  UNL1        0.2456
     48 C         -18.3483   -8.3949   -3.5020 C.3     1  UNL1        0.1781
     49 O         -17.5139   -9.1538   -2.6608 O.3     1  UNL1       -0.3790
     50 C         -17.5043   -7.6972   -4.5918 C.3     1  UNL1        0.1733
     51 O         -16.8535   -6.5762   -4.0516 O.3     1  UNL1       -0.3793
     52 C         -18.4139   -7.2604   -5.7435 C.3     1  UNL1        0.2106
     53 O         -17.6560   -6.6360   -6.7494 O.3     1  UNL1       -0.3766
     54 H         -17.1151   -9.8801   -3.2087 H       1  UNL1        0.2106
     55 H         -16.0969   -6.9198   -3.5083 H       1  UNL1        0.2105
     56 H         -17.5207   -5.6930   -6.4699 H       1  UNL1        0.2107
     57 C         -20.8745   -8.7426   -3.9461 C.2     1  UNL1        0.3439
     58 O         -21.1442   -7.9041   -3.0440 O.2     1  UNL1       -0.2475
     59 O         -21.8681   -9.1329   -4.8386 O.3     1  UNL1       -0.4785
     60 H         -22.8081   -8.7630   -4.7638 H       1  UNL1        0.2951
@<TRIPOS>BOND
     1     9    10    1
     2    10     1    1
     3     1     2   ar
     4     2     3    1
     5     2     4   ar
     6     4    11    1
     7    11    12    1
     8    12    13   ar
     9    13    14   ar
    10    14    15   ar
    11    15    18    1
    12    18    19    2
    13    18    20   am
    14    20    22    1
    15    22    23    1
    16    22    24    1
    17    22    25    1
    18    15    16   ar
    19    16    17   ar
    20    17    26    1
    21    26    28    1
    22    28    29    2
    23    28    30    2
    24    28    31    1
    25    31    32   ar
    26    32    33   ar
    27    33    34   ar
    28    34    38    1
    29    38    39    1
    30    39    40    1
    31    34    35   ar
    32    35    36   ar
    33    36    37    1
    34     4     5   ar
    35     5     6   ar
    36     6     7    1
    37     6     8   ar
    38     8    41    1
    39    41    42    1
    40    42    43    2
    41    42    44    1
    42    44    45    1
    43    45    46    1
    44    46    47    1
    45    47    57    1
    46    57    58    2
    47    57    59    1
    48    47    48    1
    49    48    49    1
    50    48    50    1
    51    50    51    1
    52    50    52    1
    53    52    53    1
    54     8     1   ar
    55    52    45    1
    56    17    12   ar
    57    36    31   ar
    58    40    38    1
    59    20    21    1
    60    26    27    1
    61    59    60    1
    62    49    54    1
    63    51    55    1
    64    53    56    1
@<TRIPOS>MOLECULE
*****
 60 64 0 0 0
SMALL
GASTEIGER

@<TRIPOS>ATOM
      1 C         -23.5194   -7.6652  -14.4341 C.ar    1  UNL1       -0.0099
      2 C         -22.1876   -7.7655  -13.9505 C.ar    1  UNL1        0.0880
      3 CL        -20.8730   -8.2683  -15.0238 Cl      1  UNL1       -0.0794
      4 C         -21.8902   -7.4162  -12.6162 C.ar    1  UNL1        0.1577
      5 C         -22.8838   -6.8741  -11.8068 C.ar    1  UNL1        0.0676
      6 C         -24.1931   -6.7666  -12.2619 C.ar    1  UNL1        0.1395
      7 F         -25.1286   -6.2584  -11.4189 F       1  UNL1       -0.2044
      8 C         -24.5425   -7.1932  -13.5575 C.ar    1  UNL1        0.0135
      9 C         -22.9800   -7.1505  -16.8394 C.3     1  UNL1        0.0050
     10 C         -23.8100   -8.0111  -15.8871 C.3     1  UNL1        0.0271
     11 O         -20.6131   -7.5854  -12.0599 O.3     1  UNL1       -0.4513
     12 C         -20.3494   -7.8379  -10.7034 C.ar    1  UNL1        0.1598
     13 C         -20.6385   -6.8259   -9.7830 C.ar    1  UNL1        0.0390
     14 C         -20.3307   -6.9818   -8.4307 C.ar    1  UNL1        0.0077
     15 C         -19.7297   -8.1639   -7.9695 C.ar    1  UNL1        0.0548
     16 C         -19.4838   -9.2023   -8.8828 C.ar    1  UNL1        0.0235
     17 C         -19.8016   -9.0592  -10.2435 C.ar    1  UNL1        0.0993
     18 C         -19.3986   -8.3433   -6.5353 C.2     1  UNL1        0.2458
     19 O         -20.3346   -8.5135   -5.7083 O.2     1  UNL1       -0.2701
     20 N         -18.0277   -8.3477   -6.0891 N.am    1  UNL1       -0.3040
     21 H         -17.2873   -8.4311   -6.8221 H       1  UNL1        0.1496
     22 C         -17.5995   -8.2617   -4.6784 C.3     1  UNL1        0.0572
     23 C         -16.0818   -8.0062   -4.5953 C.3     1  UNL1        0.0196
     24 C         -17.9667   -9.5581   -3.9299 C.3     1  UNL1        0.0196
     25 C         -18.3312   -7.0836   -4.0024 C.3     1  UNL1        0.0196
     26 N         -19.6362  -10.1725  -11.1330 N.pl3   1  UNL1       -0.2120
     27 H         -18.8002  -10.2165  -11.7563 H       1  UNL1        0.1738
     28 S         -20.7051  -11.5376  -11.1141 S.O2    1  UNL1        0.0745
     29 O         -21.5882  -11.4485   -9.9006 O.2     1  UNL1       -0.1499
     30 O         -19.8820  -12.7919  -11.0297 O.2     1  UNL1       -0.1499
     31 C         -21.6947  -11.5809  -12.5777 C.ar    1  UNL1        0.1356
     32 C         -21.1899  -12.1861  -13.7365 C.ar    1  UNL1        0.0207
     33 C         -21.9479  -12.2235  -14.9085 C.ar    1  UNL1       -0.0028
     34 C         -23.2392  -11.6584  -14.9447 C.ar    1  UNL1       -0.0216
     35 C         -23.7446  -11.0643  -13.7780 C.ar    1  UNL1        0.0085
     36 C         -22.9877  -11.0235  -12.6014 C.ar    1  UNL1        0.0762
     37 CL        -23.7026  -10.2728  -11.1781 Cl      1  UNL1       -0.0809
     38 C         -24.1254  -11.6556  -16.1794 C.3     1  UNL1        0.0224
     39 C         -24.1334  -12.9138  -17.0370 C.3     1  UNL1        0.0047
     40 C         -23.4318  -11.6561  -17.5350 C.3     1  UNL1        0.0047
     41 C         -26.0029   -7.1234  -13.9641 C.3     1  UNL1        0.1379
     42 C         -26.4262   -5.7156  -14.2323 C.2     1  UNL1        0.3234
     43 O         -26.2832   -4.8362  -13.3393 O.2     1  UNL1       -0.2497
     44 O         -26.9812   -5.3907  -15.4735 O.3     1  UNL1       -0.4215
     45 C         -26.5086   -4.3154  -16.2838 C.3     1  UNL1        0.3207
     46 O         -27.2654   -3.1336  -16.0303 O.3     1  UNL1       -0.3070
     47 C         -28.4818   -3.0686  -16.7598 C.3     1  UNL1        0.2456
     48 C         -28.2390   -3.0377  -18.3020 C.3     1  UNL1        0.1781
     49 O         -28.4097   -1.7364  -18.8093 O.3     1  UNL1       -0.3790
     50 C         -26.8371   -3.5692  -18.6745 C.3     1  UNL1        0.1733
     51 O         -26.8192   -3.9779  -20.0179 O.3     1  UNL1       -0.3793
     52 C         -26.4804   -4.7525  -17.7705 C.3     1  UNL1        0.2106
     53 O         -25.2001   -5.2374  -18.0897 O.3     1  UNL1       -0.3766
     54 H         -27.7584   -1.1456  -18.3472 H       1  UNL1        0.2106
     55 H         -26.7896   -3.1514  -20.5672 H       1  UNL1        0.2105
     56 H         -25.3027   -5.8388  -18.8729 H       1  UNL1        0.2107
     57 C         -29.4652   -4.1207  -16.2961 C.2     1  UNL1        0.3439
     58 O         -30.2155   -4.7195  -17.1136 O.2     1  UNL1       -0.2475
     59 O         -29.4975   -4.4736  -14.9506 O.3     1  UNL1       -0.4785
     60 H         -30.1258   -5.1949  -14.6175 H       1  UNL1        0.2951
@<TRIPOS>BOND
     1     9    10    1
     2    10     1    1
     3     1     2   ar
     4     2     3    1
     5     2     4   ar
     6     4    11    1
     7    11    12    1
     8    12    13   ar
     9    13    14   ar
    10    14    15   ar
    11    15    18    1
    12    18    19    2
    13    18    20   am
    14    20    22    1
    15    22    23    1
    16    22    24    1
    17    22    25    1
    18    15    16   ar
    19    16    17   ar
    20    17    26    1
    21    26    28    1
    22    28    29    2
    23    28    30    2
    24    28    31    1
    25    31    32   ar
    26    32    33   ar
    27    33    34   ar
    28    34    38    1
    29    38    39    1
    30    39    40    1
    31    34    35   ar
    32    35    36   ar
    33    36    37    1
    34     4     5   ar
    35     5     6   ar
    36     6     7    1
    37     6     8   ar
    38     8    41    1
    39    41    42    1
    40    42    43    2
    41    42    44    1
    42    44    45    1
    43    45    46    1
    44    46    47    1
    45    47    57    1
    46    57    58    2
    47    57    59    1
    48    47    48    1
    49    48    49    1
    50    48    50    1
    51    50    51    1
    52    50    52    1
    53    52    53    1
    54     8     1   ar
    55    52    45    1
    56    17    12   ar
    57    36    31   ar
    58    40    38    1
    59    20    21    1
    60    26    27    1
    61    59    60    1
    62    49    54    1
    63    51    55    1
    64    53    56    1
@<TRIPOS>MOLECULE
*****
 60 64 0 0 0
SMALL
GASTEIGER

@<TRIPOS>ATOM
      1 C         -22.2777   -6.9699  -10.1340 C.ar    1  UNL1       -0.0099
      2 C         -23.3489   -7.0030  -11.0661 C.ar    1  UNL1        0.0880
      3 CL        -24.0879   -5.5027  -11.6456 Cl      1  UNL1       -0.0794
      4 C         -23.8038   -8.2362  -11.5792 C.ar    1  UNL1        0.1577
      5 C         -23.1327   -9.4101  -11.2507 C.ar    1  UNL1        0.0676
      6 C         -22.0812   -9.3986  -10.3412 C.ar    1  UNL1        0.1395
      7 F         -21.4820  -10.5778  -10.0340 F       1  UNL1       -0.2044
      8 C         -21.6627   -8.1963   -9.7394 C.ar    1  UNL1        0.0135
      9 C         -21.0698   -4.8412  -10.7265 C.3     1  UNL1        0.0050
     10 C         -21.7789   -5.6262   -9.6232 C.3     1  UNL1        0.0271
     11 O         -24.9172   -8.3346  -12.4276 O.3     1  UNL1       -0.4513
     12 C         -25.3850   -7.3115  -13.2689 C.ar    1  UNL1        0.1598
     13 C         -26.6100   -6.7161  -12.9534 C.ar    1  UNL1        0.0390
     14 C         -27.1689   -5.7474  -13.7884 C.ar    1  UNL1        0.0077
     15 C         -26.5049   -5.3487  -14.9595 C.ar    1  UNL1        0.0548
     16 C         -25.2505   -5.9082  -15.2535 C.ar    1  UNL1        0.0235
     17 C         -24.6745   -6.8747  -14.4125 C.ar    1  UNL1        0.0993
     18 C         -27.0865   -4.3198  -15.8549 C.2     1  UNL1        0.2458
     19 O         -26.5121   -3.2023  -15.9563 O.2     1  UNL1       -0.2701
     20 N         -28.2777   -4.5942  -16.6191 N.am    1  UNL1       -0.3040
     21 H         -28.5868   -5.5909  -16.6801 H       1  UNL1        0.1496
     22 C         -29.0759   -3.5766  -17.3318 C.3     1  UNL1        0.0572
     23 C         -28.1992   -2.8317  -18.3575 C.3     1  UNL1        0.0196
     24 C         -29.6894   -2.5811  -16.3276 C.3     1  UNL1        0.0196
     25 C         -30.2238   -4.2775  -18.0876 C.3     1  UNL1        0.0196
     26 N         -23.3484   -7.3513  -14.6812 N.pl3   1  UNL1       -0.2120
     27 H         -22.5822   -7.1604  -13.9987 H       1  UNL1        0.1738
     28 S         -22.9890   -8.3679  -16.0390 S.O2    1  UNL1        0.0745
     29 O         -21.5147   -8.2963  -16.3249 O.2     1  UNL1       -0.1499
     30 O         -23.7447   -7.8593  -17.2341 O.2     1  UNL1       -0.1499
     31 C         -23.4593  -10.0401  -15.7138 C.ar    1  UNL1        0.1356
     32 C         -23.7303  -10.4392  -14.3980 C.ar    1  UNL1        0.0207
     33 C         -24.0930  -11.7573  -14.1140 C.ar    1  UNL1       -0.0028
     34 C         -24.2002  -12.7096  -15.1483 C.ar    1  UNL1       -0.0216
     35 C         -23.9395  -12.3015  -16.4655 C.ar    1  UNL1        0.0085
     36 C         -23.5744  -10.9817  -16.7547 C.ar    1  UNL1        0.0762
     37 CL        -23.2797  -10.5494  -18.4359 Cl      1  UNL1       -0.0809
     38 C         -24.5863  -14.1620  -14.9223 C.3     1  UNL1        0.0224
     39 C         -23.6268  -15.2281  -15.4336 C.3     1  UNL1        0.0047
     40 C         -24.9495  -14.9857  -16.1504 C.3     1  UNL1        0.0047
     41 C         -20.5634   -8.2638   -8.6954 C.3     1  UNL1        0.1379
     42 C         -21.1253   -8.4726   -7.3265 C.2     1  UNL1        0.3234
     43 O         -22.3074   -8.8914   -7.1905 O.2     1  UNL1       -0.2497
     44 O         -20.3315   -8.1962   -6.2096 O.3     1  UNL1       -0.4215
     45 C         -18.9427   -8.5164   -6.1391 C.3     1  UNL1        0.3207
     46 O         -18.7288   -9.6001   -5.2371 O.3     1  UNL1       -0.3070
     47 C         -18.6439   -9.2010   -3.8771 C.3     1  UNL1        0.2456
     48 C         -17.4315   -8.2511   -3.6200 C.3     1  UNL1        0.1781
     49 O         -16.3773   -8.9430   -2.9958 O.3     1  UNL1       -0.3790
     50 C         -16.9304   -7.5919   -4.9242 C.3     1  UNL1        0.1733
     51 O         -16.2037   -6.4278   -4.6261 O.3     1  UNL1       -0.3793
     52 C         -18.1263   -7.2399   -5.8132 C.3     1  UNL1        0.2106
     53 O         -17.6834   -6.6515   -7.0107 O.3     1  UNL1       -0.3766
     54 H         -16.1090   -9.6874   -3.5963 H       1  UNL1        0.2106
     55 H         -15.3185   -6.7230   -4.2870 H       1  UNL1        0.2105
     56 H         -17.5155   -5.6919   -6.8195 H       1  UNL1        0.2107
     57 C         -19.9706   -8.6847   -3.3651 C.2     1  UNL1        0.3439
     58 O         -20.0327   -7.6740   -2.6139 O.2     1  UNL1       -0.2475
     59 O         -21.1456   -9.3030   -3.7810 O.3     1  UNL1       -0.4785
     60 H         -22.0489   -8.9603   -3.4766 H       1  UNL1        0.2951
@<TRIPOS>BOND
     1     9    10    1
     2    10     1    1
     3     1     2   ar
     4     2     3    1
     5     2     4   ar
     6     4    11    1
     7    11    12    1
     8    12    13   ar
     9    13    14   ar
    10    14    15   ar
    11    15    18    1
    12    18    19    2
    13    18    20   am
    14    20    22    1
    15    22    23    1
    16    22    24    1
    17    22    25    1
    18    15    16   ar
    19    16    17   ar
    20    17    26    1
    21    26    28    1
    22    28    29    2
    23    28    30    2
    24    28    31    1
    25    31    32   ar
    26    32    33   ar
    27    33    34   ar
    28    34    38    1
    29    38    39    1
    30    39    40    1
    31    34    35   ar
    32    35    36   ar
    33    36    37    1
    34     4     5   ar
    35     5     6   ar
    36     6     7    1
    37     6     8   ar
    38     8    41    1
    39    41    42    1
    40    42    43    2
    41    42    44    1
    42    44    45    1
    43    45    46    1
    44    46    47    1
    45    47    57    1
    46    57    58    2
    47    57    59    1
    48    47    48    1
    49    48    49    1
    50    48    50    1
    51    50    51    1
    52    50    52    1
    53    52    53    1
    54     8     1   ar
    55    52    45    1
    56    17    12   ar
    57    36    31   ar
    58    40    38    1
    59    20    21    1
    60    26    27    1
    61    59    60    1
    62    49    54    1
    63    51    55    1
    64    53    56    1
