@<TRIPOS>MOLECULE
*****
 44 48 0 0 0
SMALL
GASTEIGER

@<TRIPOS>ATOM
      1 C          -7.5126  -11.3238   30.1244 C.3     1  UNL1        0.1712
      2 C          -6.7291  -10.3406   29.2461 C.3     1  UNL1        0.1369
      3 CL         -4.9586  -10.6117   29.3559 Cl      1  UNL1       -0.1098
      4 C          -7.2100   -8.9317   29.6701 C.3     1  UNL1        0.1431
      5 O          -7.2478   -8.0948   28.5377 O.3     1  UNL1       -0.3796
      6 C          -8.6540   -9.1866   30.1565 C.3     1  UNL1        0.1277
      7 N          -8.6936  -10.5837   30.5591 N.am    1  UNL1       -0.2532
      8 C          -9.8085  -11.1486   31.2735 C.2     1  UNL1        0.3081
      9 O         -10.9328  -10.5858   31.1909 O.2     1  UNL1       -0.2522
     10 N          -9.6484  -12.3549   32.0454 N.am    1  UNL1       -0.2681
     11 H          -7.6647   -7.2368   28.8167 H       1  UNL1        0.2108
     12 H          -8.6920  -12.7701   32.0995 H       1  UNL1        0.1564
     13 C          -6.3154   -8.3294   30.7752 C.ar    1  UNL1        0.0322
     14 C          -5.9048   -9.1092   31.8815 C.ar    1  UNL1        0.0026
     15 C          -5.0609   -8.5798   32.8604 C.ar    1  UNL1        0.0295
     16 C          -4.5887   -7.2735   32.7473 C.ar    1  UNL1        0.1424
     17 F          -3.7661   -6.7643   33.6973 F       1  UNL1       -0.2041
     18 C          -4.9480   -6.4976   31.6460 C.ar    1  UNL1        0.0590
     19 C          -5.7922   -7.0169   30.6591 C.ar    1  UNL1        0.1406
     20 F          -6.0648   -6.2400   29.5805 F       1  UNL1       -0.2044
     21 C         -10.7304  -13.1440   32.5779 C.ar    1  UNL1        0.0516
     22 C         -11.6229  -13.7639   31.6876 C.ar    1  UNL1        0.0156
     23 C         -12.7058  -14.5062   32.1656 C.ar    1  UNL1        0.0127
     24 C         -12.8946  -14.6623   33.5409 C.ar    1  UNL1        0.0578
     25 CL        -14.2640  -15.5799   34.1402 Cl      1  UNL1       -0.0822
     26 C         -11.9836  -14.0957   34.4369 C.ar    1  UNL1        0.0127
     27 C         -10.8999  -13.3500   33.9611 C.ar    1  UNL1        0.0156
     28 O          -9.0920  -12.7369   29.0130 O.2     1  UNL1       -0.2729
     29 C          -7.8913  -12.5638   29.3536 C.2     1  UNL1        0.2466
     30 N          -6.9102  -13.5764   29.0849 N.am    1  UNL1       -0.2680
     31 H          -6.1739  -13.7335   29.8098 H       1  UNL1        0.1563
     32 C          -6.7067  -14.1920   27.8011 C.ar    1  UNL1        0.1346
     33 C          -7.6583  -15.0495   27.2210 C.ar    1  UNL1        0.0406
     34 C          -7.4491  -15.5400   25.9320 C.ar    1  UNL1        0.0736
     35 C          -6.2943  -15.1874   25.2224 C.ar    1  UNL1        0.2466
     36 C          -5.3597  -14.3446   25.8397 C.ar    1  UNL1        0.1691
     37 N          -5.5895  -13.8697   27.0924 N.ar    1  UNL1       -0.2228
     38 N          -6.0955  -15.6465   23.8705 N.am    1  UNL1       -0.0841
     39 C          -5.0925  -16.5445   23.6208 C.2     1  UNL1        0.2905
     40 C          -4.8713  -17.0251   22.3291 C.2     1  UNL1        0.0758
     41 C          -5.6812  -16.5823   21.2864 C.2     1  UNL1        0.0161
     42 C          -6.6982  -15.6649   21.5430 C.2     1  UNL1        0.1156
     43 C          -6.8951  -15.1982   22.8474 C.2     1  UNL1        0.4230
     44 O          -7.8055  -14.3519   23.0638 O.2     1  UNL1       -0.2135
@<TRIPOS>BOND
     1    28    29    2
     2    29    30   am
     3    30    32    1
     4    32    33   ar
     5    33    34   ar
     6    34    35   ar
     7    35    38    1
     8    38    39    1
     9    39    40    2
    10    40    41    1
    11    41    42    2
    12    42    43    1
    13    43    44    2
    14    35    36   ar
    15    36    37   ar
    16    29     1    1
    17     1     2    1
    18     2     3    1
    19     2     4    1
    20     4     5    1
    21     4    13    1
    22    13    14   ar
    23    14    15   ar
    24    15    16   ar
    25    16    17    1
    26    16    18   ar
    27    18    19   ar
    28    19    20    1
    29     4     6    1
    30     6     7    1
    31     7     8   am
    32     8     9    2
    33     8    10   am
    34    10    21    1
    35    21    22   ar
    36    22    23   ar
    37    23    24   ar
    38    24    25    1
    39    24    26   ar
    40    26    27   ar
    41    37    32   ar
    42     7     1    1
    43    27    21   ar
    44    43    38    1
    45    19    13   ar
    46    30    31    1
    47     5    11    1
    48    10    12    1
@<TRIPOS>MOLECULE
*****
 44 48 0 0 0
SMALL
GASTEIGER

@<TRIPOS>ATOM
      1 C          -7.8734  -11.6682   30.0950 C.3     1  UNL1        0.1712
      2 C          -6.9670  -10.7465   29.2699 C.3     1  UNL1        0.1369
      3 CL         -5.2287  -11.0845   29.5607 Cl      1  UNL1       -0.1098
      4 C          -7.4256   -9.3064   29.6039 C.3     1  UNL1        0.1431
      5 O          -7.3176   -8.5062   28.4497 O.3     1  UNL1       -0.3796
      6 C          -8.9196   -9.4872   29.9534 C.3     1  UNL1        0.1277
      7 N          -9.0580  -10.8676   30.3902 N.am    1  UNL1       -0.2532
      8 C         -10.2602  -11.3637   31.0077 C.2     1  UNL1        0.3081
      9 O         -11.3459  -10.7594   30.7991 O.2     1  UNL1       -0.2522
     10 N         -10.2276  -12.5494   31.8261 N.am    1  UNL1       -0.2681
     11 H          -7.7221   -7.6235   28.6616 H       1  UNL1        0.2108
     12 H          -9.2997  -13.0005   31.9857 H       1  UNL1        0.1564
     13 C          -6.6171   -8.7043   30.7736 C.ar    1  UNL1        0.0322
     14 C          -5.4460   -7.9486   30.5328 C.ar    1  UNL1        0.0026
     15 C          -4.7365   -7.3670   31.5860 C.ar    1  UNL1        0.0295
     16 C          -5.1896   -7.5042   32.8968 C.ar    1  UNL1        0.1424
     17 F          -4.5008   -6.9347   33.9163 F       1  UNL1       -0.2041
     18 C          -6.3627   -8.2117   33.1562 C.ar    1  UNL1        0.0590
     19 C          -7.0820   -8.7982   32.1096 C.ar    1  UNL1        0.1406
     20 F          -8.2463   -9.4268   32.4106 F       1  UNL1       -0.2044
     21 C         -11.3890  -13.2766   32.2722 C.ar    1  UNL1        0.0516
     22 C         -12.6080  -13.0915   31.5990 C.ar    1  UNL1        0.0156
     23 C         -13.7643  -13.7502   32.0247 C.ar    1  UNL1        0.0127
     24 C         -13.7111  -14.6251   33.1124 C.ar    1  UNL1        0.0578
     25 CL        -15.1667  -15.4382   33.6568 Cl      1  UNL1       -0.0822
     26 C         -12.4936  -14.8594   33.7577 C.ar    1  UNL1        0.0127
     27 C         -11.3348  -14.1995   33.3352 C.ar    1  UNL1        0.0156
     28 O          -9.4310  -13.1296   29.0157 O.2     1  UNL1       -0.2729
     29 C          -8.2287  -12.9167   29.3268 C.2     1  UNL1        0.2466
     30 N          -7.2204  -13.8934   29.0273 N.am    1  UNL1       -0.2680
     31 H          -6.4608  -14.0285   29.7324 H       1  UNL1        0.1563
     32 C          -7.0286  -14.4951   27.7352 C.ar    1  UNL1        0.1346
     33 C          -8.0083  -15.3028   27.1309 C.ar    1  UNL1        0.0406
     34 C          -7.8056  -15.7798   25.8359 C.ar    1  UNL1        0.0736
     35 C          -6.6299  -15.4631   25.1439 C.ar    1  UNL1        0.2466
     36 C          -5.6682  -14.6699   25.7849 C.ar    1  UNL1        0.1691
     37 N          -5.8917  -14.2071   27.0433 N.ar    1  UNL1       -0.2228
     38 N          -6.4357  -15.9072   23.7864 N.am    1  UNL1       -0.0841
     39 C          -7.4747  -15.7948   22.9018 C.2     1  UNL1        0.2905
     40 C          -7.3280  -16.2012   21.5745 C.2     1  UNL1        0.0758
     41 C          -6.1103  -16.7273   21.1508 C.2     1  UNL1        0.0161
     42 C          -5.0562  -16.8446   22.0546 C.2     1  UNL1        0.1156
     43 C          -5.2329  -16.4316   23.3798 C.2     1  UNL1        0.4230
     44 O          -4.2780  -16.5622   24.1941 O.2     1  UNL1       -0.2135
@<TRIPOS>BOND
     1    28    29    2
     2    29    30   am
     3    30    32    1
     4    32    33   ar
     5    33    34   ar
     6    34    35   ar
     7    35    38    1
     8    38    39    1
     9    39    40    2
    10    40    41    1
    11    41    42    2
    12    42    43    1
    13    43    44    2
    14    35    36   ar
    15    36    37   ar
    16    29     1    1
    17     1     2    1
    18     2     3    1
    19     2     4    1
    20     4     5    1
    21     4    13    1
    22    13    14   ar
    23    14    15   ar
    24    15    16   ar
    25    16    17    1
    26    16    18   ar
    27    18    19   ar
    28    19    20    1
    29     4     6    1
    30     6     7    1
    31     7     8   am
    32     8     9    2
    33     8    10   am
    34    10    21    1
    35    21    22   ar
    36    22    23   ar
    37    23    24   ar
    38    24    25    1
    39    24    26   ar
    40    26    27   ar
    41    37    32   ar
    42     7     1    1
    43    27    21   ar
    44    43    38    1
    45    19    13   ar
    46    30    31    1
    47     5    11    1
    48    10    12    1
