@<TRIPOS>MOLECULE
*****
 52 59 0 0 0
SMALL
GASTEIGER

@<TRIPOS>ATOM
      1 N          58.6400   83.2043   10.0131 N.am    1  UNL1       -0.0906
      2 C          57.3725   82.7131   10.2229 C.2     1  UNL1        0.4229
      3 O          56.3538   83.3996    9.9306 O.2     1  UNL1       -0.2135
      4 C          57.1806   81.4321   10.7240 C.2     1  UNL1        0.1157
      5 C          58.2694   80.6018   10.9232 C.2     1  UNL1        0.0169
      6 C          59.5739   81.0774   10.7126 C.ar    1  UNL1        0.0773
      7 C          60.7059   80.2261   10.8128 C.ar    1  UNL1        0.0642
      8 N          61.9462   80.7658   10.7068 N.ar    1  UNL1       -0.2493
      9 C          62.1667   82.0886   10.5373 C.ar    1  UNL1        0.0866
     10 C          63.4846   82.5536   10.5141 C.ar    1  UNL1        0.0193
     11 C          63.7486   83.9199   10.4687 C.ar    1  UNL1        0.0016
     12 C          62.6949   84.8436   10.4950 C.ar    1  UNL1        0.0018
     13 C          61.3705   84.3704   10.5115 C.ar    1  UNL1        0.0075
     14 C          61.0802   82.9879   10.4396 C.ar    1  UNL1        0.0810
     15 C          59.7513   82.4550   10.3847 C.ar    1  UNL1        0.2293
     16 C          62.9721   86.3024   10.5206 C.ar    1  UNL1        0.0192
     17 C          62.8694   87.0698    9.3476 C.ar    1  UNL1        0.0988
     18 N          63.1256   88.4041    9.3704 N.ar    1  UNL1       -0.2438
     19 C          63.4841   89.0460   10.5126 C.ar    1  UNL1        0.0813
     20 C          63.7374   90.4223   10.4952 C.ar    1  UNL1        0.0191
     21 C          64.1052   91.0803   11.6730 C.ar    1  UNL1        0.0015
     22 C          64.2209   90.3666   12.8705 C.ar    1  UNL1        0.0001
     23 C          63.9700   88.9907   12.8969 C.ar    1  UNL1        0.0015
     24 C          63.6014   88.3228   11.7192 C.ar    1  UNL1        0.0177
     25 C          63.3433   86.9464   11.7135 C.ar    1  UNL1        0.0030
     26 C          59.7212   88.0477    9.5878 C.3     1  UNL1        0.0312
     27 C          59.2747   86.7623    8.9416 C.ar    1  UNL1       -0.0159
     28 C          59.1795   85.6072    9.7354 C.ar    1  UNL1        0.0648
     29 C          58.7575   84.3858    9.1848 C.ar    1  UNL1        0.2268
     30 C          58.4218   84.3268    7.8259 C.ar    1  UNL1        0.0691
     31 C          58.5310   85.4610    7.0216 C.ar    1  UNL1        0.0058
     32 C          58.9711   86.6820    7.5589 C.ar    1  UNL1       -0.0036
     33 C          59.1075   87.8454    6.6517 C.ar    1  UNL1       -0.0003
     34 C          60.3743   88.2355    6.1927 C.ar    1  UNL1        0.0001
     35 C          60.5130   89.3445    5.3530 C.ar    1  UNL1        0.0045
     36 C          59.3863   90.0937    4.9683 C.ar    1  UNL1        0.0534
     37 C          58.1185   89.6989    5.4302 C.ar    1  UNL1        0.0045
     38 C          57.9818   88.5903    6.2694 C.ar    1  UNL1        0.0001
     39 C          59.5175   91.2695    4.0745 C.2     1  UNL1        0.2458
     40 O          59.4014   92.4292    4.5581 O.2     1  UNL1       -0.2701
     41 N          59.7922   91.1079    2.6728 N.am    1  UNL1       -0.3024
     42 H          60.1616   90.1903    2.3358 H       1  UNL1        0.1497
     43 C          59.8281   92.2439    1.7483 C.3     1  UNL1        0.0746
     44 C          61.2736   92.7185    1.5612 C.3     1  UNL1        0.0369
     45 C          61.3460   93.8478    0.5206 C.3     1  UNL1        0.0738
     46 N          60.7290   93.4778   -0.7711 N.3     1  UNL1       -0.2714
     47 C          61.5667   92.5542   -1.5551 C.3     1  UNL1        0.0896
     48 C          59.3407   92.9940   -0.6147 C.3     1  UNL1        0.0738
     49 C          59.2222   91.8430    0.3973 C.3     1  UNL1        0.0369
     50 C          60.6015   78.7293   11.0732 C.3     1  UNL1        0.0405
     51 C          61.6396   77.9341   10.2662 C.3     1  UNL1        0.0063
     52 C          60.7629   78.4431   12.5701 C.3     1  UNL1        0.0063
@<TRIPOS>BOND
     1    26    27    1
     2    27    28   ar
     3    28    29   ar
     4    29     1    1
     5     1     2    1
     6     2     3    2
     7     2     4    1
     8     4     5    2
     9     5     6    1
    10     6     7   ar
    11     7    50    1
    12    50    51    1
    13    50    52    1
    14     7     8   ar
    15     8     9   ar
    16     9    10   ar
    17    10    11   ar
    18    11    12   ar
    19    12    16    1
    20    16    17   ar
    21    17    18   ar
    22    18    19   ar
    23    19    20   ar
    24    20    21   ar
    25    21    22   ar
    26    22    23   ar
    27    23    24   ar
    28    24    25   ar
    29    12    13   ar
    30    13    14   ar
    31    14    15   ar
    32    29    30   ar
    33    30    31   ar
    34    31    32   ar
    35    32    33    1
    36    33    34   ar
    37    34    35   ar
    38    35    36   ar
    39    36    39    1
    40    39    40    2
    41    39    41   am
    42    41    43    1
    43    43    44    1
    44    44    45    1
    45    45    46    1
    46    46    47    1
    47    46    48    1
    48    48    49    1
    49    36    37   ar
    50    37    38   ar
    51    32    27   ar
    52    38    33   ar
    53    15     1    1
    54    49    43    1
    55    15     6   ar
    56    14     9   ar
    57    25    16   ar
    58    24    19   ar
    59    41    42    1
@<TRIPOS>MOLECULE
*****
 52 59 0 0 0
SMALL
GASTEIGER

@<TRIPOS>ATOM
      1 N          58.7962   82.3200   10.1296 N.am    1  UNL1       -0.0906
      2 C          57.5703   81.6973   10.0937 C.2     1  UNL1        0.4229
      3 O          56.5489   82.2995    9.6594 O.2     1  UNL1       -0.2135
      4 C          57.4327   80.3752   10.4963 C.2     1  UNL1        0.1157
      5 C          58.5536   79.6426   10.8447 C.2     1  UNL1        0.0169
      6 C          59.8175   80.2534   10.8855 C.ar    1  UNL1        0.0773
      7 C          60.9997   79.5103   11.1432 C.ar    1  UNL1        0.0642
      8 N          62.1763   80.1721   11.2787 N.ar    1  UNL1       -0.2493
      9 C          62.2817   81.5180   11.2091 C.ar    1  UNL1        0.0866
     10 C          63.5282   82.1080   11.4362 C.ar    1  UNL1        0.0193
     11 C          63.6508   83.4935   11.4983 C.ar    1  UNL1        0.0016
     12 C          62.5164   84.3083   11.3819 C.ar    1  UNL1        0.0018
     13 C          61.2655   83.7099   11.1468 C.ar    1  UNL1        0.0075
     14 C          61.1386   82.3131   10.9641 C.ar    1  UNL1        0.0810
     15 C          59.9016   81.6594   10.6552 C.ar    1  UNL1        0.2293
     16 C          62.6302   85.7826   11.5203 C.ar    1  UNL1        0.0192
     17 C          62.5925   86.3860   12.7891 C.ar    1  UNL1        0.0988
     18 N          62.6939   87.7352   12.9158 N.ar    1  UNL1       -0.2438
     19 C          62.8373   88.5479   11.8368 C.ar    1  UNL1        0.0813
     20 C          62.9407   89.9328   12.0092 C.ar    1  UNL1        0.0191
     21 C          63.0893   90.7666   10.8964 C.ar    1  UNL1        0.0015
     22 C          63.1350   90.2202    9.6094 C.ar    1  UNL1        0.0001
     23 C          63.0320   88.8371    9.4279 C.ar    1  UNL1        0.0015
     24 C          62.8816   87.9937   10.5393 C.ar    1  UNL1        0.0177
     25 C          62.7763   86.6052   10.3901 C.ar    1  UNL1        0.0030
     26 C          59.4395   87.2590   10.1140 C.3     1  UNL1        0.0312
     27 C          59.2347   85.9807    9.3439 C.ar    1  UNL1       -0.0159
     28 C          59.1292   84.7748   10.0567 C.ar    1  UNL1        0.0648
     29 C          58.9265   83.5563    9.3877 C.ar    1  UNL1        0.2268
     30 C          58.8224   83.5511    7.9906 C.ar    1  UNL1        0.0691
     31 C          58.9455   84.7383    7.2690 C.ar    1  UNL1        0.0058
     32 C          59.1681   85.9587    7.9277 C.ar    1  UNL1       -0.0036
     33 C          59.3315   87.1838    7.1105 C.ar    1  UNL1       -0.0003
     34 C          60.6102   87.7154    6.8869 C.ar    1  UNL1        0.0001
     35 C          60.7704   88.8823    6.1341 C.ar    1  UNL1        0.0045
     36 C          59.6512   89.5481    5.6024 C.ar    1  UNL1        0.0534
     37 C          58.3715   89.0114    5.8285 C.ar    1  UNL1        0.0045
     38 C          58.2132   87.8451    6.5812 C.ar    1  UNL1        0.0001
     39 C          59.8061   90.7841    4.7981 C.2     1  UNL1        0.2458
     40 O          59.1775   91.8245    5.1369 O.2     1  UNL1       -0.2701
     41 N          60.6735   90.8188    3.6524 N.am    1  UNL1       -0.3024
     42 H          61.3916   90.0676    3.5430 H       1  UNL1        0.1497
     43 C          60.7701   91.9932    2.7817 C.3     1  UNL1        0.0746
     44 C          62.1928   92.1128    2.2235 C.3     1  UNL1        0.0369
     45 C          62.2921   93.2826    1.2311 C.3     1  UNL1        0.0738
     46 N          61.2925   93.1997    0.1449 N.3     1  UNL1       -0.2714
     47 C          61.6305   92.1767   -0.8594 C.3     1  UNL1        0.0896
     48 C          59.9128   93.0600    0.6579 C.3     1  UNL1        0.0738
     49 C          59.7575   91.8833    1.6347 C.3     1  UNL1        0.0369
     50 C          61.0111   77.9972   11.3146 C.3     1  UNL1        0.0405
     51 C          62.0193   77.3219   10.3719 C.3     1  UNL1        0.0063
     52 C          61.3235   77.6349   12.7706 C.3     1  UNL1        0.0063
@<TRIPOS>BOND
     1    26    27    1
     2    27    28   ar
     3    28    29   ar
     4    29     1    1
     5     1     2    1
     6     2     3    2
     7     2     4    1
     8     4     5    2
     9     5     6    1
    10     6     7   ar
    11     7    50    1
    12    50    51    1
    13    50    52    1
    14     7     8   ar
    15     8     9   ar
    16     9    10   ar
    17    10    11   ar
    18    11    12   ar
    19    12    16    1
    20    16    17   ar
    21    17    18   ar
    22    18    19   ar
    23    19    20   ar
    24    20    21   ar
    25    21    22   ar
    26    22    23   ar
    27    23    24   ar
    28    24    25   ar
    29    12    13   ar
    30    13    14   ar
    31    14    15   ar
    32    29    30   ar
    33    30    31   ar
    34    31    32   ar
    35    32    33    1
    36    33    34   ar
    37    34    35   ar
    38    35    36   ar
    39    36    39    1
    40    39    40    2
    41    39    41   am
    42    41    43    1
    43    43    44    1
    44    44    45    1
    45    45    46    1
    46    46    47    1
    47    46    48    1
    48    48    49    1
    49    36    37   ar
    50    37    38   ar
    51    32    27   ar
    52    38    33   ar
    53    15     1    1
    54    49    43    1
    55    15     6   ar
    56    14     9   ar
    57    25    16   ar
    58    24    19   ar
    59    41    42    1
@<TRIPOS>MOLECULE
*****
 52 59 0 0 0
SMALL
GASTEIGER

@<TRIPOS>ATOM
      1 N          58.9000   82.0178    9.9894 N.am    1  UNL1       -0.0906
      2 C          57.6907   81.3769    9.8513 C.2     1  UNL1        0.4229
      3 O          56.7009   81.9637    9.3314 O.2     1  UNL1       -0.2135
      4 C          57.5391   80.0533   10.2434 C.2     1  UNL1        0.1157
      5 C          58.6373   79.3376   10.6865 C.2     1  UNL1        0.0169
      6 C          59.8841   79.9671   10.8326 C.ar    1  UNL1        0.0773
      7 C          61.0512   79.2418   11.1905 C.ar    1  UNL1        0.0642
      8 N          62.2023   79.9211   11.4234 N.ar    1  UNL1       -0.2493
      9 C          62.2934   81.2683   11.3605 C.ar    1  UNL1        0.0866
     10 C          63.5075   81.8769   11.6907 C.ar    1  UNL1        0.0193
     11 C          63.6040   83.2641   11.7603 C.ar    1  UNL1        0.0016
     12 C          62.4716   84.0619   11.5471 C.ar    1  UNL1        0.0018
     13 C          61.2539   83.4449   11.2085 C.ar    1  UNL1        0.0075
     14 C          61.1635   82.0462   11.0184 C.ar    1  UNL1        0.0810
     15 C          59.9667   81.3740   10.6075 C.ar    1  UNL1        0.2293
     16 C          62.5516   85.5378   11.6918 C.ar    1  UNL1        0.0192
     17 C          62.5618   86.1312   12.9658 C.ar    1  UNL1        0.0988
     18 N          62.6324   87.4817   13.0984 N.ar    1  UNL1       -0.2438
     19 C          62.6982   88.3055   12.0203 C.ar    1  UNL1        0.0813
     20 C          62.7720   89.6916   12.1987 C.ar    1  UNL1        0.0191
     21 C          62.8408   90.5369   11.0868 C.ar    1  UNL1        0.0015
     22 C          62.8361   90.0009    9.7947 C.ar    1  UNL1        0.0001
     23 C          62.7621   88.6167    9.6072 C.ar    1  UNL1        0.0015
     24 C          62.6918   87.7617   10.7176 C.ar    1  UNL1        0.0177
     25 C          62.6173   86.3719   10.5625 C.ar    1  UNL1        0.0030
     26 C          61.7791   84.9820    7.2086 C.3     1  UNL1        0.0312
     27 C          60.4621   84.7371    7.8976 C.ar    1  UNL1       -0.0159
     28 C          60.2789   83.5286    8.5901 C.ar    1  UNL1        0.0648
     29 C          59.0742   83.2554    9.2588 C.ar    1  UNL1        0.2268
     30 C          58.0473   84.2082    9.2367 C.ar    1  UNL1        0.0691
     31 C          58.2081   85.4035    8.5362 C.ar    1  UNL1        0.0058
     32 C          59.4016   85.6770    7.8479 C.ar    1  UNL1       -0.0036
     33 C          59.5044   86.9439    7.0865 C.ar    1  UNL1       -0.0003
     34 C          58.3463   87.5710    6.6039 C.ar    1  UNL1        0.0001
     35 C          58.4368   88.7556    5.8672 C.ar    1  UNL1        0.0045
     36 C          59.6909   89.3277    5.5868 C.ar    1  UNL1        0.0534
     37 C          60.8491   88.6960    6.0730 C.ar    1  UNL1        0.0045
     38 C          60.7567   87.5121    6.8090 C.ar    1  UNL1        0.0001
     39 C          59.8022   90.5861    4.8106 C.2     1  UNL1        0.2458
     40 O          59.1271   91.5919    5.1641 O.2     1  UNL1       -0.2701
     41 N          60.6793   90.6817    3.6758 N.am    1  UNL1       -0.3024
     42 H          61.4294   89.9636    3.5587 H       1  UNL1        0.1497
     43 C          60.7357   91.8776    2.8312 C.3     1  UNL1        0.0746
     44 C          62.1491   92.0487    2.2633 C.3     1  UNL1        0.0369
     45 C          62.2071   93.2429    1.2969 C.3     1  UNL1        0.0738
     46 N          61.1998   93.1571    0.2181 N.3     1  UNL1       -0.2714
     47 C          61.5560   92.1667   -0.8122 C.3     1  UNL1        0.0896
     48 C          59.8294   92.9682    0.7400 C.3     1  UNL1        0.0738
     49 C          59.7156   91.7659    1.6911 C.3     1  UNL1        0.0369
     50 C          61.0704   77.7291   11.3652 C.3     1  UNL1        0.0405
     51 C          62.0794   77.0566   10.4212 C.3     1  UNL1        0.0063
     52 C          61.3883   77.3715   12.8210 C.3     1  UNL1        0.0063
@<TRIPOS>BOND
     1    26    27    1
     2    27    28   ar
     3    28    29   ar
     4    29     1    1
     5     1     2    1
     6     2     3    2
     7     2     4    1
     8     4     5    2
     9     5     6    1
    10     6     7   ar
    11     7    50    1
    12    50    51    1
    13    50    52    1
    14     7     8   ar
    15     8     9   ar
    16     9    10   ar
    17    10    11   ar
    18    11    12   ar
    19    12    16    1
    20    16    17   ar
    21    17    18   ar
    22    18    19   ar
    23    19    20   ar
    24    20    21   ar
    25    21    22   ar
    26    22    23   ar
    27    23    24   ar
    28    24    25   ar
    29    12    13   ar
    30    13    14   ar
    31    14    15   ar
    32    29    30   ar
    33    30    31   ar
    34    31    32   ar
    35    32    33    1
    36    33    34   ar
    37    34    35   ar
    38    35    36   ar
    39    36    39    1
    40    39    40    2
    41    39    41   am
    42    41    43    1
    43    43    44    1
    44    44    45    1
    45    45    46    1
    46    46    47    1
    47    46    48    1
    48    48    49    1
    49    36    37   ar
    50    37    38   ar
    51    32    27   ar
    52    38    33   ar
    53    15     1    1
    54    49    43    1
    55    15     6   ar
    56    14     9   ar
    57    25    16   ar
    58    24    19   ar
    59    41    42    1
