@<TRIPOS>MOLECULE
*****
 47 52 0 0 0
SMALL
GASTEIGER

@<TRIPOS>ATOM
      1 C         -63.9195  -51.7695  -24.3682 C.ar    1  UNL1        0.0702
      2 C         -63.3000  -52.4797  -23.3334 C.ar    1  UNL1        0.0191
      3 C         -63.9762  -53.5145  -22.6858 C.ar    1  UNL1        0.0356
      4 C         -65.2805  -53.8505  -23.0877 C.ar    1  UNL1        0.1318
      5 N         -65.8502  -53.1650  -24.1186 N.ar    1  UNL1       -0.2279
      6 C         -65.2120  -52.1515  -24.7611 C.ar    1  UNL1        0.1149
      7 N         -66.0137  -54.9158  -22.4445 N.pl3   1  UNL1       -0.2932
      8 C         -66.7128  -55.9370  -23.2439 C.3     1  UNL1        0.0923
      9 C         -66.8980  -57.2341  -22.4470 C.3     1  UNL1        0.0252
     10 C         -67.6196  -57.0051  -21.0950 C.3     1  UNL1        0.0472
     11 C         -67.3192  -55.6129  -20.4803 C.3     1  UNL1        0.0252
     12 C         -65.9941  -55.0305  -20.9780 C.3     1  UNL1        0.0923
     13 C         -69.1349  -57.2267  -21.2352 C.3     1  UNL1        0.2054
     14 O         -69.7686  -56.0123  -21.6333 O.3     1  UNL1       -0.4755
     15 C         -70.5729  -55.8733  -22.7738 C.ar    1  UNL1        0.1388
     16 C         -71.7506  -56.6203  -22.9616 C.ar    1  UNL1        0.0369
     17 C         -72.5162  -56.4447  -24.1160 C.ar    1  UNL1        0.0033
     18 C         -72.1190  -55.5273  -25.0913 C.ar    1  UNL1        0.0066
     19 C         -70.9455  -54.7720  -24.9207 C.ar    1  UNL1        0.0785
     20 C         -70.1800  -54.9546  -23.7552 C.ar    1  UNL1        0.0433
     21 C         -70.5187  -53.7983  -25.9499 C.2     1  UNL1        0.3381
     22 O         -69.3425  -53.8227  -26.4036 O.2     1  UNL1       -0.2451
     23 O         -71.4135  -52.8443  -26.4278 O.3     1  UNL1       -0.4771
     24 H         -71.1315  -52.1731  -27.1322 H       1  UNL1        0.2954
     25 C         -63.6615  -49.3628  -25.1341 C.2     1  UNL1        0.2839
     26 O         -64.5955  -48.9604  -24.3902 O.2     1  UNL1       -0.2665
     27 N         -63.2014  -50.7211  -25.0415 N.am    1  UNL1       -0.2766
     28 H         -62.2532  -50.9465  -25.4190 H       1  UNL1        0.1553
     29 C         -64.1978  -48.9689  -28.2831 C.3     1  UNL1        0.0345
     30 C         -63.2476  -48.2037  -27.4078 C.ar    1  UNL1        0.0214
     31 C         -62.9839  -48.4213  -26.0483 C.ar    1  UNL1        0.1947
     32 O         -62.0037  -47.6354  -25.6500 O.2     1  UNL1       -0.4492
     33 C         -61.6314  -46.9010  -26.6672 C.ar    1  UNL1        0.1464
     34 C         -60.6084  -45.9625  -26.6778 C.ar    1  UNL1        0.0376
     35 C         -60.3473  -45.2830  -27.8745 C.ar    1  UNL1        0.0043
     36 C         -61.1232  -45.5270  -29.0340 C.ar    1  UNL1        0.0131
     37 C         -62.1706  -46.4918  -28.9963 C.ar    1  UNL1        0.0442
     38 N         -62.9854  -46.7393  -30.1493 N.pl3   1  UNL1       -0.3569
     39 C         -62.3836  -47.1785  -27.7833 C.ar    1  UNL1        0.0466
     40 H         -62.6309  -46.5482  -31.1120 H       1  UNL1        0.1424
     41 H         -63.9899  -46.9992  -30.0527 H       1  UNL1        0.1424
     42 C         -60.8471  -44.7251  -30.2473 C.ar    1  UNL1        0.0012
     43 C         -61.7962  -43.7997  -30.7133 C.ar    1  UNL1        0.0000
     44 C         -61.5457  -43.0554  -31.8703 C.ar    1  UNL1        0.0000
     45 C         -60.3520  -43.2354  -32.5745 C.ar    1  UNL1        0.0000
     46 C         -59.4083  -44.1628  -32.1248 C.ar    1  UNL1        0.0000
     47 C         -59.6547  -44.9093  -30.9685 C.ar    1  UNL1        0.0000
@<TRIPOS>BOND
     1    29    30    1
     2    30    31   ar
     3    31    25    1
     4    25    26    2
     5    25    27   am
     6    27     1    1
     7     1     2   ar
     8     2     3   ar
     9     3     4   ar
    10     4     7    1
    11     7     8    1
    12     8     9    1
    13     9    10    1
    14    10    13    1
    15    13    14    1
    16    14    15    1
    17    15    16   ar
    18    16    17   ar
    19    17    18   ar
    20    18    19   ar
    21    19    21    1
    22    21    22    2
    23    21    23    1
    24    19    20   ar
    25    10    11    1
    26    11    12    1
    27     4     5   ar
    28     5     6   ar
    29    31    32   ar
    30    32    33   ar
    31    33    34   ar
    32    34    35   ar
    33    35    36   ar
    34    36    42    1
    35    42    43   ar
    36    43    44   ar
    37    44    45   ar
    38    45    46   ar
    39    46    47   ar
    40    36    37   ar
    41    37    38    1
    42    37    39   ar
    43    39    30   ar
    44     6     1   ar
    45    39    33   ar
    46    12     7    1
    47    47    42   ar
    48    20    15   ar
    49    27    28    1
    50    23    24    1
    51    38    40    1
    52    38    41    1
@<TRIPOS>MOLECULE
*****
 47 52 0 0 0
SMALL
GASTEIGER

@<TRIPOS>ATOM
      1 C         -64.0011  -51.8650  -24.4154 C.ar    1  UNL1        0.0702
      2 C         -63.4114  -52.4908  -23.3110 C.ar    1  UNL1        0.0191
      3 C         -64.0585  -53.5494  -22.6724 C.ar    1  UNL1        0.0356
      4 C         -65.3021  -53.9948  -23.1528 C.ar    1  UNL1        0.1318
      5 N         -65.8409  -53.3898  -24.2487 N.ar    1  UNL1       -0.2279
      6 C         -65.2304  -52.3550  -24.8841 C.ar    1  UNL1        0.1149
      7 N         -66.0035  -55.0881  -22.5213 N.pl3   1  UNL1       -0.2932
      8 C         -67.1228  -55.7587  -23.2055 C.3     1  UNL1        0.0923
      9 C         -67.3191  -57.1859  -22.6797 C.3     1  UNL1        0.0252
     10 C         -67.5060  -57.2342  -21.1422 C.3     1  UNL1        0.0472
     11 C         -66.7339  -56.1082  -20.4060 C.3     1  UNL1        0.0252
     12 C         -65.5435  -55.5917  -21.2179 C.3     1  UNL1        0.0923
     13 C         -68.9974  -57.2109  -20.7680 C.3     1  UNL1        0.2054
     14 O         -69.3997  -55.8780  -20.4580 O.3     1  UNL1       -0.4755
     15 C         -70.0578  -55.5012  -19.2782 C.ar    1  UNL1        0.1388
     16 C         -69.7770  -56.0972  -18.0348 C.ar    1  UNL1        0.0369
     17 C         -70.4613  -55.6862  -16.8892 C.ar    1  UNL1        0.0033
     18 C         -71.4281  -54.6816  -16.9692 C.ar    1  UNL1        0.0066
     19 C         -71.7218  -54.0745  -18.2029 C.ar    1  UNL1        0.0785
     20 C         -71.0282  -54.4940  -19.3520 C.ar    1  UNL1        0.0433
     21 C         -72.7450  -53.0096  -18.2950 C.2     1  UNL1        0.3381
     22 O         -73.8399  -53.1207  -17.6794 O.2     1  UNL1       -0.2451
     23 O         -72.5080  -51.8728  -19.0637 O.3     1  UNL1       -0.4771
     24 H         -73.2018  -51.1380  -19.1336 H       1  UNL1        0.2954
     25 C         -63.7605  -49.4255  -25.0760 C.2     1  UNL1        0.2839
     26 O         -64.6452  -49.0526  -24.2599 O.2     1  UNL1       -0.2665
     27 N         -63.3113  -50.7906  -25.0772 N.am    1  UNL1       -0.2766
     28 H         -62.3892  -51.0051  -25.5201 H       1  UNL1        0.1553
     29 C         -64.1979  -49.1288  -28.2509 C.3     1  UNL1        0.0345
     30 C         -63.3511  -48.2728  -27.3538 C.ar    1  UNL1        0.0214
     31 C         -63.1263  -48.4456  -25.9809 C.ar    1  UNL1        0.1947
     32 O         -62.2318  -47.5742  -25.5596 O.2     1  UNL1       -0.4492
     33 C         -61.8803  -46.8278  -26.5754 C.ar    1  UNL1        0.1464
     34 C         -60.9390  -45.8073  -26.5639 C.ar    1  UNL1        0.0376
     35 C         -60.6862  -45.1278  -27.7624 C.ar    1  UNL1        0.0043
     36 C         -61.3910  -45.4546  -28.9467 C.ar    1  UNL1        0.0131
     37 C         -62.3555  -46.5029  -28.9316 C.ar    1  UNL1        0.0442
     38 N         -63.0990  -46.8363  -30.1108 N.pl3   1  UNL1       -0.3569
     39 C         -62.5604  -47.1852  -27.7148 C.ar    1  UNL1        0.0466
     40 H         -62.7223  -46.6317  -31.0623 H       1  UNL1        0.1424
     41 H         -64.0815  -47.1775  -30.0489 H       1  UNL1        0.1424
     42 C         -61.1327  -44.6521  -30.1636 C.ar    1  UNL1        0.0012
     43 C         -62.0796  -43.7118  -30.6035 C.ar    1  UNL1        0.0000
     44 C         -61.8464  -42.9668  -31.7637 C.ar    1  UNL1        0.0000
     45 C         -60.6726  -43.1609  -32.4969 C.ar    1  UNL1        0.0000
     46 C         -59.7315  -44.1032  -32.0732 C.ar    1  UNL1        0.0000
     47 C         -59.9607  -44.8504  -30.9138 C.ar    1  UNL1        0.0000
@<TRIPOS>BOND
     1    29    30    1
     2    30    31   ar
     3    31    25    1
     4    25    26    2
     5    25    27   am
     6    27     1    1
     7     1     2   ar
     8     2     3   ar
     9     3     4   ar
    10     4     7    1
    11     7     8    1
    12     8     9    1
    13     9    10    1
    14    10    13    1
    15    13    14    1
    16    14    15    1
    17    15    16   ar
    18    16    17   ar
    19    17    18   ar
    20    18    19   ar
    21    19    21    1
    22    21    22    2
    23    21    23    1
    24    19    20   ar
    25    10    11    1
    26    11    12    1
    27     4     5   ar
    28     5     6   ar
    29    31    32   ar
    30    32    33   ar
    31    33    34   ar
    32    34    35   ar
    33    35    36   ar
    34    36    42    1
    35    42    43   ar
    36    43    44   ar
    37    44    45   ar
    38    45    46   ar
    39    46    47   ar
    40    36    37   ar
    41    37    38    1
    42    37    39   ar
    43    39    30   ar
    44     6     1   ar
    45    39    33   ar
    46    12     7    1
    47    47    42   ar
    48    20    15   ar
    49    27    28    1
    50    23    24    1
    51    38    40    1
    52    38    41    1
@<TRIPOS>MOLECULE
*****
 47 52 0 0 0
SMALL
GASTEIGER

@<TRIPOS>ATOM
      1 C         -64.0290  -51.8538  -24.4105 C.ar    1  UNL1        0.0702
      2 C         -63.4473  -52.5567  -23.3491 C.ar    1  UNL1        0.0191
      3 C         -64.1582  -53.5666  -22.6993 C.ar    1  UNL1        0.0356
      4 C         -65.4592  -53.8851  -23.1255 C.ar    1  UNL1        0.1318
      5 N         -65.9916  -53.2078  -24.1814 N.ar    1  UNL1       -0.2279
      6 C         -65.3193  -52.2183  -24.8266 C.ar    1  UNL1        0.1149
      7 N         -66.2275  -54.9244  -22.4809 N.pl3   1  UNL1       -0.2932
      8 C         -67.6350  -55.1571  -22.8486 C.3     1  UNL1        0.0923
      9 C         -68.0624  -56.5941  -22.5255 C.3     1  UNL1        0.0252
     10 C         -67.8114  -56.9715  -21.0438 C.3     1  UNL1        0.0472
     11 C         -66.5813  -56.2466  -20.4376 C.3     1  UNL1        0.0252
     12 C         -65.5755  -55.8136  -21.5071 C.3     1  UNL1        0.0923
     13 C         -69.0678  -56.7240  -20.1922 C.3     1  UNL1        0.2054
     14 O         -68.8430  -55.6339  -19.3002 O.3     1  UNL1       -0.4755
     15 C         -68.6727  -55.7641  -17.9141 C.ar    1  UNL1        0.1388
     16 C         -69.6999  -56.2210  -17.0679 C.ar    1  UNL1        0.0369
     17 C         -69.4794  -56.3322  -15.6936 C.ar    1  UNL1        0.0033
     18 C         -68.2391  -55.9911  -15.1499 C.ar    1  UNL1        0.0066
     19 C         -67.2010  -55.5329  -15.9800 C.ar    1  UNL1        0.0785
     20 C         -67.4309  -55.4239  -17.3630 C.ar    1  UNL1        0.0433
     21 C         -65.8843  -55.1697  -15.4106 C.2     1  UNL1        0.3381
     22 O         -65.7464  -54.1056  -14.7482 O.2     1  UNL1       -0.2451
     23 O         -64.7835  -56.0009  -15.6014 O.3     1  UNL1       -0.4771
     24 H         -63.8777  -55.7616  -15.2161 H       1  UNL1        0.2954
     25 C         -63.6343  -49.4401  -25.0912 C.2     1  UNL1        0.2839
     26 O         -64.4866  -49.0043  -24.2718 O.2     1  UNL1       -0.2665
     27 N         -63.2753  -50.8316  -25.0853 N.am    1  UNL1       -0.2766
     28 H         -62.3726  -51.1090  -25.5330 H       1  UNL1        0.1553
     29 C         -64.2243  -48.9850  -28.2223 C.3     1  UNL1        0.0345
     30 C         -63.2294  -48.2651  -27.3584 C.ar    1  UNL1        0.0214
     31 C         -62.9442  -48.5101  -26.0079 C.ar    1  UNL1        0.1947
     32 O         -61.9289  -47.7641  -25.6212 O.2     1  UNL1       -0.4492
     33 C         -61.5533  -47.0292  -26.6368 C.ar    1  UNL1        0.1464
     34 C         -60.4987  -46.1265  -26.6579 C.ar    1  UNL1        0.0376
     35 C         -60.2399  -45.4402  -27.8512 C.ar    1  UNL1        0.0043
     36 C         -61.0487  -45.6415  -28.9964 C.ar    1  UNL1        0.0131
     37 C         -62.1280  -46.5700  -28.9481 C.ar    1  UNL1        0.0442
     38 N         -62.9756  -46.7735  -30.0859 N.pl3   1  UNL1       -0.3569
     39 C         -62.3385  -47.2653  -27.7396 C.ar    1  UNL1        0.0466
     40 H         -62.6354  -46.5815  -31.0537 H       1  UNL1        0.1424
     41 H         -63.9862  -46.9997  -29.9705 H       1  UNL1        0.1424
     42 C         -60.7711  -44.8331  -30.2050 C.ar    1  UNL1        0.0012
     43 C         -61.7010  -43.8751  -30.6429 C.ar    1  UNL1        0.0000
     44 C         -61.4496  -43.1243  -31.7955 C.ar    1  UNL1        0.0000
     45 C         -60.2744  -43.3301  -32.5233 C.ar    1  UNL1        0.0000
     46 C         -59.3502  -44.2898  -32.1018 C.ar    1  UNL1        0.0000
     47 C         -59.5975  -45.0429  -30.9499 C.ar    1  UNL1        0.0000
@<TRIPOS>BOND
     1    29    30    1
     2    30    31   ar
     3    31    25    1
     4    25    26    2
     5    25    27   am
     6    27     1    1
     7     1     2   ar
     8     2     3   ar
     9     3     4   ar
    10     4     7    1
    11     7     8    1
    12     8     9    1
    13     9    10    1
    14    10    13    1
    15    13    14    1
    16    14    15    1
    17    15    16   ar
    18    16    17   ar
    19    17    18   ar
    20    18    19   ar
    21    19    21    1
    22    21    22    2
    23    21    23    1
    24    19    20   ar
    25    10    11    1
    26    11    12    1
    27     4     5   ar
    28     5     6   ar
    29    31    32   ar
    30    32    33   ar
    31    33    34   ar
    32    34    35   ar
    33    35    36   ar
    34    36    42    1
    35    42    43   ar
    36    43    44   ar
    37    44    45   ar
    38    45    46   ar
    39    46    47   ar
    40    36    37   ar
    41    37    38    1
    42    37    39   ar
    43    39    30   ar
    44     6     1   ar
    45    39    33   ar
    46    12     7    1
    47    47    42   ar
    48    20    15   ar
    49    27    28    1
    50    23    24    1
    51    38    40    1
    52    38    41    1
@<TRIPOS>MOLECULE
*****
 47 52 0 0 0
SMALL
GASTEIGER

@<TRIPOS>ATOM
      1 C         -64.0691  -51.9845  -24.5389 C.ar    1  UNL1        0.0702
      2 C         -63.6699  -52.3994  -23.2631 C.ar    1  UNL1        0.0191
      3 C         -64.3524  -53.4270  -22.6108 C.ar    1  UNL1        0.0356
      4 C         -65.4367  -54.0547  -23.2479 C.ar    1  UNL1        0.1318
      5 N         -65.7863  -53.6542  -24.5027 N.ar    1  UNL1       -0.2279
      6 C         -65.1384  -52.6534  -25.1554 C.ar    1  UNL1        0.1149
      7 N         -66.1681  -55.1231  -22.6077 N.pl3   1  UNL1       -0.2932
      8 C         -67.2834  -55.7915  -23.3006 C.3     1  UNL1        0.0923
      9 C         -67.5129  -57.2035  -22.7481 C.3     1  UNL1        0.0252
     10 C         -67.7324  -57.2150  -21.2142 C.3     1  UNL1        0.0472
     11 C         -66.9581  -56.0849  -20.4866 C.3     1  UNL1        0.0252
     12 C         -65.7432  -55.6047  -21.2843 C.3     1  UNL1        0.0923
     13 C         -69.2307  -57.1607  -20.8721 C.3     1  UNL1        0.2054
     14 O         -69.9278  -56.4053  -21.8611 O.3     1  UNL1       -0.4755
     15 C         -71.3243  -56.3367  -21.9697 C.ar    1  UNL1        0.1388
     16 C         -72.0044  -56.6507  -23.1609 C.ar    1  UNL1        0.0369
     17 C         -73.3970  -56.5657  -23.2171 C.ar    1  UNL1        0.0033
     18 C         -74.1239  -56.1689  -22.0926 C.ar    1  UNL1        0.0066
     19 C         -73.4616  -55.8515  -20.8937 C.ar    1  UNL1        0.0785
     20 C         -72.0589  -55.9398  -20.8452 C.ar    1  UNL1        0.0433
     21 C         -74.2254  -55.4305  -19.6985 C.2     1  UNL1        0.3381
     22 O         -74.5699  -54.2263  -19.5520 O.2     1  UNL1       -0.2451
     23 O         -74.5716  -56.3615  -18.7225 O.3     1  UNL1       -0.4771
     24 H         -75.0943  -56.0838  -17.9004 H       1  UNL1        0.2954
     25 C         -63.6946  -49.5483  -25.1471 C.2     1  UNL1        0.2839
     26 O         -64.5085  -49.1409  -24.2758 O.2     1  UNL1       -0.2665
     27 N         -63.3414  -50.9400  -25.2080 N.am    1  UNL1       -0.2766
     28 H         -62.4602  -51.2030  -25.7046 H       1  UNL1        0.1553
     29 C         -64.3159  -49.0848  -28.2709 C.3     1  UNL1        0.0345
     30 C         -63.3417  -48.3393  -27.4051 C.ar    1  UNL1        0.0214
     31 C         -63.0413  -48.5870  -26.0583 C.ar    1  UNL1        0.1947
     32 O         -62.0501  -47.8103  -25.6696 O.2     1  UNL1       -0.4492
     33 C         -61.7049  -47.0537  -26.6800 C.ar    1  UNL1        0.1464
     34 C         -60.6818  -46.1154  -26.6977 C.ar    1  UNL1        0.0376
     35 C         -60.4527  -45.4097  -27.8858 C.ar    1  UNL1        0.0043
     36 C         -61.2601  -45.6278  -29.0289 C.ar    1  UNL1        0.0131
     37 C         -62.3069  -46.5930  -28.9841 C.ar    1  UNL1        0.0442
     38 N         -63.1529  -46.8148  -30.1196 N.pl3   1  UNL1       -0.3569
     39 C         -62.4873  -47.3063  -27.7812 C.ar    1  UNL1        0.0466
     40 H         -62.8245  -46.6025  -31.0872 H       1  UNL1        0.1424
     41 H         -64.1546  -47.0765  -30.0015 H       1  UNL1        0.1424
     42 C         -61.0164  -44.7993  -30.2312 C.ar    1  UNL1        0.0012
     43 C         -59.8186  -44.9368  -30.9527 C.ar    1  UNL1        0.0000
     44 C         -59.5780  -44.1413  -32.0773 C.ar    1  UNL1        0.0000
     45 C         -60.5257  -43.1981  -32.4840 C.ar    1  UNL1        0.0000
     46 C         -61.7141  -43.0461  -31.7646 C.ar    1  UNL1        0.0000
     47 C         -61.9587  -43.8395  -30.6394 C.ar    1  UNL1        0.0000
@<TRIPOS>BOND
     1    29    30    1
     2    30    31   ar
     3    31    25    1
     4    25    26    2
     5    25    27   am
     6    27     1    1
     7     1     2   ar
     8     2     3   ar
     9     3     4   ar
    10     4     7    1
    11     7     8    1
    12     8     9    1
    13     9    10    1
    14    10    13    1
    15    13    14    1
    16    14    15    1
    17    15    16   ar
    18    16    17   ar
    19    17    18   ar
    20    18    19   ar
    21    19    21    1
    22    21    22    2
    23    21    23    1
    24    19    20   ar
    25    10    11    1
    26    11    12    1
    27     4     5   ar
    28     5     6   ar
    29    31    32   ar
    30    32    33   ar
    31    33    34   ar
    32    34    35   ar
    33    35    36   ar
    34    36    42    1
    35    42    43   ar
    36    43    44   ar
    37    44    45   ar
    38    45    46   ar
    39    46    47   ar
    40    36    37   ar
    41    37    38    1
    42    37    39   ar
    43    39    30   ar
    44     6     1   ar
    45    39    33   ar
    46    12     7    1
    47    47    42   ar
    48    20    15   ar
    49    27    28    1
    50    23    24    1
    51    38    40    1
    52    38    41    1
@<TRIPOS>MOLECULE
*****
 47 52 0 0 0
SMALL
GASTEIGER

@<TRIPOS>ATOM
      1 C         -61.7359  -45.0714  -22.5117 C.ar    1  UNL1        0.0702
      2 C         -62.1113  -45.6807  -23.7146 C.ar    1  UNL1        0.0191
      3 C         -61.8779  -47.0414  -23.9180 C.ar    1  UNL1        0.0356
      4 C         -61.2752  -47.8025  -22.9015 C.ar    1  UNL1        0.1318
      5 N         -60.9476  -47.1930  -21.7275 N.ar    1  UNL1       -0.2279
      6 C         -61.1621  -45.8688  -21.5088 C.ar    1  UNL1        0.1149
      7 N         -61.0181  -49.2135  -23.0717 N.pl3   1  UNL1       -0.2932
      8 C         -61.1153  -49.8407  -24.4013 C.3     1  UNL1        0.0923
      9 C         -60.2664  -51.1157  -24.4765 C.3     1  UNL1        0.0252
     10 C         -60.6185  -52.1326  -23.3616 C.3     1  UNL1        0.0472
     11 C         -61.0933  -51.4502  -22.0520 C.3     1  UNL1        0.0252
     12 C         -60.5742  -50.0162  -21.9216 C.3     1  UNL1        0.0923
     13 C         -61.6574  -53.1532  -23.8555 C.3     1  UNL1        0.2054
     14 O         -62.5347  -53.5085  -22.7883 O.3     1  UNL1       -0.4755
     15 C         -63.8907  -53.8287  -22.9482 C.ar    1  UNL1        0.1388
     16 C         -64.7049  -53.2031  -23.9105 C.ar    1  UNL1        0.0369
     17 C         -66.0501  -53.5578  -24.0289 C.ar    1  UNL1        0.0033
     18 C         -66.5965  -54.5350  -23.1940 C.ar    1  UNL1        0.0066
     19 C         -65.7983  -55.1709  -22.2270 C.ar    1  UNL1        0.0785
     20 C         -64.4443  -54.8082  -22.1141 C.ar    1  UNL1        0.0433
     21 C         -66.3707  -56.2070  -21.3390 C.2     1  UNL1        0.3381
     22 O         -66.9178  -57.2338  -21.8254 O.2     1  UNL1       -0.2451
     23 O         -66.3104  -56.0577  -19.9559 O.3     1  UNL1       -0.4771
     24 H         -66.6991  -56.7610  -19.3391 H       1  UNL1        0.2954
     25 C         -61.3610  -42.8695  -21.3050 C.2     1  UNL1        0.2839
     26 O         -60.3234  -43.2909  -20.7275 O.2     1  UNL1       -0.2665
     27 N         -62.0040  -43.6733  -22.3078 N.am    1  UNL1       -0.2766
     28 H         -62.6490  -43.1992  -22.9798 H       1  UNL1        0.1553
     29 C         -63.9537  -42.1024  -19.5590 C.3     1  UNL1        0.0345
     30 C         -62.9709  -41.1703  -20.2070 C.ar    1  UNL1        0.0214
     31 C         -61.8757  -41.5168  -21.0105 C.ar    1  UNL1        0.1947
     32 O         -61.3165  -40.4286  -21.5005 O.2     1  UNL1       -0.4492
     33 C         -61.9707  -39.3923  -21.0412 C.ar    1  UNL1        0.1464
     34 C         -61.7204  -38.0594  -21.3383 C.ar    1  UNL1        0.0376
     35 C         -62.5442  -37.0868  -20.7577 C.ar    1  UNL1        0.0043
     36 C         -63.5864  -37.4514  -19.8705 C.ar    1  UNL1        0.0131
     37 C         -63.8203  -38.8259  -19.5778 C.ar    1  UNL1        0.0442
     38 N         -64.8529  -39.2188  -18.6648 N.pl3   1  UNL1       -0.3569
     39 C         -62.9910  -39.7781  -20.2054 C.ar    1  UNL1        0.0466
     40 H         -65.6838  -38.6105  -18.4953 H       1  UNL1        0.1424
     41 H         -64.7435  -40.0587  -18.0578 H       1  UNL1        0.1424
     42 C         -64.3757  -36.3744  -19.2314 C.ar    1  UNL1        0.0012
     43 C         -65.6547  -36.0532  -19.7164 C.ar    1  UNL1        0.0000
     44 C         -66.3938  -35.0230  -19.1267 C.ar    1  UNL1        0.0000
     45 C         -65.8591  -34.3013  -18.0560 C.ar    1  UNL1        0.0000
     46 C         -64.5826  -34.6060  -17.5756 C.ar    1  UNL1        0.0000
     47 C         -63.8400  -35.6352  -18.1624 C.ar    1  UNL1        0.0000
@<TRIPOS>BOND
     1    29    30    1
     2    30    31   ar
     3    31    25    1
     4    25    26    2
     5    25    27   am
     6    27     1    1
     7     1     2   ar
     8     2     3   ar
     9     3     4   ar
    10     4     7    1
    11     7     8    1
    12     8     9    1
    13     9    10    1
    14    10    13    1
    15    13    14    1
    16    14    15    1
    17    15    16   ar
    18    16    17   ar
    19    17    18   ar
    20    18    19   ar
    21    19    21    1
    22    21    22    2
    23    21    23    1
    24    19    20   ar
    25    10    11    1
    26    11    12    1
    27     4     5   ar
    28     5     6   ar
    29    31    32   ar
    30    32    33   ar
    31    33    34   ar
    32    34    35   ar
    33    35    36   ar
    34    36    42    1
    35    42    43   ar
    36    43    44   ar
    37    44    45   ar
    38    45    46   ar
    39    46    47   ar
    40    36    37   ar
    41    37    38    1
    42    37    39   ar
    43    39    30   ar
    44     6     1   ar
    45    39    33   ar
    46    12     7    1
    47    47    42   ar
    48    20    15   ar
    49    27    28    1
    50    23    24    1
    51    38    40    1
    52    38    41    1
@<TRIPOS>MOLECULE
*****
 47 52 0 0 0
SMALL
GASTEIGER

@<TRIPOS>ATOM
      1 C         -62.0410  -45.5700  -22.2104 C.ar    1  UNL1        0.0702
      2 C         -62.3986  -46.0721  -23.4670 C.ar    1  UNL1        0.0191
      3 C         -62.0000  -47.3523  -23.8536 C.ar    1  UNL1        0.0356
      4 C         -61.2475  -48.1429  -22.9678 C.ar    1  UNL1        0.1318
      5 N         -60.9388  -47.6436  -21.7380 N.ar    1  UNL1       -0.2279
      6 C         -61.3131  -46.3985  -21.3417 C.ar    1  UNL1        0.1149
      7 N         -60.8170  -49.4734  -23.3290 N.pl3   1  UNL1       -0.2932
      8 C         -61.3464  -50.1338  -24.5348 C.3     1  UNL1        0.0923
      9 C         -60.3792  -51.2070  -25.0493 C.3     1  UNL1        0.0252
     10 C         -60.0166  -52.2520  -23.9641 C.3     1  UNL1        0.0472
     11 C         -60.0118  -51.6562  -22.5320 C.3     1  UNL1        0.0252
     12 C         -59.7781  -50.1435  -22.5316 C.3     1  UNL1        0.0923
     13 C         -60.9452  -53.4751  -24.0456 C.3     1  UNL1        0.2054
     14 O         -61.8942  -53.4362  -22.9814 O.3     1  UNL1       -0.4755
     15 C         -63.2811  -53.5602  -23.1493 C.ar    1  UNL1        0.1388
     16 C         -64.0053  -52.7631  -24.0550 C.ar    1  UNL1        0.0369
     17 C         -65.3861  -52.9257  -24.1841 C.ar    1  UNL1        0.0033
     18 C         -66.0574  -53.8796  -23.4160 C.ar    1  UNL1        0.0066
     19 C         -65.3503  -54.6851  -22.5061 C.ar    1  UNL1        0.0785
     20 C         -63.9598  -54.5154  -22.3821 C.ar    1  UNL1        0.0433
     21 C         -66.0551  -55.6978  -21.6892 C.2     1  UNL1        0.3381
     22 O         -66.7250  -56.6115  -22.2427 O.2     1  UNL1       -0.2451
     23 O         -65.9852  -55.6510  -20.2992 O.3     1  UNL1       -0.4771
     24 H         -66.4639  -56.3393  -19.7306 H       1  UNL1        0.2954
     25 C         -61.7464  -43.3990  -20.9277 C.2     1  UNL1        0.2839
     26 O         -60.5407  -43.6484  -20.6595 O.2     1  UNL1       -0.2665
     27 N         -62.4789  -44.2578  -21.8171 N.am    1  UNL1       -0.2766
     28 H         -63.3434  -43.8792  -22.2661 H       1  UNL1        0.1553
     29 C         -61.1976  -40.3518  -21.8064 C.3     1  UNL1        0.0345
     30 C         -62.1966  -40.8560  -20.8052 C.ar    1  UNL1        0.0214
     31 C         -62.3885  -42.1817  -20.3918 C.ar    1  UNL1        0.1947
     32 O         -63.2684  -42.2231  -19.4115 O.2     1  UNL1       -0.4492
     33 C         -63.6786  -41.0020  -19.1805 C.ar    1  UNL1        0.1464
     34 C         -64.5858  -40.6057  -18.2071 C.ar    1  UNL1        0.0376
     35 C         -64.8897  -39.2424  -18.1028 C.ar    1  UNL1        0.0043
     36 C         -64.3084  -38.2978  -18.9837 C.ar    1  UNL1        0.0131
     37 C         -63.3836  -38.7302  -19.9773 C.ar    1  UNL1        0.0442
     38 N         -62.8004  -37.7973  -20.8960 N.pl3   1  UNL1       -0.3569
     39 C         -63.0783  -40.1057  -20.0317 C.ar    1  UNL1        0.0466
     40 H         -62.7067  -36.7868  -20.6527 H       1  UNL1        0.1424
     41 H         -62.5677  -38.0774  -21.8723 H       1  UNL1        0.1424
     42 C         -64.7247  -36.8816  -18.8717 C.ar    1  UNL1        0.0012
     43 C         -64.0294  -36.0063  -18.0205 C.ar    1  UNL1        0.0000
     44 C         -64.4333  -34.6731  -17.8984 C.ar    1  UNL1        0.0000
     45 C         -65.5376  -34.2069  -18.6169 C.ar    1  UNL1        0.0000
     46 C         -66.2424  -35.0742  -19.4560 C.ar    1  UNL1        0.0000
     47 C         -65.8421  -36.4081  -19.5811 C.ar    1  UNL1        0.0000
@<TRIPOS>BOND
     1    29    30    1
     2    30    31   ar
     3    31    25    1
     4    25    26    2
     5    25    27   am
     6    27     1    1
     7     1     2   ar
     8     2     3   ar
     9     3     4   ar
    10     4     7    1
    11     7     8    1
    12     8     9    1
    13     9    10    1
    14    10    13    1
    15    13    14    1
    16    14    15    1
    17    15    16   ar
    18    16    17   ar
    19    17    18   ar
    20    18    19   ar
    21    19    21    1
    22    21    22    2
    23    21    23    1
    24    19    20   ar
    25    10    11    1
    26    11    12    1
    27     4     5   ar
    28     5     6   ar
    29    31    32   ar
    30    32    33   ar
    31    33    34   ar
    32    34    35   ar
    33    35    36   ar
    34    36    42    1
    35    42    43   ar
    36    43    44   ar
    37    44    45   ar
    38    45    46   ar
    39    46    47   ar
    40    36    37   ar
    41    37    38    1
    42    37    39   ar
    43    39    30   ar
    44     6     1   ar
    45    39    33   ar
    46    12     7    1
    47    47    42   ar
    48    20    15   ar
    49    27    28    1
    50    23    24    1
    51    38    40    1
    52    38    41    1
@<TRIPOS>MOLECULE
*****
 47 52 0 0 0
SMALL
GASTEIGER

@<TRIPOS>ATOM
      1 C         -62.0639  -45.2534  -22.7093 C.ar    1  UNL1        0.0702
      2 C         -62.6147  -45.8272  -23.8611 C.ar    1  UNL1        0.0191
      3 C         -62.4925  -47.1978  -24.0928 C.ar    1  UNL1        0.0356
      4 C         -61.8241  -48.0041  -23.1553 C.ar    1  UNL1        0.1318
      5 N         -61.3240  -47.4269  -22.0266 N.ar    1  UNL1       -0.2279
      6 C         -61.4280  -46.0939  -21.7820 C.ar    1  UNL1        0.1149
      7 N         -61.6776  -49.4267  -23.3569 N.pl3   1  UNL1       -0.2932
      8 C         -62.7737  -50.2206  -23.9390 C.3     1  UNL1        0.0923
      9 C         -62.2428  -51.4995  -24.5981 C.3     1  UNL1        0.0252
     10 C         -61.3941  -52.3611  -23.6294 C.3     1  UNL1        0.0472
     11 C         -60.6294  -51.5117  -22.5807 C.3     1  UNL1        0.0252
     12 C         -60.3925  -50.0759  -23.0553 C.3     1  UNL1        0.0923
     13 C         -62.2591  -53.4310  -22.9425 C.3     1  UNL1        0.2054
     14 O         -63.6409  -53.1499  -23.1572 O.3     1  UNL1       -0.4755
     15 C         -64.6878  -54.0303  -22.8478 C.ar    1  UNL1        0.1388
     16 C         -64.4808  -55.2293  -22.1410 C.ar    1  UNL1        0.0369
     17 C         -65.5575  -56.0723  -21.8586 C.ar    1  UNL1        0.0033
     18 C         -66.8462  -55.7316  -22.2752 C.ar    1  UNL1        0.0066
     19 C         -67.0722  -54.5376  -22.9824 C.ar    1  UNL1        0.0785
     20 C         -65.9826  -53.6940  -23.2627 C.ar    1  UNL1        0.0433
     21 C         -68.4350  -54.1704  -23.4269 C.2     1  UNL1        0.3381
     22 O         -69.3177  -53.8525  -22.5844 O.2     1  UNL1       -0.2451
     23 O         -68.7559  -54.1726  -24.7819 O.3     1  UNL1       -0.4771
     24 H         -69.6858  -53.9230  -25.0969 H       1  UNL1        0.2954
     25 C         -61.6564  -43.1510  -21.3458 C.2     1  UNL1        0.2839
     26 O         -60.7654  -43.7024  -20.6461 O.2     1  UNL1       -0.2665
     27 N         -62.2182  -43.8432  -22.4730 N.am    1  UNL1       -0.2766
     28 H         -62.7037  -43.2779  -23.2059 H       1  UNL1        0.1553
     29 C         -64.2127  -42.1883  -19.6436 C.3     1  UNL1        0.0345
     30 C         -63.1507  -41.3339  -20.2733 C.ar    1  UNL1        0.0214
     31 C         -62.0714  -41.7630  -21.0584 C.ar    1  UNL1        0.1947
     32 O         -61.4225  -40.7206  -21.5372 O.2     1  UNL1       -0.4492
     33 C         -62.0035  -39.6374  -21.0878 C.ar    1  UNL1        0.1464
     34 C         -61.6471  -38.3275  -21.3788 C.ar    1  UNL1        0.0376
     35 C         -62.4042  -37.2949  -20.8111 C.ar    1  UNL1        0.0043
     36 C         -63.4863  -37.5790  -19.9424 C.ar    1  UNL1        0.0131
     37 C         -63.8294  -38.9315  -19.6557 C.ar    1  UNL1        0.0442
     38 N         -64.9045  -39.2446  -18.7610 N.pl3   1  UNL1       -0.3569
     39 C         -63.0645  -39.9443  -20.2702 C.ar    1  UNL1        0.0466
     40 H         -65.6894  -38.5746  -18.6050 H       1  UNL1        0.1424
     41 H         -64.8701  -40.0903  -18.1534 H       1  UNL1        0.1424
     42 C         -64.2020  -36.4449  -19.3155 C.ar    1  UNL1        0.0012
     43 C         -63.5956  -35.7120  -18.2814 C.ar    1  UNL1        0.0000
     44 C         -64.2778  -34.6529  -17.6745 C.ar    1  UNL1        0.0000
     45 C         -65.5714  -34.3238  -18.0885 C.ar    1  UNL1        0.0000
     46 C         -66.1866  -35.0557  -19.1077 C.ar    1  UNL1        0.0000
     47 C         -65.5082  -36.1156  -19.7172 C.ar    1  UNL1        0.0000
@<TRIPOS>BOND
     1    29    30    1
     2    30    31   ar
     3    31    25    1
     4    25    26    2
     5    25    27   am
     6    27     1    1
     7     1     2   ar
     8     2     3   ar
     9     3     4   ar
    10     4     7    1
    11     7     8    1
    12     8     9    1
    13     9    10    1
    14    10    13    1
    15    13    14    1
    16    14    15    1
    17    15    16   ar
    18    16    17   ar
    19    17    18   ar
    20    18    19   ar
    21    19    21    1
    22    21    22    2
    23    21    23    1
    24    19    20   ar
    25    10    11    1
    26    11    12    1
    27     4     5   ar
    28     5     6   ar
    29    31    32   ar
    30    32    33   ar
    31    33    34   ar
    32    34    35   ar
    33    35    36   ar
    34    36    42    1
    35    42    43   ar
    36    43    44   ar
    37    44    45   ar
    38    45    46   ar
    39    46    47   ar
    40    36    37   ar
    41    37    38    1
    42    37    39   ar
    43    39    30   ar
    44     6     1   ar
    45    39    33   ar
    46    12     7    1
    47    47    42   ar
    48    20    15   ar
    49    27    28    1
    50    23    24    1
    51    38    40    1
    52    38    41    1
@<TRIPOS>MOLECULE
*****
 47 52 0 0 0
SMALL
GASTEIGER

@<TRIPOS>ATOM
      1 C         -62.5149  -41.4496  -21.1260 C.ar    1  UNL1        0.0702
      2 C         -63.7649  -41.2745  -20.5210 C.ar    1  UNL1        0.0191
      3 C         -64.1426  -40.0226  -20.0337 C.ar    1  UNL1        0.0356
      4 C         -63.2656  -38.9322  -20.1659 C.ar    1  UNL1        0.1318
      5 N         -62.0673  -39.1210  -20.7868 N.ar    1  UNL1       -0.2279
      6 C         -61.6771  -40.3318  -21.2656 C.ar    1  UNL1        0.1149
      7 N         -63.6193  -37.6201  -19.6765 N.pl3   1  UNL1       -0.2932
      8 C         -64.8791  -37.4052  -18.9435 C.3     1  UNL1        0.0923
      9 C         -64.7894  -36.1722  -18.0361 C.3     1  UNL1        0.0252
     10 C         -64.3770  -34.8932  -18.8076 C.3     1  UNL1        0.0472
     11 C         -63.4412  -35.1898  -20.0086 C.3     1  UNL1        0.0252
     12 C         -62.6749  -36.5039  -19.8389 C.3     1  UNL1        0.0923
     13 C         -65.6144  -34.1001  -19.2600 C.3     1  UNL1        0.2054
     14 O         -66.5650  -34.0359  -18.1984 O.3     1  UNL1       -0.4755
     15 C         -67.9561  -34.0415  -18.3768 C.ar    1  UNL1        0.1388
     16 C         -68.5812  -34.7659  -19.4087 C.ar    1  UNL1        0.0369
     17 C         -69.9706  -34.7377  -19.5436 C.ar    1  UNL1        0.0033
     18 C         -70.7490  -33.9912  -18.6562 C.ar    1  UNL1        0.0066
     19 C         -70.1419  -33.2614  -17.6191 C.ar    1  UNL1        0.0785
     20 C         -68.7420  -33.2950  -17.4898 C.ar    1  UNL1        0.0433
     21 C         -70.9605  -32.4683  -16.6754 C.2     1  UNL1        0.3381
     22 O         -72.1282  -32.1097  -16.9880 O.2     1  UNL1       -0.2451
     23 O         -70.4480  -32.1100  -15.4312 O.3     1  UNL1       -0.4771
     24 H         -70.9999  -31.5672  -14.7777 H       1  UNL1        0.2954
     25 C         -62.3665  -43.1516  -23.0039 C.2     1  UNL1        0.2839
     26 O         -62.6447  -42.2957  -23.8857 O.2     1  UNL1       -0.2665
     27 N         -62.1493  -42.7404  -21.6441 N.am    1  UNL1       -0.2766
     28 H         -61.6262  -43.3874  -21.0116 H       1  UNL1        0.1553
     29 C         -60.8272  -45.4319  -21.3334 C.3     1  UNL1        0.0345
     30 C         -61.5652  -45.5816  -22.6325 C.ar    1  UNL1        0.0214
     31 C         -62.1857  -44.5691  -23.3775 C.ar    1  UNL1        0.1947
     32 O         -62.6239  -45.0574  -24.5205 O.2     1  UNL1       -0.4492
     33 C         -62.3458  -46.3358  -24.5507 C.ar    1  UNL1        0.1464
     34 C         -62.6131  -47.2149  -25.5914 C.ar    1  UNL1        0.0376
     35 C         -62.2233  -48.5521  -25.4437 C.ar    1  UNL1        0.0043
     36 C         -61.5983  -49.0007  -24.2544 C.ar    1  UNL1        0.0131
     37 C         -61.3390  -48.0799  -23.1988 C.ar    1  UNL1        0.0442
     38 N         -60.7298  -48.5142  -21.9762 N.pl3   1  UNL1       -0.3569
     39 C         -61.7170  -46.7359  -23.3961 C.ar    1  UNL1        0.0466
     40 H         -60.1213  -49.3616  -21.9474 H       1  UNL1        0.1424
     41 H         -60.9744  -48.0702  -21.0658 H       1  UNL1        0.1424
     42 C         -61.2763  -50.4401  -24.1283 C.ar    1  UNL1        0.0012
     43 C         -62.2040  -51.3234  -23.5509 C.ar    1  UNL1        0.0000
     44 C         -61.8939  -52.6799  -23.4129 C.ar    1  UNL1        0.0000
     45 C         -60.6541  -53.1623  -23.8412 C.ar    1  UNL1        0.0000
     46 C         -59.7208  -52.2882  -24.4050 C.ar    1  UNL1        0.0000
     47 C         -60.0267  -50.9310  -24.5448 C.ar    1  UNL1        0.0000
@<TRIPOS>BOND
     1    29    30    1
     2    30    31   ar
     3    31    25    1
     4    25    26    2
     5    25    27   am
     6    27     1    1
     7     1     2   ar
     8     2     3   ar
     9     3     4   ar
    10     4     7    1
    11     7     8    1
    12     8     9    1
    13     9    10    1
    14    10    13    1
    15    13    14    1
    16    14    15    1
    17    15    16   ar
    18    16    17   ar
    19    17    18   ar
    20    18    19   ar
    21    19    21    1
    22    21    22    2
    23    21    23    1
    24    19    20   ar
    25    10    11    1
    26    11    12    1
    27     4     5   ar
    28     5     6   ar
    29    31    32   ar
    30    32    33   ar
    31    33    34   ar
    32    34    35   ar
    33    35    36   ar
    34    36    42    1
    35    42    43   ar
    36    43    44   ar
    37    44    45   ar
    38    45    46   ar
    39    46    47   ar
    40    36    37   ar
    41    37    38    1
    42    37    39   ar
    43    39    30   ar
    44     6     1   ar
    45    39    33   ar
    46    12     7    1
    47    47    42   ar
    48    20    15   ar
    49    27    28    1
    50    23    24    1
    51    38    40    1
    52    38    41    1
