@<TRIPOS>MOLECULE
*****
 35 39 0 0 0
SMALL
GASTEIGER

@<TRIPOS>ATOM
      1 C         -22.9260   -8.2438  -13.1267 C.2     1  UNL1        0.2490
      2 O         -22.1998   -7.5339  -13.8751 O.2     1  UNL1       -0.2699
      3 N         -23.1013   -7.8697  -11.7451 N.am    1  UNL1       -0.2760
      4 C         -23.1465   -8.8971  -10.6939 C.3     1  UNL1        0.0954
      5 C         -22.4557   -8.4096   -9.4069 C.3     1  UNL1        0.0399
      6 C         -21.2401   -7.4810   -9.6898 C.3     1  UNL1        0.0645
      7 C         -21.6946   -6.2400  -10.5337 C.3     1  UNL1        0.0399
      8 C         -22.9870   -6.4670  -11.3380 C.3     1  UNL1        0.0954
      9 C         -20.1208   -8.2655  -10.4721 C.3     1  UNL1        0.0477
     10 C         -19.4154   -9.2266   -9.5669 C.ar    1  UNL1        0.0220
     11 C         -18.6398  -10.3269   -9.8476 C.ar    1  UNL1        0.0923
     12 N         -18.0603  -10.7324   -8.6895 N.ar    1  UNL1       -0.2534
     13 N         -18.4076   -9.9089   -7.7038 N.ar    1  UNL1       -0.1651
     14 C         -19.2310   -8.9922   -8.2402 C.ar    1  UNL1        0.1515
     15 C         -19.8380   -7.8395   -7.5923 C.2     1  UNL1        0.2650
     16 O         -19.5958   -7.5623   -6.3880 O.2     1  UNL1       -0.2684
     17 N         -20.7162   -7.0172   -8.3794 N.am    1  UNL1       -0.3023
     18 H         -21.1618   -6.1993   -7.9047 H       1  UNL1        0.1497
     19 C         -22.6217  -12.8125  -15.0389 C.ar    1  UNL1        0.2256
     20 N         -23.2497  -13.9092  -15.5489 N.ar    1  UNL1       -0.2001
     21 C         -24.6007  -13.9804  -15.6702 C.ar    1  UNL1        0.1414
     22 CL        -25.3354  -15.4250  -16.3355 Cl      1  UNL1       -0.0612
     23 C         -25.3984  -12.9087  -15.2663 C.ar    1  UNL1        0.0310
     24 C         -24.7929  -11.7625  -14.7367 C.ar    1  UNL1        0.0069
     25 C         -25.5704  -10.6742  -14.3177 C.ar    1  UNL1        0.0004
     26 C         -24.9589   -9.5338  -13.7920 C.ar    1  UNL1        0.0045
     27 C         -23.5611   -9.4582  -13.6857 C.ar    1  UNL1        0.0537
     28 C         -22.7796  -10.5546  -14.0866 C.ar    1  UNL1        0.0092
     29 C         -23.3846  -11.7062  -14.6194 C.ar    1  UNL1        0.0534
     30 C         -20.5088  -13.5458  -13.9694 C.3     1  UNL1        0.2542
     31 O         -21.2255  -12.7859  -14.9351 O.3     1  UNL1       -0.4561
     32 C         -17.1167  -11.8584   -8.5416 C.3     1  UNL1        0.0867
     33 C         -17.8171  -13.1672   -8.9498 C.3     1  UNL1        0.0244
     34 C         -15.8792  -11.6512   -9.4416 C.3     1  UNL1        0.0244
     35 C         -16.6484  -11.9538   -7.0763 C.3     1  UNL1        0.0244
@<TRIPOS>BOND
     1    30    31    1
     2    31    19    1
     3    19    20   ar
     4    20    21   ar
     5    21    22    1
     6    21    23   ar
     7    23    24   ar
     8    24    25   ar
     9    25    26   ar
    10    26    27   ar
    11    27     1    1
    12     1     2    2
    13     1     3   am
    14     3     4    1
    15     4     5    1
    16     5     6    1
    17     6     7    1
    18     7     8    1
    19     6     9    1
    20     9    10    1
    21    10    11   ar
    22    11    12   ar
    23    12    32    1
    24    32    33    1
    25    32    34    1
    26    32    35    1
    27    12    13   ar
    28    13    14   ar
    29    14    15    1
    30    15    16    2
    31    15    17   am
    32    27    28   ar
    33    28    29   ar
    34    29    19   ar
    35    29    24   ar
    36     8     3    1
    37    14    10   ar
    38    17     6    1
    39    17    18    1
@<TRIPOS>MOLECULE
*****
 35 39 0 0 0
SMALL
GASTEIGER

@<TRIPOS>ATOM
      1 C         -21.3569   -7.6149   -9.3151 C.2     1  UNL1        0.2490
      2 O         -22.4490   -7.4184   -8.7151 O.2     1  UNL1       -0.2699
      3 N         -21.1709   -7.0845  -10.6431 N.am    1  UNL1       -0.2760
      4 C         -20.4535   -7.8631  -11.6638 C.3     1  UNL1        0.0954
      5 C         -21.0780   -7.6656  -13.0575 C.3     1  UNL1        0.0399
      6 C         -22.6214   -7.4780  -13.0055 C.3     1  UNL1        0.0645
      7 C         -22.9851   -6.2518  -12.0983 C.3     1  UNL1        0.0399
      8 C         -21.8990   -5.8872  -11.0705 C.3     1  UNL1        0.0954
      9 C         -23.3127   -8.7739  -12.4373 C.3     1  UNL1        0.0477
     10 C         -23.2921   -9.8744  -13.4517 C.ar    1  UNL1        0.0220
     11 C         -23.4529  -11.2329  -13.3125 C.ar    1  UNL1        0.0923
     12 N         -23.5599  -11.7676  -14.5552 N.ar    1  UNL1       -0.2534
     13 N         -23.5139  -10.7974  -15.4645 N.ar    1  UNL1       -0.1651
     14 C         -23.3525   -9.6458  -14.7908 C.ar    1  UNL1        0.1515
     15 C         -23.3025   -8.2922  -15.3221 C.2     1  UNL1        0.2650
     16 O         -23.4532   -8.0653  -16.5516 O.2     1  UNL1       -0.2684
     17 N         -23.0879   -7.2175  -14.3915 N.am    1  UNL1       -0.3023
     18 H         -23.0374   -6.2485  -14.7805 H       1  UNL1        0.1497
     19 C         -18.3998   -8.4950   -5.4288 C.ar    1  UNL1        0.2256
     20 N         -17.4258   -9.2527   -4.8506 N.ar    1  UNL1       -0.2001
     21 C         -16.8751  -10.3259   -5.4750 C.ar    1  UNL1        0.1414
     22 CL        -15.6267  -11.2517   -4.6665 Cl      1  UNL1       -0.0612
     23 C         -17.3024  -10.6889   -6.7531 C.ar    1  UNL1        0.0310
     24 C         -18.3014   -9.9368   -7.3832 C.ar    1  UNL1        0.0069
     25 C         -18.7535  -10.2827   -8.6640 C.ar    1  UNL1        0.0004
     26 C         -19.7493   -9.5266   -9.2865 C.ar    1  UNL1        0.0045
     27 C         -20.3022   -8.4074   -8.6441 C.ar    1  UNL1        0.0537
     28 C         -19.8654   -8.0691   -7.3525 C.ar    1  UNL1        0.0092
     29 C         -18.8620   -8.8218   -6.7178 C.ar    1  UNL1        0.0534
     30 C         -18.6581   -7.1296   -3.3759 C.3     1  UNL1        0.2542
     31 O         -18.9358   -7.3968   -4.7452 O.3     1  UNL1       -0.4561
     32 C         -23.7824  -13.1934  -14.8679 C.3     1  UNL1        0.0867
     33 C         -22.4609  -13.9646  -14.6982 C.3     1  UNL1        0.0244
     34 C         -24.8402  -13.7984  -13.9195 C.3     1  UNL1        0.0244
     35 C         -24.2848  -13.3341  -16.3182 C.3     1  UNL1        0.0244
@<TRIPOS>BOND
     1    30    31    1
     2    31    19    1
     3    19    20   ar
     4    20    21   ar
     5    21    22    1
     6    21    23   ar
     7    23    24   ar
     8    24    25   ar
     9    25    26   ar
    10    26    27   ar
    11    27     1    1
    12     1     2    2
    13     1     3   am
    14     3     4    1
    15     4     5    1
    16     5     6    1
    17     6     7    1
    18     7     8    1
    19     6     9    1
    20     9    10    1
    21    10    11   ar
    22    11    12   ar
    23    12    32    1
    24    32    33    1
    25    32    34    1
    26    32    35    1
    27    12    13   ar
    28    13    14   ar
    29    14    15    1
    30    15    16    2
    31    15    17   am
    32    27    28   ar
    33    28    29   ar
    34    29    19   ar
    35    29    24   ar
    36     8     3    1
    37    14    10   ar
    38    17     6    1
    39    17    18    1
@<TRIPOS>MOLECULE
*****
 35 39 0 0 0
SMALL
GASTEIGER

@<TRIPOS>ATOM
      1 C         -22.4880   -8.4642  -13.8964 C.2     1  UNL1        0.2490
      2 O         -21.7337   -7.6464  -14.4912 O.2     1  UNL1       -0.2699
      3 N         -22.8998   -8.1940  -12.5411 N.am    1  UNL1       -0.2760
      4 C         -22.9966   -9.2846  -11.5593 C.3     1  UNL1        0.0954
      5 C         -22.5534   -8.8173  -10.1606 C.3     1  UNL1        0.0399
      6 C         -21.4073   -7.7666  -10.2111 C.3     1  UNL1        0.0645
      7 C         -21.8537   -6.5220  -11.0539 C.3     1  UNL1        0.0399
      8 C         -22.9856   -6.8147  -12.0548 C.3     1  UNL1        0.0954
      9 C         -20.1135   -8.3965  -10.8512 C.3     1  UNL1        0.0477
     10 C         -19.4568   -9.3441   -9.8965 C.ar    1  UNL1        0.0220
     11 C         -18.5436  -10.3501  -10.1086 C.ar    1  UNL1        0.0923
     12 N         -18.1027  -10.7725   -8.8967 N.ar    1  UNL1       -0.2534
     13 N         -18.6701  -10.0467   -7.9368 N.ar    1  UNL1       -0.1651
     14 C         -19.4927   -9.1767   -8.5475 C.ar    1  UNL1        0.1515
     15 C         -20.2989   -8.1262   -7.9448 C.2     1  UNL1        0.2650
     16 O         -20.2642   -7.9035   -6.7058 O.2     1  UNL1       -0.2684
     17 N         -21.1293   -7.3395   -8.8157 N.am    1  UNL1       -0.3023
     18 H         -21.7182   -6.5964   -8.3756 H       1  UNL1        0.1497
     19 C         -24.7341  -12.8886  -13.9414 C.ar    1  UNL1        0.2256
     20 N         -25.1023  -14.0043  -14.6320 N.ar    1  UNL1       -0.2001
     21 C         -24.8111  -14.1718  -15.9481 C.ar    1  UNL1        0.1414
     22 CL        -25.3185  -15.6346  -16.7678 Cl      1  UNL1       -0.0612
     23 C         -24.1123  -13.1834  -16.6429 C.ar    1  UNL1        0.0310
     24 C         -23.7152  -12.0210  -15.9705 C.ar    1  UNL1        0.0069
     25 C         -23.0177  -11.0099  -16.6455 C.ar    1  UNL1        0.0004
     26 C         -22.6237   -9.8541  -15.9675 C.ar    1  UNL1        0.0045
     27 C         -22.9112   -9.6941  -14.6027 C.ar    1  UNL1        0.0537
     28 C         -23.6272  -10.6967  -13.9276 C.ar    1  UNL1        0.0092
     29 C         -24.0263  -11.8650  -14.5998 C.ar    1  UNL1        0.0534
     30 C         -25.9280  -13.6629  -11.9115 C.3     1  UNL1        0.2542
     31 O         -25.0563  -12.7626  -12.5846 O.3     1  UNL1       -0.4561
     32 C         -17.0842  -11.8155   -8.6614 C.3     1  UNL1        0.0867
     33 C         -17.6551  -13.1861   -9.0683 C.3     1  UNL1        0.0244
     34 C         -15.8160  -11.5338   -9.4961 C.3     1  UNL1        0.0244
     35 C         -16.6967  -11.8350   -7.1698 C.3     1  UNL1        0.0244
@<TRIPOS>BOND
     1    30    31    1
     2    31    19    1
     3    19    20   ar
     4    20    21   ar
     5    21    22    1
     6    21    23   ar
     7    23    24   ar
     8    24    25   ar
     9    25    26   ar
    10    26    27   ar
    11    27     1    1
    12     1     2    2
    13     1     3   am
    14     3     4    1
    15     4     5    1
    16     5     6    1
    17     6     7    1
    18     7     8    1
    19     6     9    1
    20     9    10    1
    21    10    11   ar
    22    11    12   ar
    23    12    32    1
    24    32    33    1
    25    32    34    1
    26    32    35    1
    27    12    13   ar
    28    13    14   ar
    29    14    15    1
    30    15    16    2
    31    15    17   am
    32    27    28   ar
    33    28    29   ar
    34    29    19   ar
    35    29    24   ar
    36     8     3    1
    37    14    10   ar
    38    17     6    1
    39    17    18    1
@<TRIPOS>MOLECULE
*****
 35 39 0 0 0
SMALL
GASTEIGER

@<TRIPOS>ATOM
      1 C         -21.4637   -7.7739   -8.7869 C.2     1  UNL1        0.2490
      2 O         -22.6383   -7.8584   -8.3346 O.2     1  UNL1       -0.2699
      3 N         -21.2341   -7.1119  -10.0473 N.am    1  UNL1       -0.2760
      4 C         -20.2434   -7.6395  -10.9975 C.3     1  UNL1        0.0954
      5 C         -20.7178   -7.4658  -12.4522 C.3     1  UNL1        0.0399
      6 C         -22.2592   -7.6092  -12.6048 C.3     1  UNL1        0.0645
      7 C         -22.9908   -6.5626  -11.6948 C.3     1  UNL1        0.0399
      8 C         -22.1464   -6.0627  -10.5091 C.3     1  UNL1        0.0954
      9 C         -22.7172   -9.0621  -12.2054 C.3     1  UNL1        0.0477
     10 C         -22.3318  -10.0493  -13.2625 C.ar    1  UNL1        0.0220
     11 C         -22.2093  -11.4182  -13.2171 C.ar    1  UNL1        0.0923
     12 N         -22.0423  -11.8622  -14.4885 N.ar    1  UNL1       -0.2534
     13 N         -22.0958  -10.8343  -15.3315 N.ar    1  UNL1       -0.1651
     14 C         -22.2738   -9.7319  -14.5835 C.ar    1  UNL1        0.1515
     15 C         -22.4538   -8.3597  -15.0323 C.2     1  UNL1        0.2650
     16 O         -22.4963   -8.0717  -16.2575 O.2     1  UNL1       -0.2684
     17 N         -22.5953   -7.3418  -14.0269 N.am    1  UNL1       -0.3023
     18 H         -22.7089   -6.3557  -14.3546 H       1  UNL1        0.1497
     19 C         -17.6964  -10.9799   -8.3978 C.ar    1  UNL1        0.2256
     20 N         -16.6860  -11.5095   -7.6523 N.ar    1  UNL1       -0.2001
     21 C         -16.4203  -11.0894   -6.3882 C.ar    1  UNL1        0.1414
     22 CL        -15.1034  -11.8190   -5.4921 Cl      1  UNL1       -0.0612
     23 C         -17.1919  -10.0818   -5.8074 C.ar    1  UNL1        0.0310
     24 C         -18.2401   -9.5107   -6.5394 C.ar    1  UNL1        0.0069
     25 C         -19.0269   -8.4930   -5.9828 C.ar    1  UNL1        0.0004
     26 C         -20.0717   -7.9294   -6.7187 C.ar    1  UNL1        0.0045
     27 C         -20.3536   -8.3799   -8.0181 C.ar    1  UNL1        0.0537
     28 C         -19.5550   -9.3862   -8.5866 C.ar    1  UNL1        0.0092
     29 C         -18.5026   -9.9620   -7.8538 C.ar    1  UNL1        0.0534
     30 C         -18.0435  -12.8303  -10.0106 C.3     1  UNL1        0.2542
     31 O         -17.9322  -11.4474   -9.6965 O.3     1  UNL1       -0.4561
     32 C         -21.9087  -13.2734  -14.9021 C.3     1  UNL1        0.0867
     33 C         -21.6596  -13.3382  -16.4199 C.3     1  UNL1        0.0244
     34 C         -20.7246  -13.9432  -14.1716 C.3     1  UNL1        0.0244
     35 C         -23.1991  -14.0406  -14.5530 C.3     1  UNL1        0.0244
@<TRIPOS>BOND
     1    30    31    1
     2    31    19    1
     3    19    20   ar
     4    20    21   ar
     5    21    22    1
     6    21    23   ar
     7    23    24   ar
     8    24    25   ar
     9    25    26   ar
    10    26    27   ar
    11    27     1    1
    12     1     2    2
    13     1     3   am
    14     3     4    1
    15     4     5    1
    16     5     6    1
    17     6     7    1
    18     7     8    1
    19     6     9    1
    20     9    10    1
    21    10    11   ar
    22    11    12   ar
    23    12    32    1
    24    32    33    1
    25    32    34    1
    26    32    35    1
    27    12    13   ar
    28    13    14   ar
    29    14    15    1
    30    15    16    2
    31    15    17   am
    32    27    28   ar
    33    28    29   ar
    34    29    19   ar
    35    29    24   ar
    36     8     3    1
    37    14    10   ar
    38    17     6    1
    39    17    18    1
@<TRIPOS>MOLECULE
*****
 35 39 0 0 0
SMALL
GASTEIGER

@<TRIPOS>ATOM
      1 C         -23.8918   -6.9150  -12.1450 C.2     1  UNL1        0.2490
      2 O         -23.0302   -6.1338  -12.6336 O.2     1  UNL1       -0.2699
      3 N         -23.4874   -7.8983  -11.1708 N.am    1  UNL1       -0.2760
      4 C         -24.0702   -9.2483  -11.1871 C.3     1  UNL1        0.0954
      5 C         -23.0240  -10.3125  -10.8073 C.3     1  UNL1        0.0399
      6 C         -21.5937   -9.9563  -11.3049 C.3     1  UNL1        0.0645
      7 C         -21.1517   -8.5679  -10.7256 C.3     1  UNL1        0.0399
      8 C         -22.3226   -7.6571  -10.3154 C.3     1  UNL1        0.0954
      9 C         -21.5577   -9.9033  -12.8785 C.3     1  UNL1        0.0477
     10 C         -21.6190  -11.2824  -13.4572 C.ar    1  UNL1        0.0220
     11 C         -21.9493  -11.7174  -14.7192 C.ar    1  UNL1        0.0923
     12 N         -21.6467  -13.0380  -14.7954 N.ar    1  UNL1       -0.2534
     13 N         -21.1035  -13.4388  -13.6489 N.ar    1  UNL1       -0.1651
     14 C         -21.0860  -12.3684  -12.8363 C.ar    1  UNL1        0.1515
     15 C         -20.5389  -12.2685  -11.4919 C.2     1  UNL1        0.2650
     16 O         -19.9586  -13.2442  -10.9468 O.2     1  UNL1       -0.2684
     17 N         -20.6716  -11.0102  -10.8092 N.am    1  UNL1       -0.3023
     18 H         -20.2906  -10.9485   -9.8377 H       1  UNL1        0.1497
     19 C         -27.4046   -4.7803  -14.9244 C.ar    1  UNL1        0.2256
     20 N         -28.7080   -4.7237  -15.3183 N.ar    1  UNL1       -0.2001
     21 C         -29.6490   -5.5766  -14.8367 C.ar    1  UNL1        0.1414
     22 CL        -31.3052   -5.4415  -15.3916 Cl      1  UNL1       -0.0612
     23 C         -29.2976   -6.5552  -13.9057 C.ar    1  UNL1        0.0310
     24 C         -27.9686   -6.6476  -13.4743 C.ar    1  UNL1        0.0069
     25 C         -27.5870   -7.6248  -12.5448 C.ar    1  UNL1        0.0004
     26 C         -26.2598   -7.7097  -12.1182 C.ar    1  UNL1        0.0045
     27 C         -25.2948   -6.8139  -12.6053 C.ar    1  UNL1        0.0537
     28 C         -25.6695   -5.8456  -13.5517 C.ar    1  UNL1        0.0092
     29 C         -27.0030   -5.7499  -13.9860 C.ar    1  UNL1        0.0534
     30 C         -26.4141   -3.5416  -16.8298 C.3     1  UNL1        0.2542
     31 O         -26.4712   -3.8777  -15.4487 O.3     1  UNL1       -0.4561
     32 C         -21.8060  -13.8953  -15.9870 C.3     1  UNL1        0.0867
     33 C         -22.2408  -13.0294  -17.1833 C.3     1  UNL1        0.0244
     34 C         -20.4742  -14.5955  -16.3339 C.3     1  UNL1        0.0244
     35 C         -22.8713  -14.9744  -15.7110 C.3     1  UNL1        0.0244
@<TRIPOS>BOND
     1    30    31    1
     2    31    19    1
     3    19    20   ar
     4    20    21   ar
     5    21    22    1
     6    21    23   ar
     7    23    24   ar
     8    24    25   ar
     9    25    26   ar
    10    26    27   ar
    11    27     1    1
    12     1     2    2
    13     1     3   am
    14     3     4    1
    15     4     5    1
    16     5     6    1
    17     6     7    1
    18     7     8    1
    19     6     9    1
    20     9    10    1
    21    10    11   ar
    22    11    12   ar
    23    12    32    1
    24    32    33    1
    25    32    34    1
    26    32    35    1
    27    12    13   ar
    28    13    14   ar
    29    14    15    1
    30    15    16    2
    31    15    17   am
    32    27    28   ar
    33    28    29   ar
    34    29    19   ar
    35    29    24   ar
    36     8     3    1
    37    14    10   ar
    38    17     6    1
    39    17    18    1
