@<TRIPOS>MOLECULE
*****
 40 44 0 0 0
SMALL
GASTEIGER

@<TRIPOS>ATOM
      1 C          -9.1037   -9.9858   32.7972 C.3     1  UNL1        0.1333
      2 N          -9.2543  -11.1075   31.8698 N.ar    1  UNL1       -0.2950
      3 C         -10.2892  -11.9862   31.7636 C.ar    1  UNL1        0.2019
      4 N         -10.1538  -12.8665   30.7403 N.ar    1  UNL1       -0.2129
      5 C          -8.9638  -12.5320   30.2074 C.ar    1  UNL1        0.1094
      6 C          -8.3153  -13.1489   29.1352 C.ar    1  UNL1        0.0612
      7 BR         -9.1163  -14.6874   28.3092 Br      1  UNL1       -0.0471
      8 C          -7.0467  -12.6426   28.7466 C.ar    1  UNL1        0.0983
      9 C          -6.4752  -11.5584   29.4631 C.ar    1  UNL1        0.1787
     10 C          -7.1508  -10.9847   30.5585 C.ar    1  UNL1        0.1897
     11 C          -8.4128  -11.4830   30.8882 C.ar    1  UNL1        0.1178
     12 O          -6.5385   -9.9544   31.2786 O.3     1  UNL1       -0.4669
     13 C          -5.1541   -9.6503   31.0977 C.3     1  UNL1        0.2527
     14 C          -4.7734   -9.7782   29.6178 C.3     1  UNL1        0.2526
     15 O          -5.2316  -11.0278   29.0960 O.3     1  UNL1       -0.4682
     16 C          -6.3079  -13.2244   27.6104 C.2     1  UNL1        0.2531
     17 O          -5.2898  -12.6249   27.1706 O.2     1  UNL1       -0.2697
     18 N          -6.7476  -14.4562   27.0136 N.am    1  UNL1       -0.2803
     19 H          -7.5229  -14.9808   27.4777 H       1  UNL1        0.1552
     20 C          -6.1263  -15.0612   25.8677 C.ar    1  UNL1        0.0506
     21 C          -5.0018  -15.8761   26.0499 C.ar    1  UNL1        0.0170
     22 C          -4.3965  -16.4994   24.9578 C.ar    1  UNL1        0.0309
     23 C          -4.9134  -16.3247   23.6718 C.ar    1  UNL1        0.1441
     24 F          -4.3148  -16.9552   22.6293 F       1  UNL1       -0.2042
     25 C          -6.0489  -15.5191   23.4661 C.ar    1  UNL1        0.1000
     26 C          -6.6622  -14.9067   24.5764 C.ar    1  UNL1        0.0208
     27 C          -6.6240  -15.3724   22.0772 C.3     1  UNL1        0.4207
     28 F          -5.7530  -14.7082   21.2306 F       1  UNL1       -0.1658
     29 F          -7.8069  -14.6597   22.1451 F       1  UNL1       -0.1658
     30 F          -6.8795  -16.6221   21.5414 F       1  UNL1       -0.1658
     31 N         -11.4307  -12.0056   32.6315 N.pl3   1  UNL1       -0.2814
     32 H         -11.8651  -11.0873   32.8745 H       1  UNL1        0.1551
     33 C         -12.1009  -13.2082   33.0479 C.ar    1  UNL1        0.0889
     34 C         -13.2641  -13.6561   32.3875 C.ar    1  UNL1        0.1543
     35 F         -13.7951  -12.9517   31.3565 F       1  UNL1       -0.2028
     36 C         -13.9077  -14.8230   32.8097 C.ar    1  UNL1        0.0310
     37 C         -13.4103  -15.5464   33.8945 C.ar    1  UNL1        0.0033
     38 C         -12.2698  -15.1028   34.5664 C.ar    1  UNL1        0.0128
     39 C         -11.6164  -13.9360   34.1533 C.ar    1  UNL1        0.0733
     40 CL        -10.1672  -13.4303   35.0122 Cl      1  UNL1       -0.0809
@<TRIPOS>BOND
     1     1     2    1
     2     2     3   ar
     3     3    31    1
     4    31    33    1
     5    33    34   ar
     6    34    35    1
     7    34    36   ar
     8    36    37   ar
     9    37    38   ar
    10    38    39   ar
    11    39    40    1
    12     3     4   ar
    13     4     5   ar
    14     5     6   ar
    15     6     7    1
    16     6     8   ar
    17     8    16    1
    18    16    17    2
    19    16    18   am
    20    18    20    1
    21    20    21   ar
    22    21    22   ar
    23    22    23   ar
    24    23    24    1
    25    23    25   ar
    26    25    27    1
    27    27    28    1
    28    27    29    1
    29    27    30    1
    30    25    26   ar
    31     8     9   ar
    32     9    10   ar
    33    10    11   ar
    34    10    12    1
    35    12    13    1
    36    13    14    1
    37    14    15    1
    38    11     2   ar
    39    39    33   ar
    40    11     5   ar
    41    26    20   ar
    42    15     9    1
    43    31    32    1
    44    18    19    1
@<TRIPOS>MOLECULE
*****
 40 44 0 0 0
SMALL
GASTEIGER

@<TRIPOS>ATOM
      1 C          -7.5552  -18.6289   21.2536 C.3     1  UNL1        0.1333
      2 N          -6.9475  -17.6853   22.1925 N.ar    1  UNL1       -0.2950
      3 C          -5.7891  -16.9823   22.0570 C.ar    1  UNL1        0.2019
      4 N          -5.5475  -16.1272   23.0821 N.ar    1  UNL1       -0.2129
      5 C          -6.5940  -16.3340   23.9031 C.ar    1  UNL1        0.1094
      6 C          -6.8294  -15.7293   25.1399 C.ar    1  UNL1        0.0612
      7 BR         -5.5371  -14.4956   25.8462 Br      1  UNL1       -0.0471
      8 C          -7.9954  -16.1120   25.8545 C.ar    1  UNL1        0.0983
      9 C          -8.8591  -17.0986   25.3103 C.ar    1  UNL1        0.1787
     10 C          -8.5676  -17.7054   24.0724 C.ar    1  UNL1        0.1897
     11 C          -7.4334  -17.2771   23.3799 C.ar    1  UNL1        0.1178
     12 O          -9.4076  -18.7127   23.5879 O.3     1  UNL1       -0.4669
     13 C         -10.3932  -19.3177   24.4272 C.3     1  UNL1        0.2527
     14 C         -11.0351  -18.2618   25.3351 C.3     1  UNL1        0.2526
     15 O         -10.0238  -17.4879   25.9845 O.3     1  UNL1       -0.4682
     16 C          -8.3267  -15.5038   27.1567 C.2     1  UNL1        0.2531
     17 O          -8.6935  -16.2491   28.1050 O.2     1  UNL1       -0.2697
     18 N          -8.2346  -14.0805   27.3370 N.am    1  UNL1       -0.2803
     19 H          -7.8174  -13.5110   26.5667 H       1  UNL1        0.1552
     20 C          -8.5959  -13.3985   28.5492 C.ar    1  UNL1        0.0506
     21 C          -9.8591  -13.6245   29.1107 C.ar    1  UNL1        0.0170
     22 C         -10.2247  -12.9979   30.3028 C.ar    1  UNL1        0.0309
     23 C          -9.3293  -12.1461   30.9541 C.ar    1  UNL1        0.1441
     24 F          -9.7046  -11.5618   32.1205 F       1  UNL1       -0.2042
     25 C          -8.0507  -11.9125   30.4141 C.ar    1  UNL1        0.1000
     26 C          -7.6851  -12.5615   29.2188 C.ar    1  UNL1        0.0208
     27 C          -7.0760  -11.0235   31.1495 C.3     1  UNL1        0.4207
     28 F          -7.0462  -11.3079   32.5041 F       1  UNL1       -0.1658
     29 F          -7.4461   -9.7019   30.9816 F       1  UNL1       -0.1658
     30 F          -5.8018  -11.2040   30.6414 F       1  UNL1       -0.1658
     31 N          -4.8883  -17.1068   20.9480 N.pl3   1  UNL1       -0.2814
     32 H          -5.1745  -16.6670   20.0449 H       1  UNL1        0.1551
     33 C          -3.5611  -17.6517   21.0505 C.ar    1  UNL1        0.0889
     34 C          -2.4847  -16.8597   21.5020 C.ar    1  UNL1        0.1543
     35 F          -2.6683  -15.5559   21.8296 F       1  UNL1       -0.2028
     36 C          -1.1995  -17.4027   21.5884 C.ar    1  UNL1        0.0310
     37 C          -0.9706  -18.7285   21.2178 C.ar    1  UNL1        0.0033
     38 C          -2.0253  -19.5162   20.7530 C.ar    1  UNL1        0.0128
     39 C          -3.3166  -18.9842   20.6619 C.ar    1  UNL1        0.0733
     40 CL         -4.6197  -20.0219   20.0971 Cl      1  UNL1       -0.0809
@<TRIPOS>BOND
     1     1     2    1
     2     2     3   ar
     3     3    31    1
     4    31    33    1
     5    33    34   ar
     6    34    35    1
     7    34    36   ar
     8    36    37   ar
     9    37    38   ar
    10    38    39   ar
    11    39    40    1
    12     3     4   ar
    13     4     5   ar
    14     5     6   ar
    15     6     7    1
    16     6     8   ar
    17     8    16    1
    18    16    17    2
    19    16    18   am
    20    18    20    1
    21    20    21   ar
    22    21    22   ar
    23    22    23   ar
    24    23    24    1
    25    23    25   ar
    26    25    27    1
    27    27    28    1
    28    27    29    1
    29    27    30    1
    30    25    26   ar
    31     8     9   ar
    32     9    10   ar
    33    10    11   ar
    34    10    12    1
    35    12    13    1
    36    13    14    1
    37    14    15    1
    38    11     2   ar
    39    39    33   ar
    40    11     5   ar
    41    26    20   ar
    42    15     9    1
    43    31    32    1
    44    18    19    1
@<TRIPOS>MOLECULE
*****
 40 44 0 0 0
SMALL
GASTEIGER

@<TRIPOS>ATOM
      1 C          -8.8109  -10.2148   31.3663 C.3     1  UNL1        0.1333
      2 N          -9.0371  -11.4977   30.6999 N.ar    1  UNL1       -0.2950
      3 C         -10.0829  -12.3572   30.8487 C.ar    1  UNL1        0.2019
      4 N         -10.0293  -13.4294   30.0193 N.ar    1  UNL1       -0.2129
      5 C          -8.8796  -13.2356   29.3463 C.ar    1  UNL1        0.1094
      6 C          -8.3163  -14.0709   28.3791 C.ar    1  UNL1        0.0612
      7 BR         -9.1862  -15.7272   27.9429 Br      1  UNL1       -0.0471
      8 C          -7.0765  -13.6812   27.8065 C.ar    1  UNL1        0.0983
      9 C          -6.4464  -12.4869   28.2446 C.ar    1  UNL1        0.1787
     10 C          -7.0354  -11.6886   29.2453 C.ar    1  UNL1        0.1897
     11 C          -8.2729  -12.0824   29.7583 C.ar    1  UNL1        0.1178
     12 O          -6.3648  -10.5471   29.6949 O.3     1  UNL1       -0.4669
     13 C          -4.9955  -10.3159   29.3581 C.3     1  UNL1        0.2527
     14 C          -4.7261  -10.7494   27.9121 C.3     1  UNL1        0.2526
     15 O          -5.2299  -12.0686   27.6898 O.3     1  UNL1       -0.4682
     16 C          -6.4275  -14.4971   26.7632 C.2     1  UNL1        0.2531
     17 O          -5.3202  -15.0447   27.0146 O.2     1  UNL1       -0.2697
     18 N          -7.0505  -14.6604   25.4778 N.am    1  UNL1       -0.2803
     19 H          -8.0184  -14.2891   25.3472 H       1  UNL1        0.1552
     20 C          -6.4618  -15.3848   24.3852 C.ar    1  UNL1        0.0506
     21 C          -5.1672  -15.0549   23.9644 C.ar    1  UNL1        0.0170
     22 C          -4.5606  -15.7616   22.9251 C.ar    1  UNL1        0.0309
     23 C          -5.2355  -16.8132   22.3006 C.ar    1  UNL1        0.1441
     24 F          -4.6162  -17.4943   21.3030 F       1  UNL1       -0.2042
     25 C          -6.5329  -17.1694   22.7139 C.ar    1  UNL1        0.1000
     26 C          -7.1309  -16.4605   23.7739 C.ar    1  UNL1        0.0208
     27 C          -7.2356  -18.3356   22.0601 C.3     1  UNL1        0.4207
     28 F          -8.5297  -18.4815   22.5298 F       1  UNL1       -0.1658
     29 F          -6.5344  -19.4978   22.3232 F       1  UNL1       -0.1658
     30 F          -7.2915  -18.1416   20.6914 F       1  UNL1       -0.1658
     31 N         -11.1572  -12.1756   31.7812 N.pl3   1  UNL1       -0.2814
     32 H         -11.7726  -11.3421   31.6487 H       1  UNL1        0.1551
     33 C         -11.5303  -13.1477   32.7735 C.ar    1  UNL1        0.0889
     34 C         -12.6466  -13.9884   32.5816 C.ar    1  UNL1        0.1543
     35 F         -13.4121  -13.8866   31.4660 F       1  UNL1       -0.2028
     36 C         -13.0002  -14.9226   33.5595 C.ar    1  UNL1        0.0310
     37 C         -12.2580  -15.0220   34.7372 C.ar    1  UNL1        0.0033
     38 C         -11.1618  -14.1830   34.9452 C.ar    1  UNL1        0.0128
     39 C         -10.7977  -13.2435   33.9737 C.ar    1  UNL1        0.0733
     40 CL         -9.3928  -12.2266   34.2667 Cl      1  UNL1       -0.0809
@<TRIPOS>BOND
     1     1     2    1
     2     2     3   ar
     3     3    31    1
     4    31    33    1
     5    33    34   ar
     6    34    35    1
     7    34    36   ar
     8    36    37   ar
     9    37    38   ar
    10    38    39   ar
    11    39    40    1
    12     3     4   ar
    13     4     5   ar
    14     5     6   ar
    15     6     7    1
    16     6     8   ar
    17     8    16    1
    18    16    17    2
    19    16    18   am
    20    18    20    1
    21    20    21   ar
    22    21    22   ar
    23    22    23   ar
    24    23    24    1
    25    23    25   ar
    26    25    27    1
    27    27    28    1
    28    27    29    1
    29    27    30    1
    30    25    26   ar
    31     8     9   ar
    32     9    10   ar
    33    10    11   ar
    34    10    12    1
    35    12    13    1
    36    13    14    1
    37    14    15    1
    38    11     2   ar
    39    39    33   ar
    40    11     5   ar
    41    26    20   ar
    42    15     9    1
    43    31    32    1
    44    18    19    1
@<TRIPOS>MOLECULE
*****
 40 44 0 0 0
SMALL
GASTEIGER

@<TRIPOS>ATOM
      1 C          -8.6083  -10.0711   32.2989 C.3     1  UNL1        0.1333
      2 N          -8.8589  -11.2429   31.4591 N.ar    1  UNL1       -0.2950
      3 C          -9.9114  -12.1060   31.5011 C.ar    1  UNL1        0.2019
      4 N          -9.8827  -13.0482   30.5253 N.ar    1  UNL1       -0.2129
      5 C          -8.7420  -12.7691   29.8673 C.ar    1  UNL1        0.1094
      6 C          -8.2032  -13.4612   28.7803 C.ar    1  UNL1        0.0612
      7 BR         -9.0979  -15.0303   28.1258 Br      1  UNL1       -0.0471
      8 C          -6.9687  -13.0036   28.2481 C.ar    1  UNL1        0.0983
      9 C          -6.3188  -11.8900   28.8423 C.ar    1  UNL1        0.1787
     10 C          -6.8831  -11.2392   29.9574 C.ar    1  UNL1        0.1897
     11 C          -8.1163  -11.6923   30.4300 C.ar    1  UNL1        0.1178
     12 O          -6.1931  -10.1799   30.5547 O.3     1  UNL1       -0.4669
     13 C          -4.8270   -9.9141   30.2307 C.3     1  UNL1        0.2527
     14 C          -4.5854  -10.1372   28.7330 C.3     1  UNL1        0.2526
     15 O          -5.1070  -11.4064   28.3322 O.3     1  UNL1       -0.4682
     16 C          -6.3454  -13.6662   27.0872 C.2     1  UNL1        0.2531
     17 O          -5.1273  -13.4532   26.8417 O.2     1  UNL1       -0.2697
     18 N          -7.1201  -14.5394   26.2480 N.am    1  UNL1       -0.2803
     19 H          -8.0909  -14.7812   26.5495 H       1  UNL1        0.1552
     20 C          -6.6119  -15.1765   25.0643 C.ar    1  UNL1        0.0506
     21 C          -7.1968  -14.8842   23.8256 C.ar    1  UNL1        0.0170
     22 C          -6.7041  -15.4664   22.6568 C.ar    1  UNL1        0.0309
     23 C          -5.6147  -16.3393   22.7099 C.ar    1  UNL1        0.1441
     24 F          -5.1455  -16.8792   21.5563 F       1  UNL1       -0.2042
     25 C          -5.0043  -16.6391   23.9421 C.ar    1  UNL1        0.1000
     26 C          -5.4987  -16.0347   25.1143 C.ar    1  UNL1        0.0208
     27 C          -3.8005  -17.5505   23.9817 C.3     1  UNL1        0.4207
     28 F          -3.3737  -17.7779   25.2789 F       1  UNL1       -0.1658
     29 F          -2.7660  -16.9727   23.2691 F       1  UNL1       -0.1658
     30 F          -4.1169  -18.7701   23.4102 F       1  UNL1       -0.1658
     31 N         -10.9686  -12.0516   32.4686 N.pl3   1  UNL1       -0.2814
     32 H         -11.3146  -11.1069   32.7494 H       1  UNL1        0.1551
     33 C         -11.6804  -13.2074   32.9442 C.ar    1  UNL1        0.0889
     34 C         -12.8112  -13.6964   32.2572 C.ar    1  UNL1        0.1543
     35 F         -13.2715  -13.0754   31.1421 F       1  UNL1       -0.2028
     36 C         -13.4961  -14.8165   32.7372 C.ar    1  UNL1        0.0310
     37 C         -13.0726  -15.4515   33.9056 C.ar    1  UNL1        0.0033
     38 C         -11.9652  -14.9656   34.6030 C.ar    1  UNL1        0.0128
     39 C         -11.2710  -13.8449   34.1326 C.ar    1  UNL1        0.0733
     40 CL         -9.8650  -13.2849   35.0288 Cl      1  UNL1       -0.0809
@<TRIPOS>BOND
     1     1     2    1
     2     2     3   ar
     3     3    31    1
     4    31    33    1
     5    33    34   ar
     6    34    35    1
     7    34    36   ar
     8    36    37   ar
     9    37    38   ar
    10    38    39   ar
    11    39    40    1
    12     3     4   ar
    13     4     5   ar
    14     5     6   ar
    15     6     7    1
    16     6     8   ar
    17     8    16    1
    18    16    17    2
    19    16    18   am
    20    18    20    1
    21    20    21   ar
    22    21    22   ar
    23    22    23   ar
    24    23    24    1
    25    23    25   ar
    26    25    27    1
    27    27    28    1
    28    27    29    1
    29    27    30    1
    30    25    26   ar
    31     8     9   ar
    32     9    10   ar
    33    10    11   ar
    34    10    12    1
    35    12    13    1
    36    13    14    1
    37    14    15    1
    38    11     2   ar
    39    39    33   ar
    40    11     5   ar
    41    26    20   ar
    42    15     9    1
    43    31    32    1
    44    18    19    1
@<TRIPOS>MOLECULE
*****
 40 44 0 0 0
SMALL
GASTEIGER

@<TRIPOS>ATOM
      1 C          -7.8536  -18.2840   21.4371 C.3     1  UNL1        0.1333
      2 N          -7.1585  -17.3371   22.3097 N.ar    1  UNL1       -0.2950
      3 C          -6.0434  -16.6018   22.0446 C.ar    1  UNL1        0.2019
      4 N          -5.6987  -15.7542   23.0462 N.ar    1  UNL1       -0.2129
      5 C          -6.6307  -15.9996   23.9860 C.ar    1  UNL1        0.1094
      6 C          -6.7270  -15.4178   25.2520 C.ar    1  UNL1        0.0612
      7 BR         -5.3885  -14.1597   25.8145 Br      1  UNL1       -0.0471
      8 C          -7.7862  -15.8409   26.0980 C.ar    1  UNL1        0.0983
      9 C          -8.6856  -16.8428   25.6477 C.ar    1  UNL1        0.1787
     10 C          -8.5339  -17.4251   24.3736 C.ar    1  UNL1        0.1897
     11 C          -7.5045  -16.9577   23.5542 C.ar    1  UNL1        0.1178
     12 O          -9.4018  -18.4480   23.9794 O.3     1  UNL1       -0.4669
     13 C         -10.2613  -19.0900   24.9233 C.3     1  UNL1        0.2527
     14 C         -10.8126  -18.0637   25.9203 C.3     1  UNL1        0.2526
     15 O          -9.7484  -17.2718   26.4533 O.3     1  UNL1       -0.4682
     16 C          -7.9697  -15.2590   27.4408 C.2     1  UNL1        0.2531
     17 O          -7.5031  -15.8681   28.4410 O.2     1  UNL1       -0.2697
     18 N          -8.6741  -14.0163   27.6028 N.am    1  UNL1       -0.2803
     19 H          -8.9433  -13.4854   26.7440 H       1  UNL1        0.1552
     20 C          -8.9519  -13.4095   28.8755 C.ar    1  UNL1        0.0506
     21 C          -8.0886  -12.4212   29.3651 C.ar    1  UNL1        0.0170
     22 C          -8.3507  -11.7949   30.5844 C.ar    1  UNL1        0.0309
     23 C          -9.4840  -12.1408   31.3244 C.ar    1  UNL1        0.1441
     24 F          -9.7237  -11.5048   32.4994 F       1  UNL1       -0.2042
     25 C         -10.3713  -13.1234   30.8470 C.ar    1  UNL1        0.1000
     26 C         -10.1067  -13.7388   29.6080 C.ar    1  UNL1        0.0208
     27 C         -11.6156  -13.4581   31.6349 C.3     1  UNL1        0.4207
     28 F         -12.6716  -12.6278   31.3003 F       1  UNL1       -0.1658
     29 F         -11.3528  -13.3195   32.9853 F       1  UNL1       -0.1658
     30 F         -11.9946  -14.7641   31.3801 F       1  UNL1       -0.1658
     31 N          -5.2831  -16.6876   20.8316 N.pl3   1  UNL1       -0.2814
     32 H          -5.4917  -15.9891   20.0835 H       1  UNL1        0.1551
     33 C          -4.1554  -17.5622   20.6524 C.ar    1  UNL1        0.0889
     34 C          -4.3014  -18.8131   20.0170 C.ar    1  UNL1        0.1543
     35 F          -5.5142  -19.2348   19.5787 F       1  UNL1       -0.2028
     36 C          -3.1964  -19.6544   19.8577 C.ar    1  UNL1        0.0310
     37 C          -1.9439  -19.2674   20.3362 C.ar    1  UNL1        0.0033
     38 C          -1.7916  -18.0392   20.9821 C.ar    1  UNL1        0.0128
     39 C          -2.8902  -17.1879   21.1478 C.ar    1  UNL1        0.0733
     40 CL         -2.6455  -15.6382   21.9429 Cl      1  UNL1       -0.0809
@<TRIPOS>BOND
     1     1     2    1
     2     2     3   ar
     3     3    31    1
     4    31    33    1
     5    33    34   ar
     6    34    35    1
     7    34    36   ar
     8    36    37   ar
     9    37    38   ar
    10    38    39   ar
    11    39    40    1
    12     3     4   ar
    13     4     5   ar
    14     5     6   ar
    15     6     7    1
    16     6     8   ar
    17     8    16    1
    18    16    17    2
    19    16    18   am
    20    18    20    1
    21    20    21   ar
    22    21    22   ar
    23    22    23   ar
    24    23    24    1
    25    23    25   ar
    26    25    27    1
    27    27    28    1
    28    27    29    1
    29    27    30    1
    30    25    26   ar
    31     8     9   ar
    32     9    10   ar
    33    10    11   ar
    34    10    12    1
    35    12    13    1
    36    13    14    1
    37    14    15    1
    38    11     2   ar
    39    39    33   ar
    40    11     5   ar
    41    26    20   ar
    42    15     9    1
    43    31    32    1
    44    18    19    1
