@<TRIPOS>MOLECULE
*****
 37 42 0 0 0
SMALL
GASTEIGER

@<TRIPOS>ATOM
      1 C         -20.2326   -8.5310   -8.1909 C.ar    1  UNL1        0.1720
      2 N         -20.9914   -7.6621   -8.9322 N.ar    1  UNL1       -0.2133
      3 C         -21.3354   -7.9290  -10.2276 C.ar    1  UNL1        0.1376
      4 C         -20.8599   -9.1177  -10.7885 C.ar    1  UNL1        0.0865
      5 C         -20.9155   -9.7294  -12.0367 C.ar    1  UNL1        0.1095
      6 N         -20.2595  -10.9151  -11.9687 N.ar    1  UNL1       -0.1677
      7 N         -19.8032  -11.0659  -10.7313 N.ar    1  UNL1       -0.2319
      8 C         -18.9764  -12.1815  -10.2915 C.3     1  UNL1        0.1554
      9 C         -20.1386   -9.9789  -10.0202 C.ar    1  UNL1        0.1650
     10 N         -19.8029   -9.7081   -8.7364 N.ar    1  UNL1       -0.2095
     11 C         -21.4413   -9.1748  -13.2934 C.ar    1  UNL1        0.0577
     12 C         -21.0335   -8.0165  -13.9288 C.ar    1  UNL1        0.1231
     13 N         -21.8058   -7.8066  -15.0136 N.ar    1  UNL1       -0.1676
     14 N         -22.6803   -8.7985  -15.0875 N.ar    1  UNL1       -0.2488
     15 C         -23.7080   -8.8879  -16.1190 C.3     1  UNL1        0.1537
     16 C         -22.4881   -9.6527  -14.0600 C.ar    1  UNL1        0.0809
     17 C         -23.3345  -10.8217  -13.7588 C.ar    1  UNL1        0.0174
     18 C         -23.1887  -12.0053  -14.4960 C.ar    1  UNL1        0.0012
     19 C         -23.9947  -13.1125  -14.2168 C.ar    1  UNL1       -0.0042
     20 C         -24.9629  -13.0450  -13.2033 C.ar    1  UNL1       -0.0218
     21 C         -25.8014  -14.2451  -12.8782 C.3     1  UNL1        0.0310
     22 C         -25.0917  -11.8675  -12.4508 C.ar    1  UNL1       -0.0042
     23 C         -24.2851  -10.7606  -12.7305 C.ar    1  UNL1        0.0012
     24 N         -22.2208   -7.0474  -10.9276 N.pl3   1  UNL1       -0.2917
     25 C         -21.9619   -5.6207  -11.0600 C.3     1  UNL1        0.0937
     26 C         -23.3001   -4.9953  -11.4503 C.3     1  UNL1        0.0391
     27 C         -24.1449   -6.1640  -11.9489 C.3     1  UNL1        0.0790
     28 C         -23.6214   -7.3630  -11.1509 C.3     1  UNL1        0.1081
     29 N         -25.6010   -5.8481  -11.8725 N.3     1  UNL1       -0.2723
     30 C         -26.5400   -6.8965  -11.4119 C.3     1  UNL1        0.0721
     31 C         -26.9605   -7.8641  -12.5394 C.3     1  UNL1        0.0174
     32 C         -27.4403   -7.1076  -13.7803 C.3     1  UNL1        0.0029
     33 C         -26.4106   -6.0624  -14.2092 C.3     1  UNL1        0.0174
     34 C         -26.1155   -5.1130  -13.0458 C.3     1  UNL1        0.0721
     35 C         -19.8541   -8.1795   -6.7856 C.3     1  UNL1        0.2074
     36 C         -17.9592   -7.4947   -5.6402 C.3     1  UNL1        0.1747
     37 O         -18.7637   -7.2790   -6.7796 O.3     1  UNL1       -0.3430
@<TRIPOS>BOND
     1    36    37    1
     2    37    35    1
     3    35     1    1
     4     1     2   ar
     5     2     3   ar
     6     3    24    1
     7    24    25    1
     8    25    26    1
     9    26    27    1
    10    27    29    1
    11    29    30    1
    12    30    31    1
    13    31    32    1
    14    32    33    1
    15    33    34    1
    16    27    28    1
    17     3     4   ar
    18     4     5   ar
    19     5    11    1
    20    11    12   ar
    21    12    13   ar
    22    13    14   ar
    23    14    15    1
    24    14    16   ar
    25    16    17    1
    26    17    18   ar
    27    18    19   ar
    28    19    20   ar
    29    20    21    1
    30    20    22   ar
    31    22    23   ar
    32     5     6   ar
    33     6     7   ar
    34     7     8    1
    35     7     9   ar
    36     9    10   ar
    37    10     1   ar
    38    28    24    1
    39     9     4   ar
    40    34    29    1
    41    16    11   ar
    42    23    17   ar
@<TRIPOS>MOLECULE
*****
 37 42 0 0 0
SMALL
GASTEIGER

@<TRIPOS>ATOM
      1 C         -26.6813   -6.1928  -14.0379 C.ar    1  UNL1        0.1720
      2 N         -25.6526   -6.9177  -14.5827 N.ar    1  UNL1       -0.2133
      3 C         -25.0018   -7.8899  -13.8764 C.ar    1  UNL1        0.1376
      4 C         -25.4047   -8.1054  -12.5554 C.ar    1  UNL1        0.0865
      5 C         -24.9945   -8.9163  -11.5022 C.ar    1  UNL1        0.1095
      6 N         -25.8022   -8.6858  -10.4367 N.ar    1  UNL1       -0.1677
      7 N         -26.6973   -7.7697  -10.7857 N.ar    1  UNL1       -0.2319
      8 C         -27.6869   -7.2020   -9.8801 C.3     1  UNL1        0.1554
      9 C         -26.4514   -7.3969  -12.0507 C.ar    1  UNL1        0.1650
     10 N         -27.0925   -6.4359  -12.7575 N.ar    1  UNL1       -0.2095
     11 C         -23.8065   -9.7809  -11.4355 C.ar    1  UNL1        0.0577
     12 C         -23.7801  -11.1633  -11.4396 C.ar    1  UNL1        0.1231
     13 N         -22.5088  -11.5862  -11.2899 N.ar    1  UNL1       -0.1676
     14 N         -21.7330  -10.5164  -11.2006 N.ar    1  UNL1       -0.2488
     15 C         -20.2906  -10.5855  -10.9943 C.3     1  UNL1        0.1537
     16 C         -22.4858   -9.3992  -11.2880 C.ar    1  UNL1        0.0809
     17 C         -21.9822   -8.0225  -11.1318 C.ar    1  UNL1        0.0174
     18 C         -21.9784   -7.4131   -9.8692 C.ar    1  UNL1        0.0012
     19 C         -21.5078   -6.1055   -9.7198 C.ar    1  UNL1       -0.0042
     20 C         -21.0448   -5.3889  -10.8339 C.ar    1  UNL1       -0.0218
     21 C         -20.5045   -3.9998  -10.6676 C.3     1  UNL1        0.0310
     22 C         -21.0275   -6.0083  -12.0931 C.ar    1  UNL1       -0.0042
     23 C         -21.4981   -7.3162  -12.2415 C.ar    1  UNL1        0.0012
     24 N         -24.0092   -8.6971  -14.5201 N.pl3   1  UNL1       -0.2917
     25 C         -22.9640   -8.1306  -15.3607 C.3     1  UNL1        0.0937
     26 C         -22.4235   -9.2973  -16.1858 C.3     1  UNL1        0.0391
     27 C         -22.8933  -10.5468  -15.4469 C.3     1  UNL1        0.0790
     28 C         -24.2060  -10.1118  -14.7865 C.3     1  UNL1        0.1081
     29 N         -22.9191  -11.7316  -16.3532 N.3     1  UNL1       -0.2723
     30 C         -24.1728  -12.5089  -16.4836 C.3     1  UNL1        0.0721
     31 C         -24.3534  -13.5513  -15.3588 C.3     1  UNL1        0.0174
     32 C         -23.1040  -14.4190  -15.1901 C.3     1  UNL1        0.0029
     33 C         -21.8567  -13.5486  -15.0373 C.3     1  UNL1        0.0174
     34 C         -21.7317  -12.6020  -16.2331 C.3     1  UNL1        0.0721
     35 C         -27.3422   -5.1155  -14.8405 C.3     1  UNL1        0.2074
     36 C         -26.6640   -3.5596  -16.4185 C.3     1  UNL1        0.1747
     37 O         -26.4218   -4.0817  -15.1299 O.3     1  UNL1       -0.3430
@<TRIPOS>BOND
     1    36    37    1
     2    37    35    1
     3    35     1    1
     4     1     2   ar
     5     2     3   ar
     6     3    24    1
     7    24    25    1
     8    25    26    1
     9    26    27    1
    10    27    29    1
    11    29    30    1
    12    30    31    1
    13    31    32    1
    14    32    33    1
    15    33    34    1
    16    27    28    1
    17     3     4   ar
    18     4     5   ar
    19     5    11    1
    20    11    12   ar
    21    12    13   ar
    22    13    14   ar
    23    14    15    1
    24    14    16   ar
    25    16    17    1
    26    17    18   ar
    27    18    19   ar
    28    19    20   ar
    29    20    21    1
    30    20    22   ar
    31    22    23   ar
    32     5     6   ar
    33     6     7   ar
    34     7     8    1
    35     7     9   ar
    36     9    10   ar
    37    10     1   ar
    38    28    24    1
    39     9     4   ar
    40    34    29    1
    41    16    11   ar
    42    23    17   ar
@<TRIPOS>MOLECULE
*****
 37 42 0 0 0
SMALL
GASTEIGER

@<TRIPOS>ATOM
      1 C         -19.4630  -11.6912  -10.3701 C.ar    1  UNL1        0.1720
      2 N         -20.5280  -11.9193  -11.2033 N.ar    1  UNL1       -0.2133
      3 C         -21.5651  -11.0354  -11.3073 C.ar    1  UNL1        0.1376
      4 C         -21.5184   -9.8906  -10.5067 C.ar    1  UNL1        0.0865
      5 C         -22.3530   -8.8053  -10.2604 C.ar    1  UNL1        0.1095
      6 N         -21.7452   -7.9840   -9.3677 N.ar    1  UNL1       -0.1677
      7 N         -20.5686   -8.5120   -9.0533 N.ar    1  UNL1       -0.2319
      8 C         -19.6592   -7.9576   -8.0596 C.3     1  UNL1        0.1554
      9 C         -20.4334   -9.6710   -9.7150 C.ar    1  UNL1        0.1650
     10 N         -19.4086  -10.5512   -9.6184 N.ar    1  UNL1       -0.2095
     11 C         -23.7312   -8.5986  -10.7308 C.ar    1  UNL1        0.0577
     12 C         -24.8918   -8.7147   -9.9883 C.ar    1  UNL1        0.1231
     13 N         -25.9570   -8.5217  -10.7918 N.ar    1  UNL1       -0.1676
     14 N         -25.5057   -8.2793  -12.0131 N.ar    1  UNL1       -0.2488
     15 C         -26.3771   -8.0571  -13.1618 C.3     1  UNL1        0.1537
     16 C         -24.1563   -8.3146  -12.0155 C.ar    1  UNL1        0.0809
     17 C         -23.3063   -8.1877  -13.2133 C.ar    1  UNL1        0.0174
     18 C         -23.8636   -8.3361  -14.4912 C.ar    1  UNL1        0.0012
     19 C         -23.0585   -8.2230  -15.6280 C.ar    1  UNL1       -0.0042
     20 C         -21.6842   -7.9699  -15.4991 C.ar    1  UNL1       -0.0218
     21 C         -20.8275   -7.8107  -16.7197 C.3     1  UNL1        0.0310
     22 C         -21.1322   -7.7984  -14.2204 C.ar    1  UNL1       -0.0042
     23 C         -21.9382   -7.9115  -13.0839 C.ar    1  UNL1        0.0012
     24 N         -22.6007  -11.2596  -12.2708 N.pl3   1  UNL1       -0.2917
     25 C         -23.9392  -11.6924  -11.8953 C.3     1  UNL1        0.0937
     26 C         -24.5696  -12.2350  -13.1768 C.3     1  UNL1        0.0391
     27 C         -23.7081  -11.6716  -14.3030 C.3     1  UNL1        0.0790
     28 C         -22.3193  -11.5336  -13.6698 C.3     1  UNL1        0.1081
     29 N         -23.8389  -12.4903  -15.5433 N.3     1  UNL1       -0.2723
     30 C         -24.8545  -13.5670  -15.5895 C.3     1  UNL1        0.0721
     31 C         -24.3637  -14.8839  -14.9497 C.3     1  UNL1        0.0174
     32 C         -22.9971  -15.3007  -15.4981 C.3     1  UNL1        0.0029
     33 C         -21.9977  -14.1485  -15.3948 C.3     1  UNL1        0.0174
     34 C         -22.5462  -12.9161  -16.1174 C.3     1  UNL1        0.0721
     35 C         -18.3661  -12.7049  -10.2662 C.3     1  UNL1        0.2074
     36 C         -16.5096  -12.1849   -8.9801 C.3     1  UNL1        0.1747
     37 O         -17.8203  -12.7081   -8.9617 O.3     1  UNL1       -0.3430
@<TRIPOS>BOND
     1    36    37    1
     2    37    35    1
     3    35     1    1
     4     1     2   ar
     5     2     3   ar
     6     3    24    1
     7    24    25    1
     8    25    26    1
     9    26    27    1
    10    27    29    1
    11    29    30    1
    12    30    31    1
    13    31    32    1
    14    32    33    1
    15    33    34    1
    16    27    28    1
    17     3     4   ar
    18     4     5   ar
    19     5    11    1
    20    11    12   ar
    21    12    13   ar
    22    13    14   ar
    23    14    15    1
    24    14    16   ar
    25    16    17    1
    26    17    18   ar
    27    18    19   ar
    28    19    20   ar
    29    20    21    1
    30    20    22   ar
    31    22    23   ar
    32     5     6   ar
    33     6     7   ar
    34     7     8    1
    35     7     9   ar
    36     9    10   ar
    37    10     1   ar
    38    28    24    1
    39     9     4   ar
    40    34    29    1
    41    16    11   ar
    42    23    17   ar
@<TRIPOS>MOLECULE
*****
 37 42 0 0 0
SMALL
GASTEIGER

@<TRIPOS>ATOM
      1 C         -18.6291  -10.8190   -9.3806 C.ar    1  UNL1        0.1720
      2 N         -19.2598  -10.5395  -10.5658 N.ar    1  UNL1       -0.2133
      3 C         -19.9386   -9.3699  -10.7636 C.ar    1  UNL1        0.1376
      4 C         -19.9937   -8.4687   -9.6966 C.ar    1  UNL1        0.0865
      5 C         -20.6005   -7.2411   -9.4520 C.ar    1  UNL1        0.1095
      6 N         -20.2703   -6.8353   -8.2001 N.ar    1  UNL1       -0.1677
      7 N         -19.4823   -7.7571   -7.6601 N.ar    1  UNL1       -0.2319
      8 C         -18.9870   -7.7137   -6.2910 C.3     1  UNL1        0.1554
      9 C         -19.3295   -8.7549   -8.5436 C.ar    1  UNL1        0.1650
     10 N         -18.6575   -9.9156   -8.3556 N.ar    1  UNL1       -0.2095
     11 C         -21.5680   -6.5256  -10.2977 C.ar    1  UNL1        0.0577
     12 C         -21.3832   -5.3106  -10.9312 C.ar    1  UNL1        0.1231
     13 N         -22.5258   -4.9512  -11.5499 N.ar    1  UNL1       -0.1676
     14 N         -23.4209   -5.9033  -11.3344 N.ar    1  UNL1       -0.2488
     15 C         -24.7937   -5.8405  -11.8238 C.3     1  UNL1        0.1537
     16 C         -22.8746   -6.8797  -10.5790 C.ar    1  UNL1        0.0809
     17 C         -23.5979   -8.0533  -10.0567 C.ar    1  UNL1        0.0174
     18 C         -23.1802   -8.6657   -8.8667 C.ar    1  UNL1        0.0012
     19 C         -23.8601   -9.7826   -8.3732 C.ar    1  UNL1       -0.0042
     20 C         -24.9601  -10.3060   -9.0700 C.ar    1  UNL1       -0.0218
     21 C         -25.7130  -11.4810   -8.5208 C.3     1  UNL1        0.0310
     22 C         -25.3913   -9.6779  -10.2486 C.ar    1  UNL1       -0.0042
     23 C         -24.7108   -8.5607  -10.7413 C.ar    1  UNL1        0.0012
     24 N         -20.4871   -9.0718  -12.0525 N.pl3   1  UNL1       -0.2917
     25 C         -20.2343   -7.8129  -12.7388 C.3     1  UNL1        0.0937
     26 C         -21.3154   -7.7069  -13.8132 C.3     1  UNL1        0.0391
     27 C         -21.8548   -9.1262  -13.9636 C.3     1  UNL1        0.0790
     28 C         -21.6684   -9.7399  -12.5717 C.3     1  UNL1        0.1081
     29 N         -23.2247   -9.1228  -14.5545 N.3     1  UNL1       -0.2723
     30 C         -24.2310  -10.0797  -14.0403 C.3     1  UNL1        0.0721
     31 C         -24.1166  -11.4774  -14.6868 C.3     1  UNL1        0.0174
     32 C         -24.0728  -11.3890  -16.2140 C.3     1  UNL1        0.0029
     33 C         -22.9967  -10.4031  -16.6688 C.3     1  UNL1        0.0174
     34 C         -23.2394   -9.0344  -16.0289 C.3     1  UNL1        0.0721
     35 C         -17.9254  -12.1281   -9.2002 C.3     1  UNL1        0.2074
     36 C         -15.6169  -12.1915   -9.0051 C.3     1  UNL1        0.1747
     37 O         -16.8310  -11.9816   -8.3167 O.3     1  UNL1       -0.3430
@<TRIPOS>BOND
     1    36    37    1
     2    37    35    1
     3    35     1    1
     4     1     2   ar
     5     2     3   ar
     6     3    24    1
     7    24    25    1
     8    25    26    1
     9    26    27    1
    10    27    29    1
    11    29    30    1
    12    30    31    1
    13    31    32    1
    14    32    33    1
    15    33    34    1
    16    27    28    1
    17     3     4   ar
    18     4     5   ar
    19     5    11    1
    20    11    12   ar
    21    12    13   ar
    22    13    14   ar
    23    14    15    1
    24    14    16   ar
    25    16    17    1
    26    17    18   ar
    27    18    19   ar
    28    19    20   ar
    29    20    21    1
    30    20    22   ar
    31    22    23   ar
    32     5     6   ar
    33     6     7   ar
    34     7     8    1
    35     7     9   ar
    36     9    10   ar
    37    10     1   ar
    38    28    24    1
    39     9     4   ar
    40    34    29    1
    41    16    11   ar
    42    23    17   ar
@<TRIPOS>MOLECULE
*****
 37 42 0 0 0
SMALL
GASTEIGER

@<TRIPOS>ATOM
      1 C         -25.2130  -13.3579  -13.8233 C.ar    1  UNL1        0.1720
      2 N         -25.4032  -12.1732  -13.1596 N.ar    1  UNL1       -0.2133
      3 C         -24.3829  -11.2861  -12.9598 C.ar    1  UNL1        0.1376
      4 C         -23.1176  -11.6420  -13.4353 C.ar    1  UNL1        0.0865
      5 C         -21.8412  -11.0903  -13.3975 C.ar    1  UNL1        0.1095
      6 N         -20.9925  -11.9135  -14.0630 N.ar    1  UNL1       -0.1677
      7 N         -21.6890  -12.9494  -14.5146 N.ar    1  UNL1       -0.2319
      8 C         -21.1071  -14.0891  -15.2104 C.3     1  UNL1        0.1554
      9 C         -22.9636  -12.8073  -14.1215 C.ar    1  UNL1        0.1650
     10 N         -23.9801  -13.6807  -14.3168 N.ar    1  UNL1       -0.2095
     11 C         -21.3894   -9.9054  -12.6524 C.ar    1  UNL1        0.0577
     12 C         -20.8513   -9.8762  -11.3791 C.ar    1  UNL1        0.1231
     13 N         -20.6320   -8.5965  -11.0162 N.ar    1  UNL1       -0.1676
     14 N         -21.0058   -7.8196  -12.0216 N.ar    1  UNL1       -0.2488
     15 C         -20.9477   -6.3627  -11.9753 C.3     1  UNL1        0.1537
     16 C         -21.4693   -8.5795  -13.0365 C.ar    1  UNL1        0.0809
     17 C         -22.0631   -8.0607  -14.2822 C.ar    1  UNL1        0.0174
     18 C         -23.3478   -7.4995  -14.2694 C.ar    1  UNL1        0.0012
     19 C         -23.9156   -7.0134  -15.4504 C.ar    1  UNL1       -0.0042
     20 C         -23.2084   -7.0922  -16.6599 C.ar    1  UNL1       -0.0218
     21 C         -23.8020   -6.5361  -17.9199 C.3     1  UNL1        0.0310
     22 C         -21.9134   -7.6329  -16.6669 C.ar    1  UNL1       -0.0042
     23 C         -21.3462   -8.1187  -15.4853 C.ar    1  UNL1        0.0012
     24 N         -24.6504  -10.0132  -12.3604 N.pl3   1  UNL1       -0.2917
     25 C         -24.3593   -9.7296  -10.9623 C.3     1  UNL1        0.0937
     26 C         -25.1753   -8.4847  -10.6177 C.3     1  UNL1        0.0391
     27 C         -25.5418   -7.8740  -11.9669 C.3     1  UNL1        0.0790
     28 C         -25.6216   -9.0813  -12.9076 C.3     1  UNL1        0.1081
     29 N         -26.7382   -6.9901  -11.8518 N.3     1  UNL1       -0.2723
     30 C         -28.0263   -7.4471  -12.4218 C.3     1  UNL1        0.0721
     31 C         -28.1477   -7.1648  -13.9350 C.3     1  UNL1        0.0174
     32 C         -27.8085   -5.7093  -14.2648 C.3     1  UNL1        0.0029
     33 C         -26.4576   -5.3188  -13.6655 C.3     1  UNL1        0.0174
     34 C         -26.4643   -5.5709  -12.1561 C.3     1  UNL1        0.0721
     35 C         -26.3546  -14.3123  -13.9891 C.3     1  UNL1        0.2074
     36 C         -26.4458  -14.5503  -11.6855 C.3     1  UNL1        0.1747
     37 O         -27.1937  -14.2791  -12.8512 O.3     1  UNL1       -0.3430
@<TRIPOS>BOND
     1    36    37    1
     2    37    35    1
     3    35     1    1
     4     1     2   ar
     5     2     3   ar
     6     3    24    1
     7    24    25    1
     8    25    26    1
     9    26    27    1
    10    27    29    1
    11    29    30    1
    12    30    31    1
    13    31    32    1
    14    32    33    1
    15    33    34    1
    16    27    28    1
    17     3     4   ar
    18     4     5   ar
    19     5    11    1
    20    11    12   ar
    21    12    13   ar
    22    13    14   ar
    23    14    15    1
    24    14    16   ar
    25    16    17    1
    26    17    18   ar
    27    18    19   ar
    28    19    20   ar
    29    20    21    1
    30    20    22   ar
    31    22    23   ar
    32     5     6   ar
    33     6     7   ar
    34     7     8    1
    35     7     9   ar
    36     9    10   ar
    37    10     1   ar
    38    28    24    1
    39     9     4   ar
    40    34    29    1
    41    16    11   ar
    42    23    17   ar
@<TRIPOS>MOLECULE
*****
 37 42 0 0 0
SMALL
GASTEIGER

@<TRIPOS>ATOM
      1 C         -25.0907   -5.9080  -16.4688 C.ar    1  UNL1        0.1720
      2 N         -24.2397   -6.9832  -16.4631 N.ar    1  UNL1       -0.2133
      3 C         -24.1170   -7.8006  -15.3747 C.ar    1  UNL1        0.1376
      4 C         -24.8754   -7.4853  -14.2437 C.ar    1  UNL1        0.0865
      5 C         -25.0077   -7.9886  -12.9536 C.ar    1  UNL1        0.1095
      6 N         -25.9366   -7.2523  -12.2934 N.ar    1  UNL1       -0.1677
      7 N         -26.3880   -6.3169  -13.1202 N.ar    1  UNL1       -0.2319
      8 C         -27.3398   -5.2800  -12.7454 C.3     1  UNL1        0.1554
      9 C         -25.7383   -6.4338  -14.2880 C.ar    1  UNL1        0.1650
     10 N         -25.8555   -5.6292  -15.3711 N.ar    1  UNL1       -0.2095
     11 C         -24.2026   -9.0336  -12.3031 C.ar    1  UNL1        0.0577
     12 C         -24.5024  -10.3801  -12.2100 C.ar    1  UNL1        0.1231
     13 N         -23.5564  -10.9984  -11.4750 N.ar    1  UNL1       -0.1676
     14 N         -22.6665  -10.0880  -11.1098 N.ar    1  UNL1       -0.2488
     15 C         -21.5123  -10.3854  -10.2686 C.3     1  UNL1        0.1537
     16 C         -23.0236   -8.8808  -11.5971 C.ar    1  UNL1        0.0809
     17 C         -22.3278   -7.6122  -11.3145 C.ar    1  UNL1        0.0174
     18 C         -21.5192   -7.0191  -12.2943 C.ar    1  UNL1        0.0012
     19 C         -20.8530   -5.8200  -12.0263 C.ar    1  UNL1       -0.0042
     20 C         -20.9803   -5.2054  -10.7711 C.ar    1  UNL1       -0.0218
     21 C         -20.2962   -3.8994  -10.4965 C.3     1  UNL1        0.0310
     22 C         -21.8084   -5.7880   -9.7995 C.ar    1  UNL1       -0.0042
     23 C         -22.4745   -6.9873  -10.0684 C.ar    1  UNL1        0.0012
     24 N         -23.3007   -8.9748  -15.4518 N.pl3   1  UNL1       -0.2917
     25 C         -21.8714   -8.9183  -15.7230 C.3     1  UNL1        0.0937
     26 C         -21.4806  -10.3291  -16.1602 C.3     1  UNL1        0.0391
     27 C         -22.6289  -11.2151  -15.6867 C.3     1  UNL1        0.0790
     28 C         -23.8501  -10.2903  -15.7326 C.3     1  UNL1        0.1081
     29 N         -22.6809  -12.4899  -16.4601 N.3     1  UNL1       -0.2723
     30 C         -23.9974  -13.1089  -16.7369 C.3     1  UNL1        0.0721
     31 C         -24.5141  -13.9717  -15.5651 C.3     1  UNL1        0.0174
     32 C         -23.4529  -14.9657  -15.0877 C.3     1  UNL1        0.0029
     33 C         -22.1324  -14.2515  -14.7995 C.3     1  UNL1        0.0174
     34 C         -21.6724  -13.4846  -16.0413 C.3     1  UNL1        0.0721
     35 C         -25.1665   -5.0225  -17.6737 C.3     1  UNL1        0.2074
     36 C         -25.3498   -6.1552  -19.6873 C.3     1  UNL1        0.1747
     37 O         -24.4532   -5.5955  -18.7519 O.3     1  UNL1       -0.3430
@<TRIPOS>BOND
     1    36    37    1
     2    37    35    1
     3    35     1    1
     4     1     2   ar
     5     2     3   ar
     6     3    24    1
     7    24    25    1
     8    25    26    1
     9    26    27    1
    10    27    29    1
    11    29    30    1
    12    30    31    1
    13    31    32    1
    14    32    33    1
    15    33    34    1
    16    27    28    1
    17     3     4   ar
    18     4     5   ar
    19     5    11    1
    20    11    12   ar
    21    12    13   ar
    22    13    14   ar
    23    14    15    1
    24    14    16   ar
    25    16    17    1
    26    17    18   ar
    27    18    19   ar
    28    19    20   ar
    29    20    21    1
    30    20    22   ar
    31    22    23   ar
    32     5     6   ar
    33     6     7   ar
    34     7     8    1
    35     7     9   ar
    36     9    10   ar
    37    10     1   ar
    38    28    24    1
    39     9     4   ar
    40    34    29    1
    41    16    11   ar
    42    23    17   ar
@<TRIPOS>MOLECULE
*****
 37 42 0 0 0
SMALL
GASTEIGER

@<TRIPOS>ATOM
      1 C         -22.2014   -8.8135   -8.8592 C.ar    1  UNL1        0.1720
      2 N         -22.2964   -9.8261   -9.7791 N.ar    1  UNL1       -0.2133
      3 C         -22.0891   -9.6111  -11.1127 C.ar    1  UNL1        0.1376
      4 C         -21.8010   -8.3047  -11.5174 C.ar    1  UNL1        0.0865
      5 C         -21.5886   -7.6546  -12.7288 C.ar    1  UNL1        0.1095
      6 N         -21.3318   -6.3458  -12.4800 N.ar    1  UNL1       -0.1677
      7 N         -21.3724   -6.1579  -11.1665 N.ar    1  UNL1       -0.2319
      8 C         -21.2258   -4.8621  -10.5178 C.3     1  UNL1        0.1554
      9 C         -21.6776   -7.3253  -10.5804 C.ar    1  UNL1        0.1650
     10 N         -21.8831   -7.5464   -9.2601 N.ar    1  UNL1       -0.2095
     11 C         -21.7516   -8.1957  -14.0867 C.ar    1  UNL1        0.0577
     12 C         -20.7479   -8.5545  -14.9673 C.ar    1  UNL1        0.1231
     13 N         -21.2964   -8.9361  -16.1382 N.ar    1  UNL1       -0.1676
     14 N         -22.6120   -8.8380  -16.0213 N.ar    1  UNL1       -0.2488
     15 C         -23.5391   -9.1348  -17.1078 C.3     1  UNL1        0.1537
     16 C         -22.9277   -8.3937  -14.7863 C.ar    1  UNL1        0.0809
     17 C         -24.2894   -8.0694  -14.3237 C.ar    1  UNL1        0.0174
     18 C         -24.7975   -6.7727  -14.4842 C.ar    1  UNL1        0.0012
     19 C         -26.0856   -6.4611  -14.0401 C.ar    1  UNL1       -0.0042
     20 C         -26.8767   -7.4411  -13.4213 C.ar    1  UNL1       -0.0218
     21 C         -28.2727   -7.1170  -12.9793 C.3     1  UNL1        0.0310
     22 C         -26.3756   -8.7445  -13.2823 C.ar    1  UNL1       -0.0042
     23 C         -25.0873   -9.0553  -13.7269 C.ar    1  UNL1        0.0012
     24 N         -22.0890  -10.7170  -12.0227 N.pl3   1  UNL1       -0.2917
     25 C         -20.8640  -11.3730  -12.4575 C.3     1  UNL1        0.0937
     26 C         -21.2416  -12.1562  -13.7137 C.3     1  UNL1        0.0391
     27 C         -22.7635  -12.2540  -13.6683 C.3     1  UNL1        0.0790
     28 C         -23.1921  -10.9807  -12.9309 C.3     1  UNL1        0.1081
     29 N         -23.3285  -12.5060  -15.0260 N.3     1  UNL1       -0.2723
     30 C         -24.7919  -12.3997  -15.2259 C.3     1  UNL1        0.0721
     31 C         -25.5472  -13.6884  -14.8348 C.3     1  UNL1        0.0174
     32 C         -24.9237  -14.9254  -15.4854 C.3     1  UNL1        0.0029
     33 C         -23.4200  -14.9793  -15.2158 C.3     1  UNL1        0.0174
     34 C         -22.7565  -13.6887  -15.7013 C.3     1  UNL1        0.0721
     35 C         -22.4692   -9.0917   -7.4126 C.3     1  UNL1        0.2074
     36 C         -20.1763   -8.7864   -7.2691 C.3     1  UNL1        0.1747
     37 O         -21.4117   -8.6006   -6.6124 O.3     1  UNL1       -0.3430
@<TRIPOS>BOND
     1    36    37    1
     2    37    35    1
     3    35     1    1
     4     1     2   ar
     5     2     3   ar
     6     3    24    1
     7    24    25    1
     8    25    26    1
     9    26    27    1
    10    27    29    1
    11    29    30    1
    12    30    31    1
    13    31    32    1
    14    32    33    1
    15    33    34    1
    16    27    28    1
    17     3     4   ar
    18     4     5   ar
    19     5    11    1
    20    11    12   ar
    21    12    13   ar
    22    13    14   ar
    23    14    15    1
    24    14    16   ar
    25    16    17    1
    26    17    18   ar
    27    18    19   ar
    28    19    20   ar
    29    20    21    1
    30    20    22   ar
    31    22    23   ar
    32     5     6   ar
    33     6     7   ar
    34     7     8    1
    35     7     9   ar
    36     9    10   ar
    37    10     1   ar
    38    28    24    1
    39     9     4   ar
    40    34    29    1
    41    16    11   ar
    42    23    17   ar
@<TRIPOS>MOLECULE
*****
 37 42 0 0 0
SMALL
GASTEIGER

@<TRIPOS>ATOM
      1 C         -23.5597  -11.1081  -16.0765 C.ar    1  UNL1        0.1720
      2 N         -24.2858  -10.6880  -14.9916 N.ar    1  UNL1       -0.2133
      3 C         -23.8800   -9.6401  -14.2138 C.ar    1  UNL1        0.1376
      4 C         -22.6723   -9.0203  -14.5471 C.ar    1  UNL1        0.0865
      5 C         -21.8883   -8.0017  -14.0150 C.ar    1  UNL1        0.1095
      6 N         -20.8009   -7.8313  -14.8084 N.ar    1  UNL1       -0.1677
      7 N         -20.8795   -8.6979  -15.8108 N.ar    1  UNL1       -0.2319
      8 C         -19.8511   -8.8723  -16.8276 C.3     1  UNL1        0.1554
      9 C         -21.9893   -9.4339  -15.6493 C.ar    1  UNL1        0.1650
     10 N         -22.3987  -10.4723  -16.4162 N.ar    1  UNL1       -0.2095
     11 C         -22.0665   -7.2968  -12.7365 C.ar    1  UNL1        0.0577
     12 C         -22.6320   -6.0499  -12.5437 C.ar    1  UNL1        0.1231
     13 N         -22.5464   -5.7175  -11.2400 N.ar    1  UNL1       -0.1676
     14 N         -21.9540   -6.7170  -10.6042 N.ar    1  UNL1       -0.2488
     15 C         -21.6562   -6.6963   -9.1763 C.3     1  UNL1        0.1537
     16 C         -21.6498   -7.6977  -11.4806 C.ar    1  UNL1        0.0809
     17 C         -20.8975   -8.9231  -11.1550 C.ar    1  UNL1        0.0174
     18 C         -19.6777   -8.8392  -10.4691 C.ar    1  UNL1        0.0012
     19 C         -18.9594   -9.9991  -10.1655 C.ar    1  UNL1       -0.0042
     20 C         -19.4485  -11.2559  -10.5534 C.ar    1  UNL1       -0.0218
     21 C         -18.6970  -12.5030  -10.1943 C.3     1  UNL1        0.0310
     22 C         -20.6810  -11.3400  -11.2193 C.ar    1  UNL1       -0.0042
     23 C         -21.3988  -10.1795  -11.5224 C.ar    1  UNL1        0.0012
     24 N         -24.7241   -9.1649  -13.1589 N.pl3   1  UNL1       -0.2917
     25 C         -25.3584   -7.8548  -13.1937 C.3     1  UNL1        0.0937
     26 C         -25.7728   -7.5612  -11.7528 C.3     1  UNL1        0.0391
     27 C         -25.7442   -8.9180  -11.0556 C.3     1  UNL1        0.0790
     28 C         -24.6584   -9.6952  -11.8077 C.3     1  UNL1        0.1081
     29 N         -25.6043   -8.7626   -9.5784 N.3     1  UNL1       -0.2723
     30 C         -24.2480   -8.6724   -8.9910 C.3     1  UNL1        0.0721
     31 C         -23.6010  -10.0549   -8.7576 C.3     1  UNL1        0.0174
     32 C         -24.5407  -10.9950   -7.9991 C.3     1  UNL1        0.0029
     33 C         -25.9096  -11.0551   -8.6769 C.3     1  UNL1        0.0174
     34 C         -26.4941   -9.6460   -8.7975 C.3     1  UNL1        0.0721
     35 C         -24.0285  -12.2818  -16.8791 C.3     1  UNL1        0.2074
     36 C         -24.5537  -14.3068  -15.8818 C.3     1  UNL1        0.1747
     37 O         -25.0143  -13.0036  -16.1670 O.3     1  UNL1       -0.3430
@<TRIPOS>BOND
     1    36    37    1
     2    37    35    1
     3    35     1    1
     4     1     2   ar
     5     2     3   ar
     6     3    24    1
     7    24    25    1
     8    25    26    1
     9    26    27    1
    10    27    29    1
    11    29    30    1
    12    30    31    1
    13    31    32    1
    14    32    33    1
    15    33    34    1
    16    27    28    1
    17     3     4   ar
    18     4     5   ar
    19     5    11    1
    20    11    12   ar
    21    12    13   ar
    22    13    14   ar
    23    14    15    1
    24    14    16   ar
    25    16    17    1
    26    17    18   ar
    27    18    19   ar
    28    19    20   ar
    29    20    21    1
    30    20    22   ar
    31    22    23   ar
    32     5     6   ar
    33     6     7   ar
    34     7     8    1
    35     7     9   ar
    36     9    10   ar
    37    10     1   ar
    38    28    24    1
    39     9     4   ar
    40    34    29    1
    41    16    11   ar
    42    23    17   ar
@<TRIPOS>MOLECULE
*****
 37 42 0 0 0
SMALL
GASTEIGER

@<TRIPOS>ATOM
      1 C         -23.5986  -10.4730   -9.4595 C.ar    1  UNL1        0.1720
      2 N         -24.0776  -10.7034  -10.7236 N.ar    1  UNL1       -0.2133
      3 C         -23.4429  -10.2229  -11.8344 C.ar    1  UNL1        0.1376
      4 C         -22.2910   -9.4562  -11.6370 C.ar    1  UNL1        0.0865
      5 C         -21.4051   -8.7519  -12.4459 C.ar    1  UNL1        0.1095
      6 N         -20.4445   -8.2017  -11.6615 N.ar    1  UNL1       -0.1677
      7 N         -20.6952   -8.5378  -10.4019 N.ar    1  UNL1       -0.2319
      8 C         -19.9266   -8.0664   -9.2580 C.3     1  UNL1        0.1554
      9 C         -21.8173   -9.2723  -10.3743 C.ar    1  UNL1        0.1650
     10 N         -22.4512   -9.7531   -9.2783 N.ar    1  UNL1       -0.2095
     11 C         -21.5164   -8.4801  -13.8870 C.ar    1  UNL1        0.0577
     12 C         -20.6022   -8.8093  -14.8707 C.ar    1  UNL1        0.1231
     13 N         -21.0272   -8.3259  -16.0552 N.ar    1  UNL1       -0.1676
     14 N         -22.1825   -7.7111  -15.8518 N.ar    1  UNL1       -0.2488
     15 C         -22.9263   -7.0302  -16.9060 C.3     1  UNL1        0.1537
     16 C         -22.5148   -7.7862  -14.5456 C.ar    1  UNL1        0.0809
     17 C         -23.6836   -7.1331  -13.9285 C.ar    1  UNL1        0.0174
     18 C         -24.9479   -7.2437  -14.5241 C.ar    1  UNL1        0.0012
     19 C         -26.0562   -6.6196  -13.9446 C.ar    1  UNL1       -0.0042
     20 C         -25.9104   -5.8693  -12.7678 C.ar    1  UNL1       -0.0218
     21 C         -27.1060   -5.2315  -12.1252 C.3     1  UNL1        0.0310
     22 C         -24.6487   -5.7789  -12.1601 C.ar    1  UNL1       -0.0042
     23 C         -23.5408   -6.4035  -12.7402 C.ar    1  UNL1        0.0012
     24 N         -23.9157  -10.5808  -13.1380 N.pl3   1  UNL1       -0.2917
     25 C         -25.3268  -10.5487  -13.4952 C.3     1  UNL1        0.0937
     26 C         -25.4498  -11.3992  -14.7584 C.3     1  UNL1        0.0391
     27 C         -24.0261  -11.5038  -15.2971 C.3     1  UNL1        0.0790
     28 C         -23.1510  -11.4236  -14.0415 C.3     1  UNL1        0.1081
     29 N         -23.8725  -12.6902  -16.1885 N.3     1  UNL1       -0.2723
     30 C         -24.7753  -13.8494  -16.0033 C.3     1  UNL1        0.0721
     31 C         -24.3002  -14.8094  -14.8910 C.3     1  UNL1        0.0174
     32 C         -22.8300  -15.1946  -15.0703 C.3     1  UNL1        0.0029
     33 C         -21.9592  -13.9484  -15.2304 C.3     1  UNL1        0.0174
     34 C         -22.4697  -13.1022  -16.3988 C.3     1  UNL1        0.0721
     35 C         -24.3470  -10.9928   -8.2715 C.3     1  UNL1        0.2074
     36 C         -26.3560   -9.9374   -8.7419 C.3     1  UNL1        0.1747
     37 O         -25.7108  -11.1838   -8.5932 O.3     1  UNL1       -0.3430
@<TRIPOS>BOND
     1    36    37    1
     2    37    35    1
     3    35     1    1
     4     1     2   ar
     5     2     3   ar
     6     3    24    1
     7    24    25    1
     8    25    26    1
     9    26    27    1
    10    27    29    1
    11    29    30    1
    12    30    31    1
    13    31    32    1
    14    32    33    1
    15    33    34    1
    16    27    28    1
    17     3     4   ar
    18     4     5   ar
    19     5    11    1
    20    11    12   ar
    21    12    13   ar
    22    13    14   ar
    23    14    15    1
    24    14    16   ar
    25    16    17    1
    26    17    18   ar
    27    18    19   ar
    28    19    20   ar
    29    20    21    1
    30    20    22   ar
    31    22    23   ar
    32     5     6   ar
    33     6     7   ar
    34     7     8    1
    35     7     9   ar
    36     9    10   ar
    37    10     1   ar
    38    28    24    1
    39     9     4   ar
    40    34    29    1
    41    16    11   ar
    42    23    17   ar
