@<TRIPOS>MOLECULE
*****
 47 52 0 0 0
SMALL
GASTEIGER

@<TRIPOS>ATOM
      1 C          11.8567   80.2337   24.9965 C.ar    1  UNL1        0.0714
      2 C          11.1950   81.4660   24.9680 C.ar    1  UNL1        0.1150
      3 N          11.8989   82.6200   24.8383 N.ar    1  UNL1       -0.2266
      4 C          13.2549   82.6359   24.7245 C.ar    1  UNL1        0.1448
      5 C          13.9684   81.4198   24.7510 C.ar    1  UNL1        0.0748
      6 N          15.3996   81.3877   24.6971 N.pl3   1  UNL1       -0.3548
      7 C          13.2546   80.2202   24.8704 C.ar    1  UNL1        0.0332
      8 H          15.9088   80.4765   24.6595 H       1  UNL1        0.1424
      9 H          15.9703   82.2572   24.7725 H       1  UNL1        0.1424
     10 N          13.9231   83.8947   24.5524 N.pl3   1  UNL1       -0.2923
     11 C          13.9248   84.8589   25.6599 C.3     1  UNL1        0.0923
     12 C          14.4077   86.2397   25.1988 C.3     1  UNL1        0.0252
     13 C          13.6902   86.6415   23.8963 C.3     1  UNL1        0.0472
     14 C          13.9046   85.5996   22.7600 C.3     1  UNL1        0.0252
     15 C          14.4854   84.2625   23.2470 C.3     1  UNL1        0.0923
     16 C          14.1269   88.0524   23.4576 C.3     1  UNL1        0.2054
     17 O          15.2999   87.9976   22.6435 O.3     1  UNL1       -0.4755
     18 C          16.5944   88.3624   23.0487 C.ar    1  UNL1        0.1388
     19 C          17.5998   88.7396   22.1383 C.ar    1  UNL1        0.0369
     20 C          18.8697   89.0910   22.6004 C.ar    1  UNL1        0.0033
     21 C          19.1511   89.0746   23.9680 C.ar    1  UNL1        0.0066
     22 C          18.1595   88.7068   24.8925 C.ar    1  UNL1        0.0785
     23 C          16.8821   88.3540   24.4194 C.ar    1  UNL1        0.0433
     24 C          18.4589   88.6918   26.3416 C.2     1  UNL1        0.3381
     25 O          17.5412   88.8803   27.1855 O.2     1  UNL1       -0.2451
     26 O          19.7592   88.4687   26.7875 O.3     1  UNL1       -0.4771
     27 H          19.9750   88.4563   27.7773 H       1  UNL1        0.2954
     28 C           9.7373   78.8861   24.6569 C.2     1  UNL1        0.2839
     29 O           9.3010   79.6307   23.7383 O.2     1  UNL1       -0.2665
     30 N          11.0950   79.0186   25.1036 N.am    1  UNL1       -0.2766
     31 H          11.5891   78.1551   25.4217 H       1  UNL1        0.1553
     32 C           8.1743   78.8828   27.4883 C.3     1  UNL1        0.0345
     33 C           8.1854   77.8270   26.4243 C.ar    1  UNL1        0.0202
     34 C           8.8568   77.8344   25.1951 C.ar    1  UNL1        0.1946
     35 O           8.5848   76.7280   24.5255 O.2     1  UNL1       -0.4492
     36 C           7.7903   75.9940   25.2655 C.ar    1  UNL1        0.1452
     37 C           7.2625   74.7450   24.9574 C.ar    1  UNL1        0.0375
     38 C           6.4290   74.1283   25.9070 C.ar    1  UNL1        0.0031
     39 C           6.1372   74.7654   27.1436 C.ar    1  UNL1        0.0002
     40 C           6.6941   76.0380   27.4164 C.ar    1  UNL1        0.0028
     41 C           7.5160   76.6199   26.4509 C.ar    1  UNL1        0.0337
     42 C           5.2567   74.1040   28.1398 C.ar    1  UNL1        0.0000
     43 C           4.7541   74.8235   29.2406 C.ar    1  UNL1        0.0000
     44 C           3.9243   74.1983   30.1764 C.ar    1  UNL1        0.0000
     45 C           3.5880   72.8512   30.0257 C.ar    1  UNL1        0.0000
     46 C           4.0803   72.1264   28.9381 C.ar    1  UNL1        0.0000
     47 C           4.9097   72.7467   27.9987 C.ar    1  UNL1        0.0000
@<TRIPOS>BOND
     1    32    33    1
     2    33    34   ar
     3    34    28    1
     4    28    29    2
     5    28    30   am
     6    30     1    1
     7     1     2   ar
     8     2     3   ar
     9     3     4   ar
    10     4    10    1
    11    10    11    1
    12    11    12    1
    13    12    13    1
    14    13    16    1
    15    16    17    1
    16    17    18    1
    17    18    19   ar
    18    19    20   ar
    19    20    21   ar
    20    21    22   ar
    21    22    24    1
    22    24    25    2
    23    24    26    1
    24    22    23   ar
    25    13    14    1
    26    14    15    1
    27     4     5   ar
    28     5     6    1
    29     5     7   ar
    30    34    35   ar
    31    35    36   ar
    32    36    37   ar
    33    37    38   ar
    34    38    39   ar
    35    39    42    1
    36    42    43   ar
    37    43    44   ar
    38    44    45   ar
    39    45    46   ar
    40    46    47   ar
    41    39    40   ar
    42    40    41   ar
    43    41    33   ar
    44     7     1   ar
    45    41    36   ar
    46    15    10    1
    47    47    42   ar
    48    23    18   ar
    49    30    31    1
    50    26    27    1
    51     6     8    1
    52     6     9    1
@<TRIPOS>MOLECULE
*****
 47 52 0 0 0
SMALL
GASTEIGER

@<TRIPOS>ATOM
      1 C          11.9091   81.4678   25.4739 C.ar    1  UNL1        0.0714
      2 C          11.7737   81.8151   24.1255 C.ar    1  UNL1        0.1150
      3 N          12.4616   82.8695   23.6161 N.ar    1  UNL1       -0.2266
      4 C          13.3054   83.6217   24.3736 C.ar    1  UNL1        0.1448
      5 C          13.4736   83.3139   25.7396 C.ar    1  UNL1        0.0748
      6 N          14.3020   84.1128   26.5927 N.pl3   1  UNL1       -0.3548
      7 C          12.7812   82.2205   26.2759 C.ar    1  UNL1        0.0332
      8 H          14.4610   83.8369   27.5874 H       1  UNL1        0.1424
      9 H          14.7010   85.0220   26.2738 H       1  UNL1        0.1424
     10 N          14.0256   84.6969   23.7522 N.pl3   1  UNL1       -0.2923
     11 C          13.6529   86.0816   24.0676 C.3     1  UNL1        0.0923
     12 C          14.3086   87.0723   23.0976 C.3     1  UNL1        0.0252
     13 C          14.1235   86.5903   21.6463 C.3     1  UNL1        0.0472
     14 C          14.7058   85.1648   21.4202 C.3     1  UNL1        0.0252
     15 C          15.0329   84.4154   22.7217 C.3     1  UNL1        0.0923
     16 C          14.7289   87.6095   20.6622 C.3     1  UNL1        0.2054
     17 O          13.8408   87.8609   19.5714 O.3     1  UNL1       -0.4755
     18 C          14.1173   87.6108   18.2172 C.ar    1  UNL1        0.1388
     19 C          14.1477   88.6286   17.2451 C.ar    1  UNL1        0.0369
     20 C          14.4271   88.3188   15.9126 C.ar    1  UNL1        0.0033
     21 C          14.6819   86.9989   15.5347 C.ar    1  UNL1        0.0066
     22 C          14.6621   85.9702   16.4910 C.ar    1  UNL1        0.0785
     23 C          14.3797   86.2900   17.8319 C.ar    1  UNL1        0.0433
     24 C          14.9342   84.5723   16.0892 C.2     1  UNL1        0.3381
     25 O          15.9518   83.9688   16.5253 O.2     1  UNL1       -0.2451
     26 O          14.0674   83.9092   15.2242 O.3     1  UNL1       -0.4771
     27 H          14.2443   82.9521   14.9428 H       1  UNL1        0.2954
     28 C          10.0063   79.7956   25.3950 C.2     1  UNL1        0.2839
     29 O           9.7883   79.9623   24.1649 O.2     1  UNL1       -0.2665
     30 N          11.1977   80.3301   25.9911 N.am    1  UNL1       -0.2766
     31 H          11.6302   79.7958   26.7776 H       1  UNL1        0.1553
     32 C           9.2423   76.6868   24.9359 C.3     1  UNL1        0.0345
     33 C           8.7243   77.6340   25.9759 C.ar    1  UNL1        0.0202
     34 C           9.0630   78.9779   26.1777 C.ar    1  UNL1        0.1946
     35 O           8.4093   79.4563   27.2219 O.2     1  UNL1       -0.4492
     36 C           7.6481   78.4995   27.6938 C.ar    1  UNL1        0.1452
     37 C           6.7837   78.5653   28.7810 C.ar    1  UNL1        0.0375
     38 C           6.0525   77.4113   29.1135 C.ar    1  UNL1        0.0031
     39 C           6.1952   76.2155   28.3586 C.ar    1  UNL1        0.0002
     40 C           7.0879   76.1913   27.2602 C.ar    1  UNL1        0.0028
     41 C           7.7971   77.3544   26.9597 C.ar    1  UNL1        0.0337
     42 C           5.4167   75.0030   28.7180 C.ar    1  UNL1        0.0000
     43 C           4.5335   75.0183   29.8142 C.ar    1  UNL1        0.0000
     44 C           3.8009   73.8754   30.1495 C.ar    1  UNL1        0.0000
     45 C           3.9415   72.7069   29.3977 C.ar    1  UNL1        0.0000
     46 C           4.8146   72.6789   28.3080 C.ar    1  UNL1        0.0000
     47 C           5.5489   73.8191   27.9675 C.ar    1  UNL1        0.0000
@<TRIPOS>BOND
     1    32    33    1
     2    33    34   ar
     3    34    28    1
     4    28    29    2
     5    28    30   am
     6    30     1    1
     7     1     2   ar
     8     2     3   ar
     9     3     4   ar
    10     4    10    1
    11    10    11    1
    12    11    12    1
    13    12    13    1
    14    13    16    1
    15    16    17    1
    16    17    18    1
    17    18    19   ar
    18    19    20   ar
    19    20    21   ar
    20    21    22   ar
    21    22    24    1
    22    24    25    2
    23    24    26    1
    24    22    23   ar
    25    13    14    1
    26    14    15    1
    27     4     5   ar
    28     5     6    1
    29     5     7   ar
    30    34    35   ar
    31    35    36   ar
    32    36    37   ar
    33    37    38   ar
    34    38    39   ar
    35    39    42    1
    36    42    43   ar
    37    43    44   ar
    38    44    45   ar
    39    45    46   ar
    40    46    47   ar
    41    39    40   ar
    42    40    41   ar
    43    41    33   ar
    44     7     1   ar
    45    41    36   ar
    46    15    10    1
    47    47    42   ar
    48    23    18   ar
    49    30    31    1
    50    26    27    1
    51     6     8    1
    52     6     9    1
@<TRIPOS>MOLECULE
*****
 47 52 0 0 0
SMALL
GASTEIGER

@<TRIPOS>ATOM
      1 C          11.8986   80.2145   25.0038 C.ar    1  UNL1        0.0714
      2 C          11.2153   81.4333   24.9333 C.ar    1  UNL1        0.1150
      3 N          11.8984   82.5939   24.7589 N.ar    1  UNL1       -0.2266
      4 C          13.2535   82.6292   24.6390 C.ar    1  UNL1        0.1448
      5 C          13.9883   81.4274   24.7068 C.ar    1  UNL1        0.0748
      6 N          15.4196   81.4183   24.6482 N.pl3   1  UNL1       -0.3548
      7 C          13.2960   80.2208   24.8725 C.ar    1  UNL1        0.0332
      8 H          15.9446   80.5154   24.6416 H       1  UNL1        0.1424
      9 H          15.9753   82.2998   24.6896 H       1  UNL1        0.1424
     10 N          13.8990   83.8924   24.4186 N.pl3   1  UNL1       -0.2923
     11 C          13.8929   84.8937   25.4926 C.3     1  UNL1        0.0923
     12 C          14.3488   86.2658   24.9807 C.3     1  UNL1        0.0252
     13 C          13.6145   86.6108   23.6713 C.3     1  UNL1        0.0472
     14 C          13.8377   85.5345   22.5694 C.3     1  UNL1        0.0252
     15 C          14.4448   84.2246   23.0968 C.3     1  UNL1        0.0923
     16 C          14.0238   88.0130   23.1812 C.3     1  UNL1        0.2054
     17 O          14.4325   87.9801   21.8124 O.3     1  UNL1       -0.4755
     18 C          13.5967   88.1932   20.7039 C.ar    1  UNL1        0.1388
     19 C          12.2459   88.5697   20.8293 C.ar    1  UNL1        0.0369
     20 C          11.4630   88.7661   19.6900 C.ar    1  UNL1        0.0033
     21 C          12.0140   88.5943   18.4184 C.ar    1  UNL1        0.0066
     22 C          13.3613   88.2246   18.2725 C.ar    1  UNL1        0.0785
     23 C          14.1441   88.0286   19.4252 C.ar    1  UNL1        0.0433
     24 C          13.9441   88.0449   16.9243 C.2     1  UNL1        0.3381
     25 O          14.1665   86.8886   16.4734 O.2     1  UNL1       -0.2451
     26 O          14.2528   89.1531   16.1396 O.3     1  UNL1       -0.4771
     27 H          14.6521   89.0413   15.2152 H       1  UNL1        0.2954
     28 C           9.8598   78.7672   24.5895 C.2     1  UNL1        0.2839
     29 O           9.5065   79.3990   23.5577 O.2     1  UNL1       -0.2665
     30 N          11.1587   78.9911   25.1581 N.am    1  UNL1       -0.2766
     31 H          11.6362   78.1820   25.6144 H       1  UNL1        0.1553
     32 C           8.3332   78.8199   27.4402 C.3     1  UNL1        0.0345
     33 C           8.2962   77.7626   26.3782 C.ar    1  UNL1        0.0202
     34 C           8.9520   77.7459   25.1408 C.ar    1  UNL1        0.1946
     35 O           8.6354   76.6479   24.4768 O.2     1  UNL1       -0.4492
     36 C           7.8265   75.9417   25.2282 C.ar    1  UNL1        0.1452
     37 C           7.2540   74.7103   24.9292 C.ar    1  UNL1        0.0375
     38 C           6.4126   74.1229   25.8904 C.ar    1  UNL1        0.0031
     39 C           6.1574   74.7713   27.1292 C.ar    1  UNL1        0.0002
     40 C           6.7593   76.0252   27.3925 C.ar    1  UNL1        0.0028
     41 C           7.5878   76.5782   26.4157 C.ar    1  UNL1        0.0337
     42 C           5.2682   74.1408   28.1377 C.ar    1  UNL1        0.0000
     43 C           4.9039   72.7857   28.0234 C.ar    1  UNL1        0.0000
     44 C           4.0672   72.1945   28.9752 C.ar    1  UNL1        0.0000
     45 C           3.5850   72.9467   30.0485 C.ar    1  UNL1        0.0000
     46 C           3.9390   74.2919   30.1730 C.ar    1  UNL1        0.0000
     47 C           4.7760   74.8881   29.2248 C.ar    1  UNL1        0.0000
@<TRIPOS>BOND
     1    32    33    1
     2    33    34   ar
     3    34    28    1
     4    28    29    2
     5    28    30   am
     6    30     1    1
     7     1     2   ar
     8     2     3   ar
     9     3     4   ar
    10     4    10    1
    11    10    11    1
    12    11    12    1
    13    12    13    1
    14    13    16    1
    15    16    17    1
    16    17    18    1
    17    18    19   ar
    18    19    20   ar
    19    20    21   ar
    20    21    22   ar
    21    22    24    1
    22    24    25    2
    23    24    26    1
    24    22    23   ar
    25    13    14    1
    26    14    15    1
    27     4     5   ar
    28     5     6    1
    29     5     7   ar
    30    34    35   ar
    31    35    36   ar
    32    36    37   ar
    33    37    38   ar
    34    38    39   ar
    35    39    42    1
    36    42    43   ar
    37    43    44   ar
    38    44    45   ar
    39    45    46   ar
    40    46    47   ar
    41    39    40   ar
    42    40    41   ar
    43    41    33   ar
    44     7     1   ar
    45    41    36   ar
    46    15    10    1
    47    47    42   ar
    48    23    18   ar
    49    30    31    1
    50    26    27    1
    51     6     8    1
    52     6     9    1
@<TRIPOS>MOLECULE
*****
 47 52 0 0 0
SMALL
GASTEIGER

@<TRIPOS>ATOM
      1 C          13.0253   83.1514   25.2065 C.ar    1  UNL1        0.0714
      2 C          12.9952   83.2177   23.8093 C.ar    1  UNL1        0.1150
      3 N          13.5107   84.2946   23.1623 N.ar    1  UNL1       -0.2266
      4 C          14.0775   85.3389   23.8255 C.ar    1  UNL1        0.1448
      5 C          14.1292   85.3210   25.2347 C.ar    1  UNL1        0.0748
      6 N          14.6591   86.4232   25.9806 N.pl3   1  UNL1       -0.3548
      7 C          13.6138   84.2103   25.9154 C.ar    1  UNL1        0.0332
      8 H          14.7428   86.3688   27.0204 H       1  UNL1        0.1424
      9 H          14.9000   87.3289   25.5234 H       1  UNL1        0.1424
     10 N          14.6346   86.4235   23.0677 N.pl3   1  UNL1       -0.2923
     11 C          13.9658   87.7303   23.0947 C.3     1  UNL1        0.0923
     12 C          14.5137   88.6618   22.0063 C.3     1  UNL1        0.0252
     13 C          14.5824   87.9166   20.6600 C.3     1  UNL1        0.0472
     14 C          15.4539   86.6298   20.7426 C.3     1  UNL1        0.0252
     15 C          15.7813   86.1945   22.1799 C.3     1  UNL1        0.0923
     16 C          15.0771   88.8625   19.5489 C.3     1  UNL1        0.2054
     17 O          14.1636   88.8874   18.4504 O.3     1  UNL1       -0.4755
     18 C          14.3358   88.2172   17.2281 C.ar    1  UNL1        0.1388
     19 C          14.3101   88.8792   15.9859 C.ar    1  UNL1        0.0369
     20 C          14.4859   88.1591   14.8027 C.ar    1  UNL1        0.0033
     21 C          14.6921   86.7786   14.8422 C.ar    1  UNL1        0.0066
     22 C          14.7270   86.1009   16.0722 C.ar    1  UNL1        0.0785
     23 C          14.5490   86.8333   17.2604 C.ar    1  UNL1        0.0433
     24 C          14.9474   84.6383   16.1124 C.2     1  UNL1        0.3381
     25 O          15.9658   84.1611   16.6825 O.2     1  UNL1       -0.2451
     26 O          14.0305   83.7736   15.5199 O.3     1  UNL1       -0.4771
     27 H          14.1718   82.7706   15.5418 H       1  UNL1        0.2954
     28 C          11.1905   81.4584   25.6426 C.2     1  UNL1        0.2839
     29 O          10.6174   81.6570   24.5377 O.2     1  UNL1       -0.2665
     30 N          12.5030   81.9907   25.8757 N.am    1  UNL1       -0.2766
     31 H          13.1509   81.4398   26.4822 H       1  UNL1        0.1553
     32 C           9.3774   78.8347   25.1050 C.3     1  UNL1        0.0345
     33 C           9.7319   79.4753   26.4130 C.ar    1  UNL1        0.0202
     34 C          10.5241   80.6070   26.6437 C.ar    1  UNL1        0.1946
     35 O          10.6227   80.8321   27.9423 O.2     1  UNL1       -0.4492
     36 C           9.9177   79.9189   28.5642 C.ar    1  UNL1        0.1452
     37 C           9.7341   79.7813   29.9356 C.ar    1  UNL1        0.0375
     38 C           8.9273   78.7235   30.3906 C.ar    1  UNL1        0.0031
     39 C           8.3192   77.8241   29.4731 C.ar    1  UNL1        0.0002
     40 C           8.5339   77.9993   28.0849 C.ar    1  UNL1        0.0028
     41 C           9.3405   79.0591   27.6699 C.ar    1  UNL1        0.0337
     42 C           7.4678   76.7113   29.9649 C.ar    1  UNL1        0.0000
     43 C           6.4214   76.9582   30.8739 C.ar    1  UNL1        0.0000
     44 C           5.6207   75.9084   31.3343 C.ar    1  UNL1        0.0000
     45 C           5.8546   74.6035   30.8951 C.ar    1  UNL1        0.0000
     46 C           6.8896   74.3455   29.9936 C.ar    1  UNL1        0.0000
     47 C           7.6929   75.3915   29.5291 C.ar    1  UNL1        0.0000
@<TRIPOS>BOND
     1    32    33    1
     2    33    34   ar
     3    34    28    1
     4    28    29    2
     5    28    30   am
     6    30     1    1
     7     1     2   ar
     8     2     3   ar
     9     3     4   ar
    10     4    10    1
    11    10    11    1
    12    11    12    1
    13    12    13    1
    14    13    16    1
    15    16    17    1
    16    17    18    1
    17    18    19   ar
    18    19    20   ar
    19    20    21   ar
    20    21    22   ar
    21    22    24    1
    22    24    25    2
    23    24    26    1
    24    22    23   ar
    25    13    14    1
    26    14    15    1
    27     4     5   ar
    28     5     6    1
    29     5     7   ar
    30    34    35   ar
    31    35    36   ar
    32    36    37   ar
    33    37    38   ar
    34    38    39   ar
    35    39    42    1
    36    42    43   ar
    37    43    44   ar
    38    44    45   ar
    39    45    46   ar
    40    46    47   ar
    41    39    40   ar
    42    40    41   ar
    43    41    33   ar
    44     7     1   ar
    45    41    36   ar
    46    15    10    1
    47    47    42   ar
    48    23    18   ar
    49    30    31    1
    50    26    27    1
    51     6     8    1
    52     6     9    1
@<TRIPOS>MOLECULE
*****
 47 52 0 0 0
SMALL
GASTEIGER

@<TRIPOS>ATOM
      1 C          11.8151   80.2094   24.9579 C.ar    1  UNL1        0.0714
      2 C          11.1445   81.4365   24.9159 C.ar    1  UNL1        0.1150
      3 N          11.8411   82.5950   24.7862 N.ar    1  UNL1       -0.2266
      4 C          13.1979   82.6204   24.6853 C.ar    1  UNL1        0.1448
      5 C          13.9202   81.4099   24.7257 C.ar    1  UNL1        0.0748
      6 N          15.3520   81.3882   24.6856 N.pl3   1  UNL1       -0.3548
      7 C          13.2142   80.2057   24.8452 C.ar    1  UNL1        0.0332
      8 H          15.8683   80.4807   24.6582 H       1  UNL1        0.1424
      9 H          15.9155   82.2624   24.7614 H       1  UNL1        0.1424
     10 N          13.8584   83.8832   24.5122 N.pl3   1  UNL1       -0.2923
     11 C          14.0760   84.7410   25.6839 C.3     1  UNL1        0.0923
     12 C          14.5072   86.1537   25.2706 C.3     1  UNL1        0.0252
     13 C          13.5860   86.6809   24.1543 C.3     1  UNL1        0.0472
     14 C          13.5742   85.7463   22.9098 C.3     1  UNL1        0.0252
     15 C          14.1960   84.3644   23.1668 C.3     1  UNL1        0.0923
     16 C          13.9763   88.1220   23.7737 C.3     1  UNL1        0.2054
     17 O          13.6165   89.0417   24.8063 O.3     1  UNL1       -0.4755
     18 C          14.2313   89.1393   26.0654 C.ar    1  UNL1        0.1388
     19 C          15.6009   89.4238   26.2246 C.ar    1  UNL1        0.0369
     20 C          16.1568   89.5069   27.5028 C.ar    1  UNL1        0.0033
     21 C          15.3589   89.3124   28.6321 C.ar    1  UNL1        0.0066
     22 C          13.9891   89.0335   28.4941 C.ar    1  UNL1        0.0785
     23 C          13.4358   88.9513   27.2028 C.ar    1  UNL1        0.0433
     24 C          13.1446   88.8296   29.6918 C.2     1  UNL1        0.3381
     25 O          13.6462   88.8988   30.8466 O.2     1  UNL1       -0.2451
     26 O          11.7855   88.5587   29.5547 O.3     1  UNL1       -0.4771
     27 H          11.1983   88.4175   30.3681 H       1  UNL1        0.2954
     28 C           9.7020   78.8502   24.6257 C.2     1  UNL1        0.2839
     29 O           9.2557   79.5956   23.7126 O.2     1  UNL1       -0.2665
     30 N          11.0615   78.9893   25.0649 N.am    1  UNL1       -0.2766
     31 H          11.5627   78.1276   25.3768 H       1  UNL1        0.1553
     32 C           8.1244   78.8437   27.4490 C.3     1  UNL1        0.0345
     33 C           8.1535   77.7824   26.3908 C.ar    1  UNL1        0.0202
     34 C           8.8311   77.7911   25.1651 C.ar    1  UNL1        0.1946
     35 O           8.5757   76.6780   24.5000 O.2     1  UNL1       -0.4492
     36 C           7.7860   75.9386   25.2399 C.ar    1  UNL1        0.1452
     37 C           7.2745   74.6819   24.9358 C.ar    1  UNL1        0.0375
     38 C           6.4434   74.0605   25.8845 C.ar    1  UNL1        0.0031
     39 C           6.1376   74.7008   27.1161 C.ar    1  UNL1        0.0002
     40 C           6.6781   75.9812   27.3848 C.ar    1  UNL1        0.0028
     41 C           7.4981   76.5676   26.4205 C.ar    1  UNL1        0.0337
     42 C           5.2598   74.0343   28.1113 C.ar    1  UNL1        0.0000
     43 C           4.7576   74.7492   29.2153 C.ar    1  UNL1        0.0000
     44 C           3.9303   74.1193   30.1502 C.ar    1  UNL1        0.0000
     45 C           3.5961   72.7721   29.9953 C.ar    1  UNL1        0.0000
     46 C           4.0880   72.0519   28.9046 C.ar    1  UNL1        0.0000
     47 C           4.9149   72.6770   27.9661 C.ar    1  UNL1        0.0000
@<TRIPOS>BOND
     1    32    33    1
     2    33    34   ar
     3    34    28    1
     4    28    29    2
     5    28    30   am
     6    30     1    1
     7     1     2   ar
     8     2     3   ar
     9     3     4   ar
    10     4    10    1
    11    10    11    1
    12    11    12    1
    13    12    13    1
    14    13    16    1
    15    16    17    1
    16    17    18    1
    17    18    19   ar
    18    19    20   ar
    19    20    21   ar
    20    21    22   ar
    21    22    24    1
    22    24    25    2
    23    24    26    1
    24    22    23   ar
    25    13    14    1
    26    14    15    1
    27     4     5   ar
    28     5     6    1
    29     5     7   ar
    30    34    35   ar
    31    35    36   ar
    32    36    37   ar
    33    37    38   ar
    34    38    39   ar
    35    39    42    1
    36    42    43   ar
    37    43    44   ar
    38    44    45   ar
    39    45    46   ar
    40    46    47   ar
    41    39    40   ar
    42    40    41   ar
    43    41    33   ar
    44     7     1   ar
    45    41    36   ar
    46    15    10    1
    47    47    42   ar
    48    23    18   ar
    49    30    31    1
    50    26    27    1
    51     6     8    1
    52     6     9    1
@<TRIPOS>MOLECULE
*****
 47 52 0 0 0
SMALL
GASTEIGER

@<TRIPOS>ATOM
      1 C          11.9191   81.3545   25.4882 C.ar    1  UNL1        0.0714
      2 C          11.8299   81.7431   24.1472 C.ar    1  UNL1        0.1150
      3 N          12.5489   82.8005   23.6899 N.ar    1  UNL1       -0.2266
      4 C          13.3810   83.5165   24.4941 C.ar    1  UNL1        0.1448
      5 C          13.5032   83.1663   25.8548 C.ar    1  UNL1        0.0748
      6 N          14.3176   83.9264   26.7554 N.pl3   1  UNL1       -0.3548
      7 C          12.7781   82.0691   26.3376 C.ar    1  UNL1        0.0332
      8 H          14.4423   83.6191   27.7458 H       1  UNL1        0.1424
      9 H          14.7401   84.8378   26.4756 H       1  UNL1        0.1424
     10 N          14.1361   84.5974   23.9265 N.pl3   1  UNL1       -0.2923
     11 C          13.8908   85.9653   24.4004 C.3     1  UNL1        0.0923
     12 C          14.5518   87.0020   23.4835 C.3     1  UNL1        0.0252
     13 C          14.2329   86.6829   22.0106 C.3     1  UNL1        0.0472
     14 C          14.6897   85.2512   21.6057 C.3     1  UNL1        0.0252
     15 C          15.0471   84.3537   22.8012 C.3     1  UNL1        0.0923
     16 C          14.8450   87.7528   21.0862 C.3     1  UNL1        0.2054
     17 O          14.6507   87.4162   19.7112 O.3     1  UNL1       -0.4755
     18 C          13.7750   88.0659   18.8259 C.ar    1  UNL1        0.1388
     19 C          12.5196   88.5634   19.2239 C.ar    1  UNL1        0.0369
     20 C          11.6907   89.1997   18.2978 C.ar    1  UNL1        0.0033
     21 C          12.1014   89.3507   16.9718 C.ar    1  UNL1        0.0066
     22 C          13.3529   88.8663   16.5566 C.ar    1  UNL1        0.0785
     23 C          14.1829   88.2262   17.4956 C.ar    1  UNL1        0.0433
     24 C          13.7874   89.0288   15.1516 C.2     1  UNL1        0.3381
     25 O          14.9937   89.2762   14.8804 O.2     1  UNL1       -0.2451
     26 O          12.8665   88.9098   14.1138 O.3     1  UNL1       -0.4771
     27 H          13.1533   89.0191   13.1483 H       1  UNL1        0.2954
     28 C           9.9059   79.8170   25.4094 C.2     1  UNL1        0.2839
     29 O           9.6022   80.1236   24.2252 O.2     1  UNL1       -0.2665
     30 N          11.1750   80.2139   25.9501 N.am    1  UNL1       -0.2766
     31 H          11.6313   79.5756   26.6396 H       1  UNL1        0.1553
     32 C           9.1808   76.7028   24.9238 C.3     1  UNL1        0.0345
     33 C           8.6525   77.6340   25.9729 C.ar    1  UNL1        0.0202
     34 C           8.9743   78.9804   26.1862 C.ar    1  UNL1        0.1946
     35 O           8.3162   79.4411   27.2356 O.2     1  UNL1       -0.4492
     36 C           7.5680   78.4705   27.7000 C.ar    1  UNL1        0.1452
     37 C           6.7045   78.5156   28.7890 C.ar    1  UNL1        0.0375
     38 C           5.9886   77.3496   29.1123 C.ar    1  UNL1        0.0031
     39 C           6.1454   76.1623   28.3466 C.ar    1  UNL1        0.0002
     40 C           7.0365   76.1593   27.2467 C.ar    1  UNL1        0.0028
     41 C           7.7304   77.3340   26.9556 C.ar    1  UNL1        0.0337
     42 C           5.3830   74.9369   28.6964 C.ar    1  UNL1        0.0000
     43 C           5.5413   73.7566   27.9456 C.ar    1  UNL1        0.0000
     44 C           4.8228   72.6039   28.2781 C.ar    1  UNL1        0.0000
     45 C           3.9397   72.6159   29.3600 C.ar    1  UNL1        0.0000
     46 C           3.7737   73.7806   30.1125 C.ar    1  UNL1        0.0000
     47 C           4.4902   74.9359   29.7852 C.ar    1  UNL1        0.0000
@<TRIPOS>BOND
     1    32    33    1
     2    33    34   ar
     3    34    28    1
     4    28    29    2
     5    28    30   am
     6    30     1    1
     7     1     2   ar
     8     2     3   ar
     9     3     4   ar
    10     4    10    1
    11    10    11    1
    12    11    12    1
    13    12    13    1
    14    13    16    1
    15    16    17    1
    16    17    18    1
    17    18    19   ar
    18    19    20   ar
    19    20    21   ar
    20    21    22   ar
    21    22    24    1
    22    24    25    2
    23    24    26    1
    24    22    23   ar
    25    13    14    1
    26    14    15    1
    27     4     5   ar
    28     5     6    1
    29     5     7   ar
    30    34    35   ar
    31    35    36   ar
    32    36    37   ar
    33    37    38   ar
    34    38    39   ar
    35    39    42    1
    36    42    43   ar
    37    43    44   ar
    38    44    45   ar
    39    45    46   ar
    40    46    47   ar
    41    39    40   ar
    42    40    41   ar
    43    41    33   ar
    44     7     1   ar
    45    41    36   ar
    46    15    10    1
    47    47    42   ar
    48    23    18   ar
    49    30    31    1
    50    26    27    1
    51     6     8    1
    52     6     9    1
@<TRIPOS>MOLECULE
*****
 47 52 0 0 0
SMALL
GASTEIGER

@<TRIPOS>ATOM
      1 C          13.0902   82.8687   25.6229 C.ar    1  UNL1        0.0714
      2 C          13.5750   83.8160   26.5311 C.ar    1  UNL1        0.1150
      3 N          14.1617   84.9567   26.0851 N.ar    1  UNL1       -0.2266
      4 C          14.2985   85.2339   24.7599 C.ar    1  UNL1        0.1448
      5 C          13.8288   84.3090   23.8046 C.ar    1  UNL1        0.0748
      6 N          14.0049   84.5260   22.3996 N.pl3   1  UNL1       -0.3548
      7 C          13.2089   83.1342   24.2498 C.ar    1  UNL1        0.0332
      8 H          13.5999   83.8593   21.7049 H       1  UNL1        0.1424
      9 H          14.6006   85.3005   22.0353 H       1  UNL1        0.1424
     10 N          14.8960   86.4792   24.3685 N.pl3   1  UNL1       -0.2923
     11 C          14.0668   87.6907   24.3402 C.3     1  UNL1        0.0923
     12 C          14.7799   88.8399   23.6169 C.3     1  UNL1        0.0252
     13 C          15.3684   88.3398   22.2841 C.3     1  UNL1        0.0472
     14 C          16.3515   87.1498   22.4839 C.3     1  UNL1        0.0252
     15 C          16.2809   86.5159   23.8824 C.3     1  UNL1        0.0923
     16 C          16.0364   89.5017   21.5241 C.3     1  UNL1        0.2054
     17 O          15.6492   89.5062   20.1486 O.3     1  UNL1       -0.4755
     18 C          14.5468   88.8248   19.6071 C.ar    1  UNL1        0.1388
     19 C          13.3362   89.4678   19.2861 C.ar    1  UNL1        0.0369
     20 C          12.2734   88.7372   18.7512 C.ar    1  UNL1        0.0033
     21 C          12.4039   87.3651   18.5271 C.ar    1  UNL1        0.0066
     22 C          13.6057   86.7066   18.8353 C.ar    1  UNL1        0.0785
     23 C          14.6725   87.4494   19.3741 C.ar    1  UNL1        0.0433
     24 C          13.7430   85.2529   18.5955 C.2     1  UNL1        0.3381
     25 O          13.9284   84.4611   19.5591 O.2     1  UNL1       -0.2451
     26 O          13.6685   84.7449   17.3010 O.3     1  UNL1       -0.4771
     27 H          13.7610   83.7514   17.1257 H       1  UNL1        0.2954
     28 C          11.1254   81.2707   25.7183 C.2     1  UNL1        0.2839
     29 O          10.6595   81.6310   24.6040 O.2     1  UNL1       -0.2665
     30 N          12.4441   81.6801   26.1106 N.am    1  UNL1       -0.2766
     31 H          13.0044   81.0209   26.6959 H       1  UNL1        0.1553
     32 C           9.3478   78.7459   24.7565 C.3     1  UNL1        0.0345
     33 C           9.5503   79.2730   26.1450 C.ar    1  UNL1        0.0202
     34 C          10.3273   80.3620   26.5599 C.ar    1  UNL1        0.1946
     35 O          10.2700   80.4825   27.8748 O.2     1  UNL1       -0.4492
     36 C           9.4789   79.5428   28.3316 C.ar    1  UNL1        0.1452
     37 C           9.1265   79.3037   29.6553 C.ar    1  UNL1        0.0375
     38 C           8.2524   78.2355   29.9229 C.ar    1  UNL1        0.0031
     39 C           7.7461   77.4267   28.8694 C.ar    1  UNL1        0.0002
     40 C           8.1320   77.7036   27.5358 C.ar    1  UNL1        0.0028
     41 C           9.0011   78.7708   27.3078 C.ar    1  UNL1        0.0337
     42 C           6.8223   76.3019   29.1636 C.ar    1  UNL1        0.0000
     43 C           6.1378   76.2404   30.3924 C.ar    1  UNL1        0.0000
     44 C           5.2677   75.1806   30.6661 C.ar    1  UNL1        0.0000
     45 C           5.0716   74.1721   29.7201 C.ar    1  UNL1        0.0000
     46 C           5.7449   74.2216   28.4975 C.ar    1  UNL1        0.0000
     47 C           6.6154   75.2795   28.2179 C.ar    1  UNL1        0.0000
@<TRIPOS>BOND
     1    32    33    1
     2    33    34   ar
     3    34    28    1
     4    28    29    2
     5    28    30   am
     6    30     1    1
     7     1     2   ar
     8     2     3   ar
     9     3     4   ar
    10     4    10    1
    11    10    11    1
    12    11    12    1
    13    12    13    1
    14    13    16    1
    15    16    17    1
    16    17    18    1
    17    18    19   ar
    18    19    20   ar
    19    20    21   ar
    20    21    22   ar
    21    22    24    1
    22    24    25    2
    23    24    26    1
    24    22    23   ar
    25    13    14    1
    26    14    15    1
    27     4     5   ar
    28     5     6    1
    29     5     7   ar
    30    34    35   ar
    31    35    36   ar
    32    36    37   ar
    33    37    38   ar
    34    38    39   ar
    35    39    42    1
    36    42    43   ar
    37    43    44   ar
    38    44    45   ar
    39    45    46   ar
    40    46    47   ar
    41    39    40   ar
    42    40    41   ar
    43    41    33   ar
    44     7     1   ar
    45    41    36   ar
    46    15    10    1
    47    47    42   ar
    48    23    18   ar
    49    30    31    1
    50    26    27    1
    51     6     8    1
    52     6     9    1
@<TRIPOS>MOLECULE
*****
 47 52 0 0 0
SMALL
GASTEIGER

@<TRIPOS>ATOM
      1 C          11.9769   80.0938   24.9609 C.ar    1  UNL1        0.0714
      2 C          11.2968   81.3067   24.8067 C.ar    1  UNL1        0.1150
      3 N          11.9863   82.4591   24.6045 N.ar    1  UNL1       -0.2266
      4 C          13.3449   82.4911   24.5356 C.ar    1  UNL1        0.1448
      5 C          14.0766   81.2952   24.6882 C.ar    1  UNL1        0.0748
      6 N          15.5091   81.2859   24.6856 N.pl3   1  UNL1       -0.3548
      7 C          13.3783   80.0964   24.8836 C.ar    1  UNL1        0.0332
      8 H          16.0339   80.3846   24.7418 H       1  UNL1        0.1424
      9 H          16.0627   82.1694   24.7070 H       1  UNL1        0.1424
     10 N          13.9985   83.7437   24.2812 N.pl3   1  UNL1       -0.2923
     11 C          13.6809   84.8994   25.1294 C.3     1  UNL1        0.0923
     12 C          14.2284   86.2007   24.5298 C.3     1  UNL1        0.0252
     13 C          13.8679   86.2850   23.0345 C.3     1  UNL1        0.0472
     14 C          14.4036   85.0654   22.2296 C.3     1  UNL1        0.0252
     15 C          14.8739   83.8985   23.1127 C.3     1  UNL1        0.0923
     16 C          14.3640   87.6162   22.4383 C.3     1  UNL1        0.2054
     17 O          13.4327   88.1311   21.4846 O.3     1  UNL1       -0.4755
     18 C          13.5528   88.0324   20.0886 C.ar    1  UNL1        0.1388
     19 C          13.3916   89.1364   19.2301 C.ar    1  UNL1        0.0369
     20 C          13.5213   88.9768   17.8491 C.ar    1  UNL1        0.0033
     21 C          13.8152   87.7229   17.3094 C.ar    1  UNL1        0.0066
     22 C          13.9855   86.6104   18.1499 C.ar    1  UNL1        0.0785
     23 C          13.8533   86.7790   19.5407 C.ar    1  UNL1        0.0433
     24 C          14.2988   85.2828   17.5765 C.2     1  UNL1        0.3381
     25 O          15.3567   85.1067   16.9133 O.2     1  UNL1       -0.2451
     26 O          13.4266   84.2135   17.7644 O.3     1  UNL1       -0.4771
     27 H          13.6315   83.3004   17.3762 H       1  UNL1        0.2954
     28 C           9.9376   78.6409   24.5691 C.2     1  UNL1        0.2839
     29 O           9.5966   79.2430   23.5157 O.2     1  UNL1       -0.2665
     30 N          11.2315   78.8777   25.1438 N.am    1  UNL1       -0.2766
     31 H          11.7019   78.0810   25.6285 H       1  UNL1        0.1553
     32 C           8.3210   78.8179   27.3647 C.3     1  UNL1        0.0345
     33 C           8.3263   77.7097   26.3552 C.ar    1  UNL1        0.0202
     34 C           9.0211   77.6390   25.1412 C.ar    1  UNL1        0.1946
     35 O           8.7345   76.5070   24.5223 O.2     1  UNL1       -0.4492
     36 C           7.9080   75.8305   25.2818 C.ar    1  UNL1        0.1452
     37 C           7.3552   74.5805   25.0258 C.ar    1  UNL1        0.0375
     38 C           6.4886   74.0326   25.9879 C.ar    1  UNL1        0.0031
     39 C           6.1891   74.7382   27.1849 C.ar    1  UNL1        0.0002
     40 C           6.7721   76.0092   27.4049 C.ar    1  UNL1        0.0028
     41 C           7.6266   76.5218   26.4286 C.ar    1  UNL1        0.0337
     42 C           5.2734   74.1491   28.1948 C.ar    1  UNL1        0.0000
     43 C           4.8047   74.9226   29.2737 C.ar    1  UNL1        0.0000
     44 C           3.9417   74.3654   30.2224 C.ar    1  UNL1        0.0000
     45 C           3.5383   73.0334   30.1065 C.ar    1  UNL1        0.0000
     46 C           3.9964   72.2556   29.0409 C.ar    1  UNL1        0.0000
     47 C           4.8587   72.8078   28.0887 C.ar    1  UNL1        0.0000
@<TRIPOS>BOND
     1    32    33    1
     2    33    34   ar
     3    34    28    1
     4    28    29    2
     5    28    30   am
     6    30     1    1
     7     1     2   ar
     8     2     3   ar
     9     3     4   ar
    10     4    10    1
    11    10    11    1
    12    11    12    1
    13    12    13    1
    14    13    16    1
    15    16    17    1
    16    17    18    1
    17    18    19   ar
    18    19    20   ar
    19    20    21   ar
    20    21    22   ar
    21    22    24    1
    22    24    25    2
    23    24    26    1
    24    22    23   ar
    25    13    14    1
    26    14    15    1
    27     4     5   ar
    28     5     6    1
    29     5     7   ar
    30    34    35   ar
    31    35    36   ar
    32    36    37   ar
    33    37    38   ar
    34    38    39   ar
    35    39    42    1
    36    42    43   ar
    37    43    44   ar
    38    44    45   ar
    39    45    46   ar
    40    46    47   ar
    41    39    40   ar
    42    40    41   ar
    43    41    33   ar
    44     7     1   ar
    45    41    36   ar
    46    15    10    1
    47    47    42   ar
    48    23    18   ar
    49    30    31    1
    50    26    27    1
    51     6     8    1
    52     6     9    1
@<TRIPOS>MOLECULE
*****
 47 52 0 0 0
SMALL
GASTEIGER

@<TRIPOS>ATOM
      1 C          13.0112   83.0133   25.4244 C.ar    1  UNL1        0.0714
      2 C          13.0867   83.3130   24.0599 C.ar    1  UNL1        0.1150
      3 N          13.6737   84.4639   23.6416 N.ar    1  UNL1       -0.2266
      4 C          14.2135   85.3622   24.5096 C.ar    1  UNL1        0.1448
      5 C          14.1597   85.1074   25.8956 C.ar    1  UNL1        0.0748
      6 N          14.6579   86.0503   26.8521 N.pl3   1  UNL1       -0.3548
      7 C          13.5696   83.9176   26.3413 C.ar    1  UNL1        0.0332
      8 H          14.6627   85.8202   27.8709 H       1  UNL1        0.1424
      9 H          14.9530   87.0106   26.5724 H       1  UNL1        0.1424
     10 N          14.8503   86.5377   23.9865 N.pl3   1  UNL1       -0.2923
     11 C          14.2016   87.8421   24.1701 C.3     1  UNL1        0.0923
     12 C          14.8554   88.9199   23.2964 C.3     1  UNL1        0.0252
     13 C          15.0287   88.3988   21.8572 C.3     1  UNL1        0.0472
     14 C          15.8702   87.0906   21.8016 C.3     1  UNL1        0.0252
     15 C          16.0657   86.4210   23.1713 C.3     1  UNL1        0.0923
     16 C          15.6317   89.4960   20.9593 C.3     1  UNL1        0.2054
     17 O          15.5154   89.1509   19.5775 O.3     1  UNL1       -0.4755
     18 C          14.3418   89.2324   18.8102 C.ar    1  UNL1        0.1388
     19 C          13.0701   89.4290   19.3813 C.ar    1  UNL1        0.0369
     20 C          11.9381   89.5004   18.5670 C.ar    1  UNL1        0.0033
     21 C          12.0587   89.3812   17.1809 C.ar    1  UNL1        0.0066
     22 C          13.3195   89.1906   16.5918 C.ar    1  UNL1        0.0785
     23 C          14.4558   89.1197   17.4188 C.ar    1  UNL1        0.0433
     24 C          13.4457   89.0663   15.1227 C.2     1  UNL1        0.3381
     25 O          14.5831   88.9954   14.5829 O.2     1  UNL1       -0.2451
     26 O          12.3076   89.0265   14.3212 O.3     1  UNL1       -0.4771
     27 H          12.3827   88.9415   13.3145 H       1  UNL1        0.2954
     28 C          11.1261   81.3195   25.4103 C.2     1  UNL1        0.2839
     29 O          10.6676   81.7011   24.3000 O.2     1  UNL1       -0.2665
     30 N          12.4140   81.7763   25.8498 N.am    1  UNL1       -0.2766
     31 H          12.9930   81.1221   26.4223 H       1  UNL1        0.1553
     32 C           9.5108   78.7426   24.3103 C.3     1  UNL1        0.0345
     33 C           9.6484   79.2283   25.7218 C.ar    1  UNL1        0.0202
     34 C          10.3554   80.3402   26.1965 C.ar    1  UNL1        0.1946
     35 O          10.2572   80.4093   27.5127 O.2     1  UNL1       -0.4492
     36 C           9.5054   79.4135   27.9136 C.ar    1  UNL1        0.1452
     37 C           9.1314   79.1080   29.2175 C.ar    1  UNL1        0.0375
     38 C           8.3084   77.9867   29.4226 C.ar    1  UNL1        0.0031
     39 C           7.8737   77.1918   28.3274 C.ar    1  UNL1        0.0002
     40 C           8.2792   77.5372   27.0158 C.ar    1  UNL1        0.0028
     41 C           9.0962   78.6558   26.8502 C.ar    1  UNL1        0.0337
     42 C           7.0033   76.0104   28.5556 C.ar    1  UNL1        0.0000
     43 C           6.8466   75.4758   29.8486 C.ar    1  UNL1        0.0000
     44 C           6.0254   74.3640   30.0605 C.ar    1  UNL1        0.0000
     45 C           5.3538   73.7737   28.9877 C.ar    1  UNL1        0.0000
     46 C           5.5012   74.2946   27.7003 C.ar    1  UNL1        0.0000
     47 C           6.3202   75.4068   27.4826 C.ar    1  UNL1        0.0000
@<TRIPOS>BOND
     1    32    33    1
     2    33    34   ar
     3    34    28    1
     4    28    29    2
     5    28    30   am
     6    30     1    1
     7     1     2   ar
     8     2     3   ar
     9     3     4   ar
    10     4    10    1
    11    10    11    1
    12    11    12    1
    13    12    13    1
    14    13    16    1
    15    16    17    1
    16    17    18    1
    17    18    19   ar
    18    19    20   ar
    19    20    21   ar
    20    21    22   ar
    21    22    24    1
    22    24    25    2
    23    24    26    1
    24    22    23   ar
    25    13    14    1
    26    14    15    1
    27     4     5   ar
    28     5     6    1
    29     5     7   ar
    30    34    35   ar
    31    35    36   ar
    32    36    37   ar
    33    37    38   ar
    34    38    39   ar
    35    39    42    1
    36    42    43   ar
    37    43    44   ar
    38    44    45   ar
    39    45    46   ar
    40    46    47   ar
    41    39    40   ar
    42    40    41   ar
    43    41    33   ar
    44     7     1   ar
    45    41    36   ar
    46    15    10    1
    47    47    42   ar
    48    23    18   ar
    49    30    31    1
    50    26    27    1
    51     6     8    1
    52     6     9    1
