@<TRIPOS>MOLECULE
*****
 47 52 0 0 0
SMALL
GASTEIGER

@<TRIPOS>ATOM
      1 C          60.8081   86.6040    8.2716 C.ar    1  UNL1        0.0684
      2 C          61.9080   86.8546    9.1056 C.ar    1  UNL1        0.1147
      3 N          62.0893   86.1348   10.2415 N.ar    1  UNL1       -0.2279
      4 C          61.2381   85.1429   10.6181 C.ar    1  UNL1        0.1315
      5 C          60.1213   84.8595    9.8152 C.ar    1  UNL1        0.0337
      6 C          59.8849   85.6016    8.6451 C.ar    1  UNL1        0.0248
      7 N          61.4904   84.4144   11.8381 N.pl3   1  UNL1       -0.2933
      8 C          60.5054   84.4778   12.9285 C.3     1  UNL1        0.0923
      9 C          60.6148   83.2404   13.8224 C.3     1  UNL1        0.0252
     10 C          62.0271   83.0990   14.4369 C.3     1  UNL1        0.0472
     11 C          63.1463   83.6036   13.4842 C.3     1  UNL1        0.0252
     12 C          62.7195   83.6222   12.0115 C.3     1  UNL1        0.0923
     13 C          62.3021   81.6537   14.9016 C.3     1  UNL1        0.2054
     14 O          61.2748   80.7648   14.4538 O.3     1  UNL1       -0.4755
     15 C          61.1437   80.2112   13.1685 C.ar    1  UNL1        0.1388
     16 C          62.1704   80.2476   12.2053 C.ar    1  UNL1        0.0369
     17 C          61.9717   79.6800   10.9451 C.ar    1  UNL1        0.0033
     18 C          60.7580   79.0653   10.6322 C.ar    1  UNL1        0.0066
     19 C          59.7258   79.0074   11.5839 C.ar    1  UNL1        0.0785
     20 C          59.9333   79.5814   12.8505 C.ar    1  UNL1        0.0433
     21 C          58.4381   78.3536   11.2615 C.2     1  UNL1        0.3381
     22 O          57.5286   78.9928   10.6664 O.2     1  UNL1       -0.2451
     23 O          58.2182   77.0242   11.6129 O.3     1  UNL1       -0.4771
     24 H          57.3403   76.5672   11.3970 H       1  UNL1        0.2954
     25 C          60.1300   88.6422    6.9391 C.2     1  UNL1        0.2839
     26 O          59.5872   89.1730    7.9456 O.2     1  UNL1       -0.2665
     27 N          60.6710   87.3149    7.0289 N.am    1  UNL1       -0.2768
     28 H          60.9511   86.8297    6.1471 H       1  UNL1        0.1553
     29 C          57.6431   89.7529    5.2504 C.3     1  UNL1        0.0345
     30 C          59.1010   89.8600    4.9185 C.ar    1  UNL1        0.0202
     31 C          60.1843   89.3728    5.6586 C.ar    1  UNL1        0.1946
     32 O          61.3177   89.6611    5.0439 O.2     1  UNL1       -0.4492
     33 C          61.0254   90.3094    3.9430 C.ar    1  UNL1        0.1452
     34 C          61.9133   90.8046    2.9944 C.ar    1  UNL1        0.0375
     35 C          61.3816   91.4761    1.8799 C.ar    1  UNL1        0.0031
     36 C          59.9782   91.6418    1.7303 C.ar    1  UNL1        0.0002
     37 C          59.1088   91.1219    2.7192 C.ar    1  UNL1        0.0028
     38 C          59.6711   90.4607    3.8124 C.ar    1  UNL1        0.0337
     39 C          59.4282   92.3531    0.5486 C.ar    1  UNL1        0.0000
     40 C          58.0726   92.2123    0.1951 C.ar    1  UNL1        0.0000
     41 C          57.5577   92.8825   -0.9188 C.ar    1  UNL1        0.0000
     42 C          58.3868   93.6995   -1.6905 C.ar    1  UNL1        0.0000
     43 C          59.7332   93.8477   -1.3503 C.ar    1  UNL1        0.0000
     44 C          60.2538   93.1791   -0.2380 C.ar    1  UNL1        0.0000
     45 C          58.6766   85.2818    7.7896 C.3     1  UNL1        0.1650
     46 O          57.9152   86.4316    7.5320 O.3     1  UNL1       -0.3772
     47 H          58.4371   86.9781    6.8875 H       1  UNL1        0.2109
@<TRIPOS>BOND
     1    29    30    1
     2    30    31   ar
     3    31    25    1
     4    25    26    2
     5    25    27   am
     6    27     1    1
     7     1     2   ar
     8     2     3   ar
     9     3     4   ar
    10     4     7    1
    11     7     8    1
    12     8     9    1
    13     9    10    1
    14    10    13    1
    15    13    14    1
    16    14    15    1
    17    15    16   ar
    18    16    17   ar
    19    17    18   ar
    20    18    19   ar
    21    19    21    1
    22    21    22    2
    23    21    23    1
    24    19    20   ar
    25    10    11    1
    26    11    12    1
    27     4     5   ar
    28     5     6   ar
    29     6    45    1
    30    45    46    1
    31    31    32   ar
    32    32    33   ar
    33    33    34   ar
    34    34    35   ar
    35    35    36   ar
    36    36    39    1
    37    39    40   ar
    38    40    41   ar
    39    41    42   ar
    40    42    43   ar
    41    43    44   ar
    42    36    37   ar
    43    37    38   ar
    44    38    30   ar
    45     6     1   ar
    46    38    33   ar
    47    12     7    1
    48    44    39   ar
    49    20    15   ar
    50    27    28    1
    51    23    24    1
    52    46    47    1
@<TRIPOS>MOLECULE
*****
 47 52 0 0 0
SMALL
GASTEIGER

@<TRIPOS>ATOM
      1 C          60.8185   86.7360    8.2510 C.ar    1  UNL1        0.0684
      2 C          61.8774   87.0499    9.1161 C.ar    1  UNL1        0.1147
      3 N          62.0569   86.3528   10.2664 N.ar    1  UNL1       -0.2279
      4 C          61.2433   85.3247   10.6288 C.ar    1  UNL1        0.1315
      5 C          60.1680   84.9777    9.7947 C.ar    1  UNL1        0.0337
      6 C          59.9336   85.6939    8.6082 C.ar    1  UNL1        0.0248
      7 N          61.4913   84.6234   11.8655 N.pl3   1  UNL1       -0.2933
      8 C          60.6497   84.9137   13.0363 C.3     1  UNL1        0.0923
      9 C          60.6368   83.7216   13.9960 C.3     1  UNL1        0.0252
     10 C          62.0597   83.3622   14.4844 C.3     1  UNL1        0.0472
     11 C          63.1445   83.6132   13.4003 C.3     1  UNL1        0.0252
     12 C          62.5775   83.6353   11.9758 C.3     1  UNL1        0.0923
     13 C          62.1291   81.9154   15.0160 C.3     1  UNL1        0.2054
     14 O          62.4621   80.9982   13.9702 O.3     1  UNL1       -0.4755
     15 C          61.5653   80.2240   13.2139 C.ar    1  UNL1        0.1388
     16 C          60.3853   79.6706   13.7475 C.ar    1  UNL1        0.0369
     17 C          59.5394   78.9079   12.9396 C.ar    1  UNL1        0.0033
     18 C          59.8516   78.6944   11.5958 C.ar    1  UNL1        0.0066
     19 C          61.0178   79.2486   11.0415 C.ar    1  UNL1        0.0785
     20 C          61.8646   80.0151   11.8613 C.ar    1  UNL1        0.0433
     21 C          61.3533   79.0306    9.6170 C.2     1  UNL1        0.3381
     22 O          60.6563   79.5587    8.7085 O.2     1  UNL1       -0.2451
     23 O          62.4436   78.2388    9.2656 O.3     1  UNL1       -0.4771
     24 H          62.6819   78.0831    8.2934 H       1  UNL1        0.2954
     25 C          60.0809   88.7211    6.8708 C.2     1  UNL1        0.2839
     26 O          59.4771   89.2336    7.8516 O.2     1  UNL1       -0.2665
     27 N          60.6870   87.4251    6.9956 N.am    1  UNL1       -0.2768
     28 H          61.0219   86.9456    6.1298 H       1  UNL1        0.1553
     29 C          57.6027   89.8394    5.1742 C.3     1  UNL1        0.0345
     30 C          59.0613   89.9299    4.8401 C.ar    1  UNL1        0.0202
     31 C          60.1407   89.4394    5.5836 C.ar    1  UNL1        0.1946
     32 O          61.2761   89.7116    4.9653 O.2     1  UNL1       -0.4492
     33 C          60.9888   90.3525    3.8588 C.ar    1  UNL1        0.1452
     34 C          61.8803   90.8308    2.9049 C.ar    1  UNL1        0.0375
     35 C          61.3538   91.4970    1.7848 C.ar    1  UNL1        0.0031
     36 C          59.9518   91.6744    1.6350 C.ar    1  UNL1        0.0002
     37 C          59.0786   91.1716    2.6294 C.ar    1  UNL1        0.0028
     38 C          59.6358   90.5152    3.7280 C.ar    1  UNL1        0.0337
     39 C          59.4072   92.3800    0.4473 C.ar    1  UNL1        0.0000
     40 C          60.2415   93.1836   -0.3529 C.ar    1  UNL1        0.0000
     41 C          59.7258   93.8476   -1.4701 C.ar    1  UNL1        0.0000
     42 C          58.3754   93.7172   -1.8016 C.ar    1  UNL1        0.0000
     43 C          57.5374   92.9228   -1.0161 C.ar    1  UNL1        0.0000
     44 C          58.0475   92.2572    0.1029 C.ar    1  UNL1        0.0000
     45 C          58.7705   85.3053    7.7192 C.3     1  UNL1        0.1650
     46 O          57.9250   86.3986    7.4785 O.3     1  UNL1       -0.3772
     47 H          58.4134   87.0037    6.8607 H       1  UNL1        0.2109
@<TRIPOS>BOND
     1    29    30    1
     2    30    31   ar
     3    31    25    1
     4    25    26    2
     5    25    27   am
     6    27     1    1
     7     1     2   ar
     8     2     3   ar
     9     3     4   ar
    10     4     7    1
    11     7     8    1
    12     8     9    1
    13     9    10    1
    14    10    13    1
    15    13    14    1
    16    14    15    1
    17    15    16   ar
    18    16    17   ar
    19    17    18   ar
    20    18    19   ar
    21    19    21    1
    22    21    22    2
    23    21    23    1
    24    19    20   ar
    25    10    11    1
    26    11    12    1
    27     4     5   ar
    28     5     6   ar
    29     6    45    1
    30    45    46    1
    31    31    32   ar
    32    32    33   ar
    33    33    34   ar
    34    34    35   ar
    35    35    36   ar
    36    36    39    1
    37    39    40   ar
    38    40    41   ar
    39    41    42   ar
    40    42    43   ar
    41    43    44   ar
    42    36    37   ar
    43    37    38   ar
    44    38    30   ar
    45     6     1   ar
    46    38    33   ar
    47    12     7    1
    48    44    39   ar
    49    20    15   ar
    50    27    28    1
    51    23    24    1
    52    46    47    1
@<TRIPOS>MOLECULE
*****
 47 52 0 0 0
SMALL
GASTEIGER

@<TRIPOS>ATOM
      1 C          61.3579   87.8097    8.7297 C.ar    1  UNL1        0.0684
      2 C          60.6131   86.6676    9.0598 C.ar    1  UNL1        0.1147
      3 N          60.5973   86.1998   10.3335 N.ar    1  UNL1       -0.2279
      4 C          61.2793   86.8085   11.3408 C.ar    1  UNL1        0.1315
      5 C          62.0414   87.9533   11.0556 C.ar    1  UNL1        0.0337
      6 C          62.1041   88.4522    9.7431 C.ar    1  UNL1        0.0248
      7 N          61.2184   86.2597   12.6741 N.pl3   1  UNL1       -0.2933
      8 C          61.7137   84.8954   12.9118 C.3     1  UNL1        0.0923
      9 C          62.1293   84.7232   14.3747 C.3     1  UNL1        0.0252
     10 C          60.9545   85.0002   15.3418 C.3     1  UNL1        0.0472
     11 C          59.9984   86.1080   14.8184 C.3     1  UNL1        0.0252
     12 C          60.6587   87.0370   13.7926 C.3     1  UNL1        0.0923
     13 C          61.4546   85.3241   16.7649 C.3     1  UNL1        0.2054
     14 O          62.7739   85.8762   16.7335 O.3     1  UNL1       -0.4755
     15 C          63.1940   87.0095   16.0161 C.ar    1  UNL1        0.1388
     16 C          63.8972   86.9336   14.7983 C.ar    1  UNL1        0.0369
     17 C          64.2875   88.1009   14.1387 C.ar    1  UNL1        0.0033
     18 C          63.9774   89.3515   14.6759 C.ar    1  UNL1        0.0066
     19 C          63.2654   89.4483   15.8835 C.ar    1  UNL1        0.0785
     20 C          62.8761   88.2686   16.5419 C.ar    1  UNL1        0.0433
     21 C          62.9290   90.7701   16.4570 C.2     1  UNL1        0.3381
     22 O          61.7487   91.0281   16.8181 O.2     1  UNL1       -0.2451
     23 O          63.9142   91.7433   16.6037 O.3     1  UNL1       -0.4771
     24 H          63.6945   92.6515   16.9951 H       1  UNL1        0.2954
     25 C          60.1147   88.9272    6.8336 C.2     1  UNL1        0.2839
     26 O          59.0143   88.8314    7.4411 O.2     1  UNL1       -0.2665
     27 N          61.3009   88.3449    7.3960 N.am    1  UNL1       -0.2768
     28 H          62.1557   88.2790    6.7989 H       1  UNL1        0.1553
     29 C          57.6477   90.0490    5.1231 C.3     1  UNL1        0.0345
     30 C          59.1058   90.1046    4.7792 C.ar    1  UNL1        0.0202
     31 C          60.1803   89.6127    5.5289 C.ar    1  UNL1        0.1946
     32 O          61.3170   89.8488    4.8981 O.2     1  UNL1       -0.4492
     33 C          61.0350   90.4677    3.7778 C.ar    1  UNL1        0.1452
     34 C          61.9297   90.9061    2.8078 C.ar    1  UNL1        0.0375
     35 C          61.4090   91.5544    1.6745 C.ar    1  UNL1        0.0031
     36 C          60.0097   91.7538    1.5277 C.ar    1  UNL1        0.0002
     37 C          59.1332   91.2915    2.5387 C.ar    1  UNL1        0.0028
     38 C          59.6845   90.6520    3.6501 C.ar    1  UNL1        0.0337
     39 C          59.4713   92.4400    0.3260 C.ar    1  UNL1        0.0000
     40 C          60.3181   93.1979   -0.5052 C.ar    1  UNL1        0.0000
     41 C          59.8082   93.8438   -1.6356 C.ar    1  UNL1        0.0000
     42 C          58.4512   93.7407   -1.9496 C.ar    1  UNL1        0.0000
     43 C          57.6009   92.9918   -1.1333 C.ar    1  UNL1        0.0000
     44 C          58.1051   92.3445   -0.0010 C.ar    1  UNL1        0.0000
     45 C          62.9292   89.6889    9.4533 C.3     1  UNL1        0.1650
     46 O          63.9288   89.8733   10.4203 O.3     1  UNL1       -0.3772
     47 H          64.6135   89.1728   10.2568 H       1  UNL1        0.2109
@<TRIPOS>BOND
     1    29    30    1
     2    30    31   ar
     3    31    25    1
     4    25    26    2
     5    25    27   am
     6    27     1    1
     7     1     2   ar
     8     2     3   ar
     9     3     4   ar
    10     4     7    1
    11     7     8    1
    12     8     9    1
    13     9    10    1
    14    10    13    1
    15    13    14    1
    16    14    15    1
    17    15    16   ar
    18    16    17   ar
    19    17    18   ar
    20    18    19   ar
    21    19    21    1
    22    21    22    2
    23    21    23    1
    24    19    20   ar
    25    10    11    1
    26    11    12    1
    27     4     5   ar
    28     5     6   ar
    29     6    45    1
    30    45    46    1
    31    31    32   ar
    32    32    33   ar
    33    33    34   ar
    34    34    35   ar
    35    35    36   ar
    36    36    39    1
    37    39    40   ar
    38    40    41   ar
    39    41    42   ar
    40    42    43   ar
    41    43    44   ar
    42    36    37   ar
    43    37    38   ar
    44    38    30   ar
    45     6     1   ar
    46    38    33   ar
    47    12     7    1
    48    44    39   ar
    49    20    15   ar
    50    27    28    1
    51    23    24    1
    52    46    47    1
@<TRIPOS>MOLECULE
*****
 47 52 0 0 0
SMALL
GASTEIGER

@<TRIPOS>ATOM
      1 C          59.8413   89.4781    5.8337 C.ar    1  UNL1        0.0684
      2 C          60.9947   89.8860    5.1471 C.ar    1  UNL1        0.1147
      3 N          60.8964   90.6283    4.0154 N.ar    1  UNL1       -0.2279
      4 C          59.6984   91.0194    3.5034 C.ar    1  UNL1        0.1315
      5 C          58.5170   90.6310    4.1560 C.ar    1  UNL1        0.0337
      6 C          58.5772   89.8392    5.3157 C.ar    1  UNL1        0.0248
      7 N          59.6648   91.8099    2.2966 N.pl3   1  UNL1       -0.2933
      8 C          59.7981   93.2716    2.3922 C.3     1  UNL1        0.0923
      9 C          60.3379   93.8476    1.0811 C.3     1  UNL1        0.0252
     10 C          59.4183   93.5104   -0.1159 C.3     1  UNL1        0.0472
     11 C          58.7390   92.1199    0.0259 C.3     1  UNL1        0.0252
     12 C          59.4873   91.1792    0.9779 C.3     1  UNL1        0.0923
     13 C          60.1682   93.6285   -1.4591 C.3     1  UNL1        0.2054
     14 O          60.9444   92.4558   -1.7201 O.3     1  UNL1       -0.4755
     15 C          62.2233   92.1645   -1.2148 C.ar    1  UNL1        0.1388
     16 C          63.2574   91.6214   -2.0015 C.ar    1  UNL1        0.0369
     17 C          64.5048   91.3533   -1.4340 C.ar    1  UNL1        0.0033
     18 C          64.7398   91.6286   -0.0858 C.ar    1  UNL1        0.0066
     19 C          63.7249   92.1824    0.7128 C.ar    1  UNL1        0.0785
     20 C          62.4715   92.4493    0.1343 C.ar    1  UNL1        0.0433
     21 C          63.9675   92.4812    2.1415 C.2     1  UNL1        0.3381
     22 O          63.2538   91.9503    3.0352 O.2     1  UNL1       -0.2451
     23 O          64.9878   93.3531    2.5132 O.3     1  UNL1       -0.4771
     24 H          65.1622   93.5645    3.4884 H       1  UNL1        0.2954
     25 C          60.0160   87.3307    7.1556 C.2     1  UNL1        0.2839
     26 O          59.7875   86.6312    6.1321 O.2     1  UNL1       -0.2665
     27 N          59.9589   88.7635    7.0762 N.am    1  UNL1       -0.2768
     28 H          59.9732   89.3133    7.9645 H       1  UNL1        0.1553
     29 C          62.0116   84.8726    7.6514 C.3     1  UNL1        0.0345
     30 C          61.1850   85.6047    8.6653 C.ar    1  UNL1        0.0202
     31 C          60.3139   86.6775    8.4445 C.ar    1  UNL1        0.1946
     32 O          59.7643   87.0555    9.5850 O.2     1  UNL1       -0.4492
     33 C          60.2333   86.2826   10.5339 C.ar    1  UNL1        0.1452
     34 C          59.9252   86.3287   11.8890 C.ar    1  UNL1        0.0375
     35 C          60.5490   85.3996   12.7396 C.ar    1  UNL1        0.0031
     36 C          61.4663   84.4432   12.2264 C.ar    1  UNL1        0.0002
     37 C          61.7519   84.4303   10.8399 C.ar    1  UNL1        0.0028
     38 C          61.1144   85.3669   10.0247 C.ar    1  UNL1        0.0337
     39 C          62.1192   83.4667   13.1347 C.ar    1  UNL1        0.0000
     40 C          63.4991   83.5490   13.4018 C.ar    1  UNL1        0.0000
     41 C          64.1113   82.6275   14.2569 C.ar    1  UNL1        0.0000
     42 C          63.3558   81.6163   14.8545 C.ar    1  UNL1        0.0000
     43 C          61.9861   81.5241   14.5979 C.ar    1  UNL1        0.0000
     44 C          61.3687   82.4423   13.7429 C.ar    1  UNL1        0.0000
     45 C          57.2935   89.4307    6.0081 C.3     1  UNL1        0.1650
     46 O          56.2077   90.2007    5.5651 O.3     1  UNL1       -0.3772
     47 H          56.0038   89.8975    4.6415 H       1  UNL1        0.2109
@<TRIPOS>BOND
     1    29    30    1
     2    30    31   ar
     3    31    25    1
     4    25    26    2
     5    25    27   am
     6    27     1    1
     7     1     2   ar
     8     2     3   ar
     9     3     4   ar
    10     4     7    1
    11     7     8    1
    12     8     9    1
    13     9    10    1
    14    10    13    1
    15    13    14    1
    16    14    15    1
    17    15    16   ar
    18    16    17   ar
    19    17    18   ar
    20    18    19   ar
    21    19    21    1
    22    21    22    2
    23    21    23    1
    24    19    20   ar
    25    10    11    1
    26    11    12    1
    27     4     5   ar
    28     5     6   ar
    29     6    45    1
    30    45    46    1
    31    31    32   ar
    32    32    33   ar
    33    33    34   ar
    34    34    35   ar
    35    35    36   ar
    36    36    39    1
    37    39    40   ar
    38    40    41   ar
    39    41    42   ar
    40    42    43   ar
    41    43    44   ar
    42    36    37   ar
    43    37    38   ar
    44    38    30   ar
    45     6     1   ar
    46    38    33   ar
    47    12     7    1
    48    44    39   ar
    49    20    15   ar
    50    27    28    1
    51    23    24    1
    52    46    47    1
@<TRIPOS>MOLECULE
*****
 47 52 0 0 0
SMALL
GASTEIGER

@<TRIPOS>ATOM
      1 C          61.3168   87.9581    8.7681 C.ar    1  UNL1        0.0684
      2 C          60.5239   86.8569    9.1241 C.ar    1  UNL1        0.1147
      3 N          60.5016   86.4094   10.4049 N.ar    1  UNL1       -0.2279
      4 C          61.2229   87.0007   11.3950 C.ar    1  UNL1        0.1315
      5 C          62.0338   88.1044   11.0837 C.ar    1  UNL1        0.0337
      6 C          62.1040   88.5803    9.7630 C.ar    1  UNL1        0.0248
      7 N          61.1525   86.4753   12.7372 N.pl3   1  UNL1       -0.2933
      8 C          59.8515   86.0463   13.2726 C.3     1  UNL1        0.0923
      9 C          60.0437   85.0088   14.3811 C.3     1  UNL1        0.0252
     10 C          60.9005   85.5626   15.5436 C.3     1  UNL1        0.0472
     11 C          61.9960   86.5526   15.0592 C.3     1  UNL1        0.0252
     12 C          62.3562   86.3742   13.5795 C.3     1  UNL1        0.0923
     13 C          61.5123   84.4265   16.3895 C.3     1  UNL1        0.2054
     14 O          61.5432   83.1985   15.6566 O.3     1  UNL1       -0.4755
     15 C          62.4669   82.8369   14.6608 C.ar    1  UNL1        0.1388
     16 C          63.8114   83.2561   14.6679 C.ar    1  UNL1        0.0369
     17 C          64.6755   82.8618   13.6444 C.ar    1  UNL1        0.0033
     18 C          64.2169   82.0431   12.6109 C.ar    1  UNL1        0.0066
     19 C          62.8823   81.6038   12.5926 C.ar    1  UNL1        0.0785
     20 C          62.0182   82.0053   13.6265 C.ar    1  UNL1        0.0433
     21 C          62.3898   80.7321   11.5031 C.2     1  UNL1        0.3381
     22 O          62.8733   80.8257   10.3423 O.2     1  UNL1       -0.2451
     23 O          61.3861   79.7989   11.7498 O.3     1  UNL1       -0.4771
     24 H          61.0417   79.1974   11.0110 H       1  UNL1        0.2954
     25 C          60.0652   88.9683    6.8181 C.2     1  UNL1        0.2839
     26 O          58.9538   88.8017    7.3892 O.2     1  UNL1       -0.2665
     27 N          61.2689   88.4754    7.4270 N.am    1  UNL1       -0.2768
     28 H          62.1462   88.4637    6.8599 H       1  UNL1        0.1553
     29 C          57.5940   90.0716    5.1016 C.3     1  UNL1        0.0345
     30 C          59.0516   90.1282    4.7560 C.ar    1  UNL1        0.0202
     31 C          60.1280   89.6444    5.5083 C.ar    1  UNL1        0.1946
     32 O          61.2636   89.8786    4.8749 O.2     1  UNL1       -0.4492
     33 C          60.9792   90.4886    3.7503 C.ar    1  UNL1        0.1452
     34 C          61.8719   90.9221    2.7763 C.ar    1  UNL1        0.0375
     35 C          61.3487   91.5608    1.6388 C.ar    1  UNL1        0.0031
     36 C          59.9487   91.7557    1.4917 C.ar    1  UNL1        0.0002
     37 C          59.0742   91.2987    2.5068 C.ar    1  UNL1        0.0028
     38 C          59.6281   90.6687    3.6224 C.ar    1  UNL1        0.0337
     39 C          59.4077   92.4318    0.2855 C.ar    1  UNL1        0.0000
     40 C          60.2459   93.2100   -0.5356 C.ar    1  UNL1        0.0000
     41 C          59.7334   93.8462   -1.6703 C.ar    1  UNL1        0.0000
     42 C          58.3825   93.7133   -1.9987 C.ar    1  UNL1        0.0000
     43 C          57.5407   92.9440   -1.1925 C.ar    1  UNL1        0.0000
     44 C          58.0475   92.3062   -0.0560 C.ar    1  UNL1        0.0000
     45 C          62.9820   89.7728    9.4449 C.3     1  UNL1        0.1650
     46 O          63.9062   90.0142   10.4725 O.3     1  UNL1       -0.3772
     47 H          64.5830   89.2892   10.4206 H       1  UNL1        0.2109
@<TRIPOS>BOND
     1    29    30    1
     2    30    31   ar
     3    31    25    1
     4    25    26    2
     5    25    27   am
     6    27     1    1
     7     1     2   ar
     8     2     3   ar
     9     3     4   ar
    10     4     7    1
    11     7     8    1
    12     8     9    1
    13     9    10    1
    14    10    13    1
    15    13    14    1
    16    14    15    1
    17    15    16   ar
    18    16    17   ar
    19    17    18   ar
    20    18    19   ar
    21    19    21    1
    22    21    22    2
    23    21    23    1
    24    19    20   ar
    25    10    11    1
    26    11    12    1
    27     4     5   ar
    28     5     6   ar
    29     6    45    1
    30    45    46    1
    31    31    32   ar
    32    32    33   ar
    33    33    34   ar
    34    34    35   ar
    35    35    36   ar
    36    36    39    1
    37    39    40   ar
    38    40    41   ar
    39    41    42   ar
    40    42    43   ar
    41    43    44   ar
    42    36    37   ar
    43    37    38   ar
    44    38    30   ar
    45     6     1   ar
    46    38    33   ar
    47    12     7    1
    48    44    39   ar
    49    20    15   ar
    50    27    28    1
    51    23    24    1
    52    46    47    1
