@<TRIPOS>MOLECULE
*****
 29 32 0 0 0
SMALL
GASTEIGER

@<TRIPOS>ATOM
      1 C          46.6817   15.8062  -24.5790 C.3     1  UNL1        0.0138
      2 C          46.7215   14.5933  -25.4821 C.3     1  UNL1        0.1087
      3 C          47.1590   13.3346  -25.0045 C.3     1  UNL1        0.0893
      4 N          47.2278   12.2725  -25.8572 N.4     1  UNL1        0.3475
      5 C          46.8480   12.3620  -27.1625 C.3     1  UNL1        0.0950
      6 C          46.9299   11.2348  -27.9944 C.3     1  UNL1        0.0932
      7 C          46.5336   11.3099  -29.3296 C.3     1  UNL1        0.1789
      8 F          46.6212   10.2080  -30.1156 F       1  UNL1       -0.2361
      9 C          46.0487   12.5127  -29.8512 C.3     1  UNL1        0.1186
     10 I          45.4490   12.6147  -31.8783 I       1  UNL1       -0.0695
     11 C          45.9600   13.6484  -29.0350 C.3     1  UNL1        0.1856
     12 F          45.4863   14.8024  -29.5722 F       1  UNL1       -0.2357
     13 C          46.3607   13.5848  -27.6796 C.3     1  UNL1        0.1419
     14 C          46.2954   14.7019  -26.8211 C.2     1  UNL1        0.1637
     15 O          45.8569   15.8063  -27.2470 O.2     1  UNL1       -0.2956
     16 H          47.5653   11.3531  -25.4883 H       1  UNL1        0.2374
     17 C          47.5553   13.1311  -23.5917 C.3     1  UNL1        0.0516
     18 C          48.8373   13.5002  -23.1643 C.3     1  UNL1        0.0071
     19 C          49.2269   13.2956  -21.8380 C.3     1  UNL1        0.0162
     20 C          48.3437   12.7065  -20.9117 C.3     1  UNL1        0.0577
     21 C          47.0623   12.3236  -21.3546 C.3     1  UNL1        0.0162
     22 C          46.6754   12.5290  -22.6816 C.3     1  UNL1        0.0071
     23 N          48.7451   12.4952  -19.5375 N.3     1  UNL1       -0.2692
     24 C          50.1252   12.5484  -19.0761 C.3     1  UNL1        0.0779
     25 C          50.0975   12.0882  -17.6251 C.3     1  UNL1        0.0853
     26 C          48.6467   12.2374  -17.1767 C.3     1  UNL1        0.2797
     27 F          48.2851   11.2143  -16.3165 F       1  UNL1       -0.2028
     28 F          48.4758   13.4564  -16.5405 F       1  UNL1       -0.2028
     29 C          47.8174   12.1973  -18.4553 C.3     1  UNL1        0.1394
@<TRIPOS>BOND
     1     1     2    1
     2     2     3    1
     3     3    17    1
     4    17    18    1
     5    18    19    1
     6    19    20    1
     7    20    23    1
     8    23    24    1
     9    24    25    1
    10    25    26    1
    11    26    27    1
    12    26    28    1
    13    26    29    1
    14    20    21    1
    15    21    22    1
    16     3     4    1
    17     4     5    1
    18     5     6    1
    19     6     7    1
    20     7     8    1
    21     7     9    1
    22     9    10    1
    23     9    11    1
    24    11    12    1
    25    11    13    1
    26    13    14    1
    27    14    15    2
    28    14     2    1
    29    22    17    1
    30    13     5    1
    31    29    23    1
    32     4    16    1
@<TRIPOS>MOLECULE
*****
 29 32 0 0 0
SMALL
GASTEIGER

@<TRIPOS>ATOM
      1 C          52.5934   11.4641  -25.5144 C.3     1  UNL1        0.0138
      2 C          51.7990   10.5267  -26.3969 C.3     1  UNL1        0.1087
      3 C          50.5325   10.0368  -25.9974 C.3     1  UNL1        0.0893
      4 N          49.8638    9.1559  -26.7953 N.4     1  UNL1        0.3475
      5 C          50.3522    8.7513  -28.0011 C.3     1  UNL1        0.0950
      6 C          49.6180    7.8502  -28.7873 C.3     1  UNL1        0.0932
      7 C          50.1014    7.4369  -30.0287 C.3     1  UNL1        0.1789
      8 F          49.3751    6.5652  -30.7720 F       1  UNL1       -0.2361
      9 C          51.3248    7.9199  -30.5018 C.3     1  UNL1        0.1186
     10 I          52.0477    7.2868  -32.3874 I       1  UNL1       -0.0695
     11 C          52.0714    8.8203  -29.7300 C.3     1  UNL1        0.1856
     12 F          53.2569    9.2698  -30.2170 F       1  UNL1       -0.2357
     13 C          51.5922    9.2453  -28.4685 C.3     1  UNL1        0.1419
     14 C          52.3102   10.1452  -27.6537 C.2     1  UNL1        0.1637
     15 O          53.4158   10.6129  -28.0439 O.2     1  UNL1       -0.2956
     16 H          48.9343    8.7955  -26.4770 H       1  UNL1        0.2374
     17 C          49.9032   10.4501  -24.7216 C.3     1  UNL1        0.0516
     18 C          50.0670    9.6644  -23.5735 C.3     1  UNL1        0.0071
     19 C          49.4624   10.0362  -22.3698 C.3     1  UNL1        0.0162
     20 C          48.6708   11.1990  -22.2916 C.3     1  UNL1        0.0577
     21 C          48.4983   11.9741  -23.4554 C.3     1  UNL1        0.0162
     22 C          49.1037   11.5998  -24.6579 C.3     1  UNL1        0.0071
     23 N          48.0451   11.5863  -21.0456 N.3     1  UNL1       -0.2692
     24 C          46.6210   11.4498  -20.7739 C.3     1  UNL1        0.0779
     25 C          46.3830   12.1435  -19.4397 C.3     1  UNL1        0.0853
     26 C          47.7549   12.2402  -18.7790 C.3     1  UNL1        0.2797
     27 F          47.8852   13.4264  -18.0765 F       1  UNL1       -0.2028
     28 F          47.9359   11.1714  -17.9160 F       1  UNL1       -0.2028
     29 C          48.7640   12.1648  -19.9191 C.3     1  UNL1        0.1394
@<TRIPOS>BOND
     1     1     2    1
     2     2     3    1
     3     3    17    1
     4    17    18    1
     5    18    19    1
     6    19    20    1
     7    20    23    1
     8    23    24    1
     9    24    25    1
    10    25    26    1
    11    26    27    1
    12    26    28    1
    13    26    29    1
    14    20    21    1
    15    21    22    1
    16     3     4    1
    17     4     5    1
    18     5     6    1
    19     6     7    1
    20     7     8    1
    21     7     9    1
    22     9    10    1
    23     9    11    1
    24    11    12    1
    25    11    13    1
    26    13    14    1
    27    14    15    2
    28    14     2    1
    29    22    17    1
    30    13     5    1
    31    29    23    1
    32     4    16    1
@<TRIPOS>MOLECULE
*****
 29 32 0 0 0
SMALL
GASTEIGER

@<TRIPOS>ATOM
      1 C          51.5827   12.4428  -26.2006 C.3     1  UNL1        0.0138
      2 C          51.0040   11.5936  -25.0904 C.3     1  UNL1        0.1087
      3 C          50.5831   10.2626  -25.3256 C.3     1  UNL1        0.0893
      4 N          50.0220    9.5403  -24.3141 N.4     1  UNL1        0.3475
      5 C          49.8838   10.0392  -23.0539 C.3     1  UNL1        0.0950
      6 C          49.3080    9.2490  -22.0472 C.3     1  UNL1        0.0932
      7 C          49.1711    9.7436  -20.7503 C.3     1  UNL1        0.1789
      8 F          48.6117    8.9625  -19.7928 F       1  UNL1       -0.2361
      9 C          49.6092   11.0346  -20.4415 C.3     1  UNL1        0.1186
     10 I          49.3976   11.7742  -18.4699 I       1  UNL1       -0.0695
     11 C          50.1865   11.8377  -21.4343 C.3     1  UNL1        0.1856
     12 F          50.6006   13.0881  -21.1028 F       1  UNL1       -0.2357
     13 C          50.3290   11.3476  -22.7538 C.3     1  UNL1        0.1419
     14 C          50.8982   12.1200  -23.7874 C.2     1  UNL1        0.1637
     15 O          51.3145   13.2883  -23.5526 O.2     1  UNL1       -0.2956
     16 H          49.7059    8.5622  -24.5106 H       1  UNL1        0.2374
     17 C          50.7287    9.6215  -26.6531 C.3     1  UNL1        0.0516
     18 C          49.6529    8.9212  -27.2139 C.3     1  UNL1        0.0071
     19 C          49.7860    8.2976  -28.4574 C.3     1  UNL1        0.0162
     20 C          51.0044    8.3526  -29.1627 C.3     1  UNL1        0.0577
     21 C          52.0858    9.0451  -28.5833 C.3     1  UNL1        0.0162
     22 C          51.9501    9.6675  -27.3396 C.3     1  UNL1        0.0071
     23 N          51.1435    7.7085  -30.4511 N.3     1  UNL1       -0.2692
     24 C          50.0197    7.2685  -31.2659 C.3     1  UNL1        0.0779
     25 C          50.6254    6.4909  -32.4262 C.3     1  UNL1        0.0853
     26 C          52.0902    6.9144  -32.4815 C.3     1  UNL1        0.2797
     27 F          52.9021    5.8495  -32.8342 F       1  UNL1       -0.2028
     28 F          52.2475    7.9383  -33.4018 F       1  UNL1       -0.2028
     29 C          52.4235    7.4176  -31.0817 C.3     1  UNL1        0.1394
@<TRIPOS>BOND
     1     1     2    1
     2     2     3    1
     3     3    17    1
     4    17    18    1
     5    18    19    1
     6    19    20    1
     7    20    23    1
     8    23    24    1
     9    24    25    1
    10    25    26    1
    11    26    27    1
    12    26    28    1
    13    26    29    1
    14    20    21    1
    15    21    22    1
    16     3     4    1
    17     4     5    1
    18     5     6    1
    19     6     7    1
    20     7     8    1
    21     7     9    1
    22     9    10    1
    23     9    11    1
    24    11    12    1
    25    11    13    1
    26    13    14    1
    27    14    15    2
    28    14     2    1
    29    22    17    1
    30    13     5    1
    31    29    23    1
    32     4    16    1
@<TRIPOS>MOLECULE
*****
 29 32 0 0 0
SMALL
GASTEIGER

@<TRIPOS>ATOM
      1 C          48.5838    8.8386  -20.5984 C.3     1  UNL1        0.0138
      2 C          49.3854    9.7476  -21.5038 C.3     1  UNL1        0.1087
      3 C          49.8098   11.0273  -21.0724 C.3     1  UNL1        0.0893
      4 N          50.4900   11.8408  -21.9299 N.4     1  UNL1        0.3475
      5 C          50.8202   11.4522  -23.1932 C.3     1  UNL1        0.0950
      6 C          51.5299   12.3256  -24.0315 C.3     1  UNL1        0.0932
      7 C          51.8841   11.9359  -25.3230 C.3     1  UNL1        0.1789
      8 F          52.5702   12.7963  -26.1161 F       1  UNL1       -0.2361
      9 C          51.5348   10.6670  -25.7939 C.3     1  UNL1        0.1186
     10 I          52.0787   10.0859  -27.7549 I       1  UNL1       -0.0695
     11 C          50.8260    9.7818  -24.9706 C.3     1  UNL1        0.1856
     12 F          50.5001    8.5567  -25.4582 F       1  UNL1       -0.2357
     13 C          50.4597   10.1666  -23.6594 C.3     1  UNL1        0.1419
     14 C          49.7416    9.3130  -22.7963 C.2     1  UNL1        0.1637
     15 O          49.4118    8.1554  -23.1765 O.2     1  UNL1       -0.2956
     16 H          50.7847   12.7880  -21.5965 H       1  UNL1        0.2374
     17 C          49.5312   11.5211  -19.7038 C.3     1  UNL1        0.0516
     18 C          50.5777   11.6588  -18.7829 C.3     1  UNL1        0.0071
     19 C          50.3225   12.1066  -17.4839 C.3     1  UNL1        0.0162
     20 C          49.0104   12.4167  -17.0749 C.3     1  UNL1        0.0577
     21 C          47.9622   12.2595  -18.0030 C.3     1  UNL1        0.0162
     22 C          48.2201   11.8112  -19.3011 C.3     1  UNL1        0.0071
     23 N          48.7445   12.8818  -15.7306 N.3     1  UNL1       -0.2692
     24 C          48.8568   12.0456  -14.5437 C.3     1  UNL1        0.0779
     25 C          48.3116   12.8801  -13.3929 C.3     1  UNL1        0.0853
     26 C          48.3433   14.3242  -13.8846 C.3     1  UNL1        0.2797
     27 F          47.2510   15.0333  -13.4137 F       1  UNL1       -0.2028
     28 F          49.5100   14.9387  -13.4587 F       1  UNL1       -0.2028
     29 C          48.3264   14.2385  -15.4065 C.3     1  UNL1        0.1394
@<TRIPOS>BOND
     1     1     2    1
     2     2     3    1
     3     3    17    1
     4    17    18    1
     5    18    19    1
     6    19    20    1
     7    20    23    1
     8    23    24    1
     9    24    25    1
    10    25    26    1
    11    26    27    1
    12    26    28    1
    13    26    29    1
    14    20    21    1
    15    21    22    1
    16     3     4    1
    17     4     5    1
    18     5     6    1
    19     6     7    1
    20     7     8    1
    21     7     9    1
    22     9    10    1
    23     9    11    1
    24    11    12    1
    25    11    13    1
    26    13    14    1
    27    14    15    2
    28    14     2    1
    29    22    17    1
    30    13     5    1
    31    29    23    1
    32     4    16    1
@<TRIPOS>MOLECULE
*****
 29 32 0 0 0
SMALL
GASTEIGER

@<TRIPOS>ATOM
      1 C          50.0304   14.2511  -24.6427 C.3     1  UNL1        0.0138
      2 C          49.1243   13.6335  -23.6005 C.3     1  UNL1        0.1087
      3 C          47.9078   13.0066  -23.9621 C.3     1  UNL1        0.0893
      4 N          47.0912   12.5018  -22.9935 N.4     1  UNL1        0.3475
      5 C          47.4209   12.5390  -21.6721 C.3     1  UNL1        0.0950
      6 C          46.5480   11.9957  -20.7171 C.3     1  UNL1        0.0932
      7 C          46.8788   12.0172  -19.3622 C.3     1  UNL1        0.1789
      8 F          46.0201   11.4863  -18.4563 F       1  UNL1       -0.2361
      9 C          48.0874   12.5810  -18.9436 C.3     1  UNL1        0.1186
     10 I          48.5794   12.6068  -16.8854 I       1  UNL1       -0.0695
     11 C          48.9712   13.1281  -19.8835 C.3     1  UNL1        0.1856
     12 F          50.1368   13.6699  -19.4446 F       1  UNL1       -0.2357
     13 C          48.6458   13.1138  -21.2603 C.3     1  UNL1        0.1419
     14 C          49.4999   13.6570  -22.2424 C.2     1  UNL1        0.1637
     15 O          50.6048   14.1694  -21.9110 O.2     1  UNL1       -0.2956
     16 H          46.1902   12.0529  -23.2797 H       1  UNL1        0.2374
     17 C          47.4836   12.8839  -25.3761 C.3     1  UNL1        0.0516
     18 C          47.7422   11.7034  -26.0844 C.3     1  UNL1        0.0071
     19 C          47.3622   11.5846  -27.4240 C.3     1  UNL1        0.0162
     20 C          46.7235   12.6507  -28.0877 C.3     1  UNL1        0.0577
     21 C          46.4824   13.8400  -27.3719 C.3     1  UNL1        0.0162
     22 C          46.8637   13.9562  -26.0326 C.3     1  UNL1        0.0071
     23 N          46.3282   12.5289  -29.4744 N.3     1  UNL1       -0.2692
     24 C          46.5367   11.3320  -30.2773 C.3     1  UNL1        0.0779
     25 C          46.1462   11.7109  -31.6992 C.3     1  UNL1        0.0853
     26 C          45.2891   12.9662  -31.5668 C.3     1  UNL1        0.2797
     27 F          45.5242   13.8408  -32.6144 F       1  UNL1       -0.2028
     28 F          43.9480   12.6183  -31.5492 F       1  UNL1       -0.2028
     29 C          45.6820   13.5908  -30.2328 C.3     1  UNL1        0.1394
@<TRIPOS>BOND
     1     1     2    1
     2     2     3    1
     3     3    17    1
     4    17    18    1
     5    18    19    1
     6    19    20    1
     7    20    23    1
     8    23    24    1
     9    24    25    1
    10    25    26    1
    11    26    27    1
    12    26    28    1
    13    26    29    1
    14    20    21    1
    15    21    22    1
    16     3     4    1
    17     4     5    1
    18     5     6    1
    19     6     7    1
    20     7     8    1
    21     7     9    1
    22     9    10    1
    23     9    11    1
    24    11    12    1
    25    11    13    1
    26    13    14    1
    27    14    15    2
    28    14     2    1
    29    22    17    1
    30    13     5    1
    31    29    23    1
    32     4    16    1
@<TRIPOS>MOLECULE
*****
 29 32 0 0 0
SMALL
GASTEIGER

@<TRIPOS>ATOM
      1 C          47.2025   10.8514  -22.6739 C.3     1  UNL1        0.0138
      2 C          48.2638   11.1815  -21.6477 C.3     1  UNL1        0.1087
      3 C          49.6416   11.1000  -21.9621 C.3     1  UNL1        0.0893
      4 N          50.5730   11.3586  -21.0000 N.4     1  UNL1        0.3475
      5 C          50.2287   11.7384  -19.7378 C.3     1  UNL1        0.0950
      6 C          51.2282   12.0019  -18.7887 C.3     1  UNL1        0.0932
      7 C          50.8894   12.4025  -17.4963 C.3     1  UNL1        0.1789
      8 F          51.8719   12.6520  -16.5950 F       1  UNL1       -0.2361
      9 C          49.5467   12.5465  -17.1354 C.3     1  UNL1        0.1186
     10 I          49.0445   13.1562  -15.1719 I       1  UNL1       -0.0695
     11 C          48.5354   12.2876  -18.0702 C.3     1  UNL1        0.1856
     12 F          47.2405   12.4350  -17.6880 F       1  UNL1       -0.2357
     13 C          48.8667   11.8788  -19.3836 C.3     1  UNL1        0.1419
     14 C          47.8845   11.6014  -20.3570 C.2     1  UNL1        0.1637
     15 O          46.6598   11.7255  -20.0777 O.2     1  UNL1       -0.2956
     16 H          51.5866   11.2812  -21.2485 H       1  UNL1        0.2374
     17 C          50.1119   10.7330  -23.3180 C.3     1  UNL1        0.0516
     18 C          50.3837    9.3937  -23.6259 C.3     1  UNL1        0.0071
     19 C          50.8452    9.0396  -24.8965 C.3     1  UNL1        0.0162
     20 C          51.0549   10.0214  -25.8849 C.3     1  UNL1        0.0577
     21 C          50.7946   11.3676  -25.5610 C.3     1  UNL1        0.0162
     22 C          50.3336   11.7190  -24.2896 C.3     1  UNL1        0.0071
     23 N          51.5314    9.6563  -27.2016 N.3     1  UNL1       -0.2692
     24 C          50.6958    9.0529  -28.2304 C.3     1  UNL1        0.0779
     25 C          51.6391    8.6725  -29.3633 C.3     1  UNL1        0.0853
     26 C          52.9039    9.4950  -29.1355 C.3     1  UNL1        0.2797
     27 F          54.0345    8.7724  -29.4777 F       1  UNL1       -0.2028
     28 F          52.8515   10.6545  -29.8922 F       1  UNL1       -0.2028
     29 C          52.9040    9.8423  -27.6511 C.3     1  UNL1        0.1394
@<TRIPOS>BOND
     1     1     2    1
     2     2     3    1
     3     3    17    1
     4    17    18    1
     5    18    19    1
     6    19    20    1
     7    20    23    1
     8    23    24    1
     9    24    25    1
    10    25    26    1
    11    26    27    1
    12    26    28    1
    13    26    29    1
    14    20    21    1
    15    21    22    1
    16     3     4    1
    17     4     5    1
    18     5     6    1
    19     6     7    1
    20     7     8    1
    21     7     9    1
    22     9    10    1
    23     9    11    1
    24    11    12    1
    25    11    13    1
    26    13    14    1
    27    14    15    2
    28    14     2    1
    29    22    17    1
    30    13     5    1
    31    29    23    1
    32     4    16    1
@<TRIPOS>MOLECULE
*****
 29 32 0 0 0
SMALL
GASTEIGER

@<TRIPOS>ATOM
      1 C          49.6012   10.6046  -21.3217 C.3     1  UNL1        0.0138
      2 C          49.1535   11.4880  -20.1781 C.3     1  UNL1        0.1087
      3 C          48.3999   12.6639  -20.4085 C.3     1  UNL1        0.0893
      4 N          48.0528   13.4631  -19.3594 N.4     1  UNL1        0.3475
      5 C          48.3706   13.1519  -18.0717 C.3     1  UNL1        0.0950
      6 C          47.9801   14.0051  -17.0283 C.3     1  UNL1        0.0932
      7 C          48.2892   13.6923  -15.7046 C.3     1  UNL1        0.1789
      8 F          47.9018   14.5314  -14.7118 F       1  UNL1       -0.2361
      9 C          48.9920   12.5215  -15.4057 C.3     1  UNL1        0.1186
     10 I          49.4544   12.0565  -13.3935 I       1  UNL1       -0.0695
     11 C          49.3899   11.6579  -16.4351 C.3     1  UNL1        0.1856
     12 F          50.0728   10.5292  -16.1120 F       1  UNL1       -0.2357
     13 C          49.0837   11.9654  -17.7817 C.3     1  UNL1        0.1419
     14 C          49.4678   11.1307  -18.8516 C.2     1  UNL1        0.1637
     15 O          50.0971   10.0595  -18.6280 O.2     1  UNL1       -0.2956
     16 H          47.5060   14.3346  -19.5512 H       1  UNL1        0.2374
     17 C          47.9746   13.0637  -21.7701 C.3     1  UNL1        0.0516
     18 C          48.6955   14.0397  -22.4701 C.3     1  UNL1        0.0071
     19 C          48.2918   14.4367  -23.7477 C.3     1  UNL1        0.0162
     20 C          47.1497   13.8719  -24.3490 C.3     1  UNL1        0.0577
     21 C          46.4216   12.9030  -23.6307 C.3     1  UNL1        0.0162
     22 C          46.8273   12.5081  -22.3532 C.3     1  UNL1        0.0071
     23 N          46.7310   14.2809  -25.6724 N.3     1  UNL1       -0.2692
     24 C          46.3617   13.3523  -26.7316 C.3     1  UNL1        0.0779
     25 C          46.1763   14.1998  -27.9828 C.3     1  UNL1        0.0853
     26 C          45.9904   15.6297  -27.4839 C.3     1  UNL1        0.2797
     27 F          46.5913   16.5366  -28.3407 F       1  UNL1       -0.2028
     28 F          44.6390   15.9183  -27.3814 F       1  UNL1       -0.2028
     29 C          46.6366   15.6685  -26.1038 C.3     1  UNL1        0.1394
@<TRIPOS>BOND
     1     1     2    1
     2     2     3    1
     3     3    17    1
     4    17    18    1
     5    18    19    1
     6    19    20    1
     7    20    23    1
     8    23    24    1
     9    24    25    1
    10    25    26    1
    11    26    27    1
    12    26    28    1
    13    26    29    1
    14    20    21    1
    15    21    22    1
    16     3     4    1
    17     4     5    1
    18     5     6    1
    19     6     7    1
    20     7     8    1
    21     7     9    1
    22     9    10    1
    23     9    11    1
    24    11    12    1
    25    11    13    1
    26    13    14    1
    27    14    15    2
    28    14     2    1
    29    22    17    1
    30    13     5    1
    31    29    23    1
    32     4    16    1
@<TRIPOS>MOLECULE
*****
 29 32 0 0 0
SMALL
GASTEIGER

@<TRIPOS>ATOM
      1 C          51.7490   13.6341  -22.3316 C.3     1  UNL1        0.0138
      2 C          50.8752   13.4319  -21.1134 C.3     1  UNL1        0.1087
      3 C          49.4687   13.5742  -21.1852 C.3     1  UNL1        0.0893
      4 N          48.7144   13.4316  -20.0580 N.4     1  UNL1        0.3475
      5 C          49.2619   13.1121  -18.8521 C.3     1  UNL1        0.0950
      6 C          48.4380   12.9677  -17.7253 C.3     1  UNL1        0.0932
      7 C          48.9845   12.6297  -16.4874 C.3     1  UNL1        0.1789
      8 F          48.1694   12.4953  -15.4115 F       1  UNL1       -0.2361
      9 C          50.3620   12.4300  -16.3591 C.3     1  UNL1        0.1186
     10 I          51.1799   11.9160  -14.4761 I       1  UNL1       -0.0695
     11 C          51.1998   12.5700  -17.4737 C.3     1  UNL1        0.1856
     12 F          52.5340   12.3710  -17.3159 F       1  UNL1       -0.2357
     13 C          50.6572   12.9144  -18.7342 C.3     1  UNL1        0.1419
     14 C          51.4603   13.0721  -19.8828 C.2     1  UNL1        0.1637
     15 O          52.7082   12.8941  -19.8154 O.2     1  UNL1       -0.2956
     16 H          47.6773   13.5527  -20.1290 H       1  UNL1        0.2374
     17 C          48.7799   13.8826  -22.4600 C.3     1  UNL1        0.0516
     18 C          48.3690   12.8420  -23.3030 C.3     1  UNL1        0.0071
     19 C          47.7348   13.1230  -24.5161 C.3     1  UNL1        0.0162
     20 C          47.5073   14.4543  -24.9172 C.3     1  UNL1        0.0577
     21 C          47.9388   15.4944  -24.0706 C.3     1  UNL1        0.0162
     22 C          48.5730   15.2106  -22.8583 C.3     1  UNL1        0.0071
     23 N          46.8495   14.7471  -26.1725 N.3     1  UNL1       -0.2692
     24 C          46.3104   13.7302  -27.0646 C.3     1  UNL1        0.0779
     25 C          45.8877   14.4663  -28.3285 C.3     1  UNL1        0.0853
     26 C          45.7710   15.9337  -27.9269 C.3     1  UNL1        0.2797
     27 F          46.1917   16.7641  -28.9521 F       1  UNL1       -0.2028
     28 F          44.4557   16.2284  -27.6056 F       1  UNL1       -0.2028
     29 C          46.6553   16.0922  -26.6953 C.3     1  UNL1        0.1394
@<TRIPOS>BOND
     1     1     2    1
     2     2     3    1
     3     3    17    1
     4    17    18    1
     5    18    19    1
     6    19    20    1
     7    20    23    1
     8    23    24    1
     9    24    25    1
    10    25    26    1
    11    26    27    1
    12    26    28    1
    13    26    29    1
    14    20    21    1
    15    21    22    1
    16     3     4    1
    17     4     5    1
    18     5     6    1
    19     6     7    1
    20     7     8    1
    21     7     9    1
    22     9    10    1
    23     9    11    1
    24    11    12    1
    25    11    13    1
    26    13    14    1
    27    14    15    2
    28    14     2    1
    29    22    17    1
    30    13     5    1
    31    29    23    1
    32     4    16    1
@<TRIPOS>MOLECULE
*****
 29 32 0 0 0
SMALL
GASTEIGER

@<TRIPOS>ATOM
      1 C          49.4351   10.2506  -22.2665 C.3     1  UNL1        0.0138
      2 C          48.5391   11.2874  -22.9074 C.3     1  UNL1        0.1087
      3 C          47.8818   12.2722  -22.1315 C.3     1  UNL1        0.0893
      4 N          47.0435   13.1627  -22.7350 N.4     1  UNL1        0.3475
      5 C          46.8394   13.1715  -24.0819 C.3     1  UNL1        0.0950
      6 C          45.9732   14.1167  -24.6526 C.3     1  UNL1        0.0932
      7 C          45.7643   14.1438  -26.0314 C.3     1  UNL1        0.1789
      8 F          44.9228   15.0662  -26.5617 F       1  UNL1       -0.2361
      9 C          46.4194   13.2273  -26.8588 C.3     1  UNL1        0.1186
     10 I          46.0957   13.2787  -28.9497 I       1  UNL1       -0.0695
     11 C          47.2878   12.2764  -26.3061 C.3     1  UNL1        0.1856
     12 F          47.9078   11.3986  -27.1367 F       1  UNL1       -0.2357
     13 C          47.5063   12.2380  -24.9088 C.3     1  UNL1        0.1419
     14 C          48.3661   11.2964  -24.3060 C.2     1  UNL1        0.1637
     15 O          48.9844   10.4548  -25.0150 O.2     1  UNL1       -0.2956
     16 H          46.5573   13.8755  -22.1428 H       1  UNL1        0.2374
     17 C          48.0723   12.3655  -20.6654 C.3     1  UNL1        0.0516
     18 C          47.1340   11.7891  -19.7996 C.3     1  UNL1        0.0071
     19 C          47.2952   11.8874  -18.4149 C.3     1  UNL1        0.0162
     20 C          48.3955   12.5751  -17.8661 C.3     1  UNL1        0.0577
     21 C          49.3252   13.1657  -18.7445 C.3     1  UNL1        0.0162
     22 C          49.1614   13.0662  -20.1287 C.3     1  UNL1        0.0071
     23 N          48.5648   12.6767  -16.4325 N.3     1  UNL1       -0.2692
     24 C          48.2268   13.8611  -15.6557 C.3     1  UNL1        0.0779
     25 C          48.7359   13.5941  -14.2459 C.3     1  UNL1        0.0853
     26 C          48.9262   12.0827  -14.1596 C.3     1  UNL1        0.2797
     27 F          50.0353   11.7646  -13.3939 F       1  UNL1       -0.2028
     28 F          47.7993   11.4995  -13.6029 F       1  UNL1       -0.2028
     29 C          49.0997   11.6096  -15.5984 C.3     1  UNL1        0.1394
@<TRIPOS>BOND
     1     1     2    1
     2     2     3    1
     3     3    17    1
     4    17    18    1
     5    18    19    1
     6    19    20    1
     7    20    23    1
     8    23    24    1
     9    24    25    1
    10    25    26    1
    11    26    27    1
    12    26    28    1
    13    26    29    1
    14    20    21    1
    15    21    22    1
    16     3     4    1
    17     4     5    1
    18     5     6    1
    19     6     7    1
    20     7     8    1
    21     7     9    1
    22     9    10    1
    23     9    11    1
    24    11    12    1
    25    11    13    1
    26    13    14    1
    27    14    15    2
    28    14     2    1
    29    22    17    1
    30    13     5    1
    31    29    23    1
    32     4    16    1
