@<TRIPOS>MOLECULE
*****
 51 56 0 0 0
SMALL
GASTEIGER

@<TRIPOS>ATOM
      1 C          58.4389   82.0166   12.5530 C.3     1  UNL1        0.1535
      2 O          57.7454   84.7774   12.5366 O.2     1  UNL1       -0.2701
      3 C          58.9365   84.4899   12.8374 C.2     1  UNL1        0.2483
      4 N          59.3676   83.1205   12.8176 N.am    1  UNL1       -0.2945
      5 H          60.3923   82.9182   12.8597 H       1  UNL1        0.1501
      6 C          59.8842   85.5769   13.1656 C.ar    1  UNL1        0.0808
      7 C          61.2548   85.3989   12.9203 C.ar    1  UNL1        0.0080
      8 C          62.1697   86.4065   13.2344 C.ar    1  UNL1        0.0148
      9 C          61.7333   87.6207   13.7929 C.ar    1  UNL1        0.0502
     10 C          60.3578   87.8057   14.0182 C.ar    1  UNL1        0.0443
     11 C          59.4399   86.7976   13.7073 C.ar    1  UNL1        0.1457
     12 F          58.1175   87.0384   13.8957 F       1  UNL1       -0.2040
     13 N          62.6786   88.6652   14.1161 N.pl3   1  UNL1       -0.3040
     14 C          63.0364   89.6761   13.1104 C.3     1  UNL1        0.1122
     15 C          64.4697   90.1727   13.3237 C.3     1  UNL1        0.1122
     16 N          64.6956   90.5921   14.7158 N.pl3   1  UNL1       -0.3040
     17 C          63.7625   90.1685   15.7699 C.3     1  UNL1        0.1122
     18 C          63.2159   88.7667   15.4821 C.3     1  UNL1        0.1122
     19 C          65.7852   91.4897   15.0260 C.ar    1  UNL1        0.0488
     20 C          65.6518   92.4510   16.0441 C.ar    1  UNL1        0.0154
     21 C          66.7058   93.3170   16.3453 C.ar    1  UNL1        0.0135
     22 C          67.9095   93.2373   15.6390 C.ar    1  UNL1        0.0683
     23 CL         69.2126   94.3451   16.0480 Cl      1  UNL1       -0.0814
     24 C          68.0582   92.2804   14.6225 C.ar    1  UNL1        0.0694
     25 CL         69.5580   92.1417   13.7146 Cl      1  UNL1       -0.0813
     26 C          67.0012   91.4134   14.3210 C.ar    1  UNL1        0.0268
     27 C          58.3429   81.7761   11.0708 C.2     1  UNL1        0.2443
     28 O          57.6406   80.8188   10.6454 O.2     1  UNL1       -0.2730
     29 N          59.0350   82.6344   10.1502 N.am    1  UNL1       -0.2823
     30 H          59.5723   83.4471   10.5272 H       1  UNL1        0.1549
     31 C          58.9484   82.4798    8.7257 C.ar    1  UNL1        0.0597
     32 C          57.9413   81.6695    8.1811 C.ar    1  UNL1        0.0356
     33 C          57.9000   81.4448    6.8066 C.ar    1  UNL1        0.1002
     34 N          58.8369   82.0009    5.9983 N.ar    1  UNL1       -0.2420
     35 C          59.8292   82.7886    6.4887 C.ar    1  UNL1        0.1065
     36 C          59.9133   83.0603    7.8659 C.ar    1  UNL1        0.1080
     37 C          60.9780   83.9717    8.3548 C.2     1  UNL1        0.3408
     38 O          60.9353   84.4523    9.5193 O.2     1  UNL1       -0.2450
     39 O          62.0245   84.3343    7.5107 O.3     1  UNL1       -0.4770
     40 H          62.7522   84.9651    7.8254 H       1  UNL1        0.2954
     41 C          58.8944   80.7317   13.2657 C.3     1  UNL1        0.0569
     42 C          60.3561   80.4746   13.0377 C.ar    1  UNL1       -0.0017
     43 C          60.9094   79.5893   12.1170 C.ar    1  UNL1        0.0681
     44 N          62.2590   79.6792   12.1282 N.ar    1  UNL1       -0.3523
     45 C          62.5613   80.6199   13.0397 C.ar    1  UNL1        0.0563
     46 C          63.8298   81.0790   13.3918 C.ar    1  UNL1        0.0170
     47 C          63.9157   82.0933   14.3631 C.ar    1  UNL1        0.0015
     48 C          62.7453   82.6223   14.9514 C.ar    1  UNL1        0.0001
     49 C          61.4782   82.1411   14.5749 C.ar    1  UNL1        0.0012
     50 C          61.4255   81.1319   13.6131 C.ar    1  UNL1        0.0131
     51 H          62.9262   79.1372   11.5352 H       1  UNL1        0.1660
@<TRIPOS>BOND
     1     2     3    2
     2     3     4   am
     3     4     1    1
     4     1    41    1
     5    41    42    1
     6    42    43   ar
     7    43    44   ar
     8    44    45   ar
     9    45    46   ar
    10    46    47   ar
    11    47    48   ar
    12    48    49   ar
    13    49    50   ar
    14     1    27    1
    15    27    28    2
    16    27    29   am
    17    29    31    1
    18    31    32   ar
    19    32    33   ar
    20    33    34   ar
    21    34    35   ar
    22    35    36   ar
    23    36    37    1
    24    37    38    2
    25    37    39    1
    26     3     6    1
    27     6     7   ar
    28     7     8   ar
    29     8     9   ar
    30     9    13    1
    31    13    14    1
    32    14    15    1
    33    15    16    1
    34    16    19    1
    35    19    20   ar
    36    20    21   ar
    37    21    22   ar
    38    22    23    1
    39    22    24   ar
    40    24    25    1
    41    24    26   ar
    42    16    17    1
    43    17    18    1
    44     9    10   ar
    45    10    11   ar
    46    11    12    1
    47    50    42   ar
    48    36    31   ar
    49    11     6   ar
    50    50    45   ar
    51    18    13    1
    52    26    19   ar
    53     4     5    1
    54    44    51    1
    55    29    30    1
    56    39    40    1
@<TRIPOS>MOLECULE
*****
 51 56 0 0 0
SMALL
GASTEIGER

@<TRIPOS>ATOM
      1 C          60.8428   85.8118   12.4905 C.3     1  UNL1        0.1535
      2 O          58.5266   86.5226   10.9962 O.2     1  UNL1       -0.2701
      3 C          59.6302   86.9797   10.5901 C.2     1  UNL1        0.2483
      4 N          60.8444   86.6214   11.2675 N.am    1  UNL1       -0.2945
      5 H          61.7568   86.8298   10.8021 H       1  UNL1        0.1501
      6 C          59.6596   87.8466    9.3922 C.ar    1  UNL1        0.0808
      7 C          60.1741   89.1488    9.4916 C.ar    1  UNL1        0.0080
      8 C          60.1997   89.9898    8.3767 C.ar    1  UNL1        0.0148
      9 C          59.7195   89.5440    7.1328 C.ar    1  UNL1        0.0502
     10 C          59.2242   88.2321    7.0298 C.ar    1  UNL1        0.0443
     11 C          59.1949   87.3889    8.1450 C.ar    1  UNL1        0.1457
     12 F          58.7540   86.1148    7.9882 F       1  UNL1       -0.2040
     13 N          59.7477   90.4123    5.9776 N.pl3   1  UNL1       -0.3040
     14 C          58.6207   91.3158    5.7037 C.3     1  UNL1        0.1122
     15 C          58.4684   91.5554    4.1984 C.3     1  UNL1        0.1122
     16 N          59.7410   91.9655    3.5842 N.pl3   1  UNL1       -0.3040
     17 C          61.0059   91.7434    4.2998 C.3     1  UNL1        0.1122
     18 C          60.9457   90.4538    5.1244 C.3     1  UNL1        0.1122
     19 C          59.7338   92.6632    2.3184 C.ar    1  UNL1        0.0488
     20 C          60.6708   93.6791    2.0568 C.ar    1  UNL1        0.0154
     21 C          60.6651   94.3519    0.8324 C.ar    1  UNL1        0.0135
     22 C          59.7280   94.0217   -0.1509 C.ar    1  UNL1        0.0683
     23 CL         59.7533   94.8916   -1.6789 Cl      1  UNL1       -0.0814
     24 C          58.7888   93.0073    0.0951 C.ar    1  UNL1        0.0694
     25 CL         57.5975   92.5559   -1.1172 Cl      1  UNL1       -0.0813
     26 C          58.7950   92.3342    1.3225 C.ar    1  UNL1        0.0268
     27 C          60.5031   84.3847   12.1561 C.2     1  UNL1        0.2443
     28 O          61.3963   83.6338   11.6777 O.2     1  UNL1       -0.2730
     29 N          59.1786   83.8804   12.3896 N.am    1  UNL1       -0.2823
     30 H          58.4708   84.5105   12.8292 H       1  UNL1        0.1549
     31 C          58.8065   82.5186   12.1292 C.ar    1  UNL1        0.0597
     32 C          59.0814   81.5341   13.0898 C.ar    1  UNL1        0.0356
     33 C          58.8018   80.1977   12.8122 C.ar    1  UNL1        0.1002
     34 N          58.2736   79.8485   11.6124 N.ar    1  UNL1       -0.2420
     35 C          57.9965   80.7726   10.6559 C.ar    1  UNL1        0.1065
     36 C          58.2461   82.1375   10.8851 C.ar    1  UNL1        0.1080
     37 C          57.8764   83.1214    9.8370 C.2     1  UNL1        0.3408
     38 O          58.1843   82.9291    8.6300 O.2     1  UNL1       -0.2450
     39 O          57.2106   84.2933   10.1875 O.3     1  UNL1       -0.4770
     40 H          56.9623   84.9804    9.4856 H       1  UNL1        0.2954
     41 C          62.2091   85.8760   13.1945 C.3     1  UNL1        0.0569
     42 C          62.1817   86.8421   14.3435 C.ar    1  UNL1       -0.0017
     43 C          61.5109   86.6761   15.5518 C.ar    1  UNL1        0.0681
     44 N          61.7768   87.7079   16.3849 N.ar    1  UNL1       -0.3523
     45 C          62.6169   88.5177   15.7173 C.ar    1  UNL1        0.0563
     46 C          63.1884   89.7046   16.1739 C.ar    1  UNL1        0.0170
     47 C          64.0639   90.3878   15.3100 C.ar    1  UNL1        0.0015
     48 C          64.3480   89.8735   14.0253 C.ar    1  UNL1        0.0001
     49 C          63.7584   88.6720   13.5919 C.ar    1  UNL1        0.0012
     50 C          62.8910   88.0203   14.4689 C.ar    1  UNL1        0.0131
     51 H          61.4138   87.8369   17.3556 H       1  UNL1        0.1660
@<TRIPOS>BOND
     1     2     3    2
     2     3     4   am
     3     4     1    1
     4     1    41    1
     5    41    42    1
     6    42    43   ar
     7    43    44   ar
     8    44    45   ar
     9    45    46   ar
    10    46    47   ar
    11    47    48   ar
    12    48    49   ar
    13    49    50   ar
    14     1    27    1
    15    27    28    2
    16    27    29   am
    17    29    31    1
    18    31    32   ar
    19    32    33   ar
    20    33    34   ar
    21    34    35   ar
    22    35    36   ar
    23    36    37    1
    24    37    38    2
    25    37    39    1
    26     3     6    1
    27     6     7   ar
    28     7     8   ar
    29     8     9   ar
    30     9    13    1
    31    13    14    1
    32    14    15    1
    33    15    16    1
    34    16    19    1
    35    19    20   ar
    36    20    21   ar
    37    21    22   ar
    38    22    23    1
    39    22    24   ar
    40    24    25    1
    41    24    26   ar
    42    16    17    1
    43    17    18    1
    44     9    10   ar
    45    10    11   ar
    46    11    12    1
    47    50    42   ar
    48    36    31   ar
    49    11     6   ar
    50    50    45   ar
    51    18    13    1
    52    26    19   ar
    53     4     5    1
    54    44    51    1
    55    29    30    1
    56    39    40    1
@<TRIPOS>MOLECULE
*****
 51 56 0 0 0
SMALL
GASTEIGER

@<TRIPOS>ATOM
      1 C          60.7818   85.0310   11.7729 C.3     1  UNL1        0.1535
      2 O          59.2239   87.4048   11.5696 O.2     1  UNL1       -0.2701
      3 C          59.9082   87.0829   10.5596 C.2     1  UNL1        0.2483
      4 N          60.6789   85.8716   10.5755 N.am    1  UNL1       -0.2945
      5 H          61.0648   85.5126    9.6728 H       1  UNL1        0.1501
      6 C          59.8713   87.9406    9.3553 C.ar    1  UNL1        0.0808
      7 C          60.6268   89.1232    9.3233 C.ar    1  UNL1        0.0080
      8 C          60.5971   89.9553    8.2018 C.ar    1  UNL1        0.0148
      9 C          59.8175   89.6187    7.0813 C.ar    1  UNL1        0.0502
     10 C          59.0781   88.4230    7.1065 C.ar    1  UNL1        0.0443
     11 C          59.1039   87.5894    8.2289 C.ar    1  UNL1        0.1457
     12 F          58.4138   86.4213    8.1901 F       1  UNL1       -0.2040
     13 N          59.7878   90.4776    5.9191 N.pl3   1  UNL1       -0.3040
     14 C          58.6248   91.3408    5.6669 C.3     1  UNL1        0.1122
     15 C          58.4269   91.5624    4.1642 C.3     1  UNL1        0.1122
     16 N          59.6694   92.0092    3.5148 N.pl3   1  UNL1       -0.3040
     17 C          60.9585   91.8352    4.1998 C.3     1  UNL1        0.1122
     18 C          60.9620   90.5514    5.0356 C.3     1  UNL1        0.1122
     19 C          59.6071   92.6955    2.2443 C.ar    1  UNL1        0.0488
     20 C          60.4505   93.7899    1.9809 C.ar    1  UNL1        0.0154
     21 C          60.3918   94.4518    0.7520 C.ar    1  UNL1        0.0135
     22 C          59.4942   94.0323   -0.2342 C.ar    1  UNL1        0.0683
     23 CL         59.4506   94.8914   -1.7680 Cl      1  UNL1       -0.0814
     24 C          58.6487   92.9391    0.0135 C.ar    1  UNL1        0.0694
     25 CL         57.5103   92.3746   -1.2023 Cl      1  UNL1       -0.0813
     26 C          58.7079   92.2770    1.2454 C.ar    1  UNL1        0.0268
     27 C          61.6411   85.7137   12.8022 C.2     1  UNL1        0.2443
     28 O          62.8825   85.4915   12.8149 O.2     1  UNL1       -0.2730
     29 N          61.0550   86.6172   13.7527 N.am    1  UNL1       -0.2823
     30 H          60.0319   86.8184   13.6904 H       1  UNL1        0.1549
     31 C          61.8286   87.3285   14.7306 C.ar    1  UNL1        0.0597
     32 C          61.9441   86.8084   16.0281 C.ar    1  UNL1        0.0356
     33 C          62.6212   87.5324   17.0073 C.ar    1  UNL1        0.1002
     34 N          63.1592   88.7414   16.7088 N.ar    1  UNL1       -0.2420
     35 C          63.0654   89.2794   15.4649 C.ar    1  UNL1        0.1065
     36 C          62.4046   88.5884   14.4337 C.ar    1  UNL1        0.1080
     37 C          62.3734   89.1841   13.0745 C.2     1  UNL1        0.3408
     38 O          62.8055   88.5458   12.0772 O.2     1  UNL1       -0.2450
     39 O          61.8940   90.4790   12.8938 O.3     1  UNL1       -0.4770
     40 H          61.8776   90.9041   11.9743 H       1  UNL1        0.2954
     41 C          59.3907   84.7376   12.3603 C.3     1  UNL1        0.0569
     42 C          58.7049   83.6359   11.6050 C.ar    1  UNL1       -0.0017
     43 C          57.9136   83.7763   10.4685 C.ar    1  UNL1        0.0681
     44 N          57.5291   82.5638   10.0084 N.ar    1  UNL1       -0.3523
     45 C          58.0790   81.6600   10.8379 C.ar    1  UNL1        0.0563
     46 C          57.9828   80.2714   10.7586 C.ar    1  UNL1        0.0170
     47 C          58.6607   79.5090   11.7274 C.ar    1  UNL1        0.0015
     48 C          59.4136   80.1441   12.7401 C.ar    1  UNL1        0.0001
     49 C          59.4947   81.5475   12.7942 C.ar    1  UNL1        0.0012
     50 C          58.8079   82.2762   11.8229 C.ar    1  UNL1        0.0131
     51 H          56.9384   82.3727    9.1687 H       1  UNL1        0.1660
@<TRIPOS>BOND
     1     2     3    2
     2     3     4   am
     3     4     1    1
     4     1    41    1
     5    41    42    1
     6    42    43   ar
     7    43    44   ar
     8    44    45   ar
     9    45    46   ar
    10    46    47   ar
    11    47    48   ar
    12    48    49   ar
    13    49    50   ar
    14     1    27    1
    15    27    28    2
    16    27    29   am
    17    29    31    1
    18    31    32   ar
    19    32    33   ar
    20    33    34   ar
    21    34    35   ar
    22    35    36   ar
    23    36    37    1
    24    37    38    2
    25    37    39    1
    26     3     6    1
    27     6     7   ar
    28     7     8   ar
    29     8     9   ar
    30     9    13    1
    31    13    14    1
    32    14    15    1
    33    15    16    1
    34    16    19    1
    35    19    20   ar
    36    20    21   ar
    37    21    22   ar
    38    22    23    1
    39    22    24   ar
    40    24    25    1
    41    24    26   ar
    42    16    17    1
    43    17    18    1
    44     9    10   ar
    45    10    11   ar
    46    11    12    1
    47    50    42   ar
    48    36    31   ar
    49    11     6   ar
    50    50    45   ar
    51    18    13    1
    52    26    19   ar
    53     4     5    1
    54    44    51    1
    55    29    30    1
    56    39    40    1
@<TRIPOS>MOLECULE
*****
 51 56 0 0 0
SMALL
GASTEIGER

@<TRIPOS>ATOM
      1 C          60.8184   85.0314   11.7589 C.3     1  UNL1        0.1535
      2 O          59.1362   87.3157   11.5237 O.2     1  UNL1       -0.2701
      3 C          59.8658   87.0396   10.5321 C.2     1  UNL1        0.2483
      4 N          60.7025   85.8732   10.5636 N.am    1  UNL1       -0.2945
      5 H          61.1333   85.5426    9.6704 H       1  UNL1        0.1501
      6 C          59.8149   87.9022    9.3318 C.ar    1  UNL1        0.0808
      7 C          60.4150   89.1707    9.3640 C.ar    1  UNL1        0.0080
      8 C          60.3680   90.0077    8.2468 C.ar    1  UNL1        0.0148
      9 C          59.7272   89.5911    7.0669 C.ar    1  UNL1        0.0502
     10 C          59.1452   88.3117    7.0290 C.ar    1  UNL1        0.0443
     11 C          59.1883   87.4727    8.1469 C.ar    1  UNL1        0.1457
     12 F          58.6566   86.2277    8.0493 F       1  UNL1       -0.2040
     13 N          59.6800   90.4552    5.9091 N.pl3   1  UNL1       -0.3040
     14 C          58.4645   91.2266    5.6110 C.3     1  UNL1        0.1122
     15 C          58.3148   91.4452    4.1023 C.3     1  UNL1        0.1122
     16 N          59.5449   91.9939    3.5102 N.pl3   1  UNL1       -0.3040
     17 C          60.8130   91.9156    4.2499 C.3     1  UNL1        0.1122
     18 C          60.8817   90.6287    5.0781 C.3     1  UNL1        0.1122
     19 C          59.4836   92.6843    2.2419 C.ar    1  UNL1        0.0488
     20 C          60.3725   93.7366    1.9571 C.ar    1  UNL1        0.0154
     21 C          60.3146   94.4024    0.7303 C.ar    1  UNL1        0.0135
     22 C          59.3724   94.0289   -0.2325 C.ar    1  UNL1        0.0683
     23 CL         59.3314   94.8914   -1.7644 Cl      1  UNL1       -0.0814
     24 C          58.4811   92.9780    0.0366 C.ar    1  UNL1        0.0694
     25 CL         57.2854   92.4717   -1.1494 Cl      1  UNL1       -0.0813
     26 C          58.5395   92.3119    1.2665 C.ar    1  UNL1        0.0268
     27 C          61.6524   85.7325   12.7966 C.2     1  UNL1        0.2443
     28 O          62.6583   85.1447   13.2798 O.2     1  UNL1       -0.2730
     29 N          61.3127   87.0611   13.2240 N.am    1  UNL1       -0.2823
     30 H          60.5018   87.5421   12.7742 H       1  UNL1        0.1549
     31 C          62.0931   87.7955   14.1791 C.ar    1  UNL1        0.0597
     32 C          62.9886   88.7764   13.7279 C.ar    1  UNL1        0.0356
     33 C          63.8116   89.4352   14.6389 C.ar    1  UNL1        0.1002
     34 N          63.7536   89.1222   15.9576 N.ar    1  UNL1       -0.2420
     35 C          62.9019   88.1761   16.4321 C.ar    1  UNL1        0.1065
     36 C          62.0389   87.4877   15.5610 C.ar    1  UNL1        0.1080
     37 C          61.0833   86.5025   16.1261 C.2     1  UNL1        0.3408
     38 O          61.3780   85.8270   17.1486 O.2     1  UNL1       -0.2450
     39 O          59.8555   86.2894   15.5045 O.3     1  UNL1       -0.4770
     40 H          59.1975   85.6117   15.8709 H       1  UNL1        0.2954
     41 C          59.4311   84.7003   12.3353 C.3     1  UNL1        0.0569
     42 C          59.0085   83.3081   11.9644 C.ar    1  UNL1       -0.0017
     43 C          58.7953   82.2450   12.8373 C.ar    1  UNL1        0.0681
     44 N          58.3413   81.1641   12.1627 N.ar    1  UNL1       -0.3523
     45 C          58.2565   81.5388   10.8744 C.ar    1  UNL1        0.0563
     46 C          57.8171   80.7697    9.7977 C.ar    1  UNL1        0.0170
     47 C          57.7892   81.3728    8.5269 C.ar    1  UNL1        0.0015
     48 C          58.1932   82.7166    8.3632 C.ar    1  UNL1        0.0001
     49 C          58.6299   83.4694    9.4684 C.ar    1  UNL1        0.0012
     50 C          58.6511   82.8425   10.7144 C.ar    1  UNL1        0.0131
     51 H          58.0926   80.2341   12.5674 H       1  UNL1        0.1660
@<TRIPOS>BOND
     1     2     3    2
     2     3     4   am
     3     4     1    1
     4     1    41    1
     5    41    42    1
     6    42    43   ar
     7    43    44   ar
     8    44    45   ar
     9    45    46   ar
    10    46    47   ar
    11    47    48   ar
    12    48    49   ar
    13    49    50   ar
    14     1    27    1
    15    27    28    2
    16    27    29   am
    17    29    31    1
    18    31    32   ar
    19    32    33   ar
    20    33    34   ar
    21    34    35   ar
    22    35    36   ar
    23    36    37    1
    24    37    38    2
    25    37    39    1
    26     3     6    1
    27     6     7   ar
    28     7     8   ar
    29     8     9   ar
    30     9    13    1
    31    13    14    1
    32    14    15    1
    33    15    16    1
    34    16    19    1
    35    19    20   ar
    36    20    21   ar
    37    21    22   ar
    38    22    23    1
    39    22    24   ar
    40    24    25    1
    41    24    26   ar
    42    16    17    1
    43    17    18    1
    44     9    10   ar
    45    10    11   ar
    46    11    12    1
    47    50    42   ar
    48    36    31   ar
    49    11     6   ar
    50    50    45   ar
    51    18    13    1
    52    26    19   ar
    53     4     5    1
    54    44    51    1
    55    29    30    1
    56    39    40    1
