@<TRIPOS>MOLECULE
*****
 43 47 0 0 0
SMALL
GASTEIGER

@<TRIPOS>ATOM
      1 C          -6.8351  -13.8542   27.5156 C.ar    1  UNL1        0.0848
      2 C          -6.3639  -12.6383   28.0638 C.ar    1  UNL1        0.1398
      3 C          -7.0404  -11.9607   29.0398 C.ar    1  UNL1        0.0325
      4 C          -8.2411  -12.4712   29.5003 C.ar    1  UNL1        0.0752
      5 N          -9.0773  -11.9601   30.4104 N.ar    1  UNL1       -0.3255
      6 C         -10.0869  -12.8648   30.4500 C.ar    1  UNL1        0.1984
      7 N          -9.9257  -13.9087   29.5959 N.ar    1  UNL1       -0.2140
      8 C          -8.7431  -13.6446   29.0069 C.ar    1  UNL1        0.0957
      9 C          -8.0667  -14.4013   28.0155 C.ar    1  UNL1        0.0040
     10 C          -6.3264  -10.7111   29.4056 C.3     1  UNL1        0.0709
     11 C          -5.0712  -10.7615   28.4713 C.3     1  UNL1        0.1375
     12 C          -5.0308   -9.5562   27.5230 C.3     1  UNL1        0.0439
     13 C          -3.7727  -10.8475   29.2843 C.3     1  UNL1        0.0439
     14 O          -5.2190  -11.9584   27.7022 O.3     1  UNL1       -0.4824
     15 H          -8.9805  -11.0633   30.9364 H       1  UNL1        0.1686
     16 N          -6.5972  -14.5210   25.0950 N.am    1  UNL1       -0.2806
     17 C          -6.0593  -14.4794   26.4265 C.2     1  UNL1        0.2522
     18 O          -4.9572  -15.0336   26.6887 O.2     1  UNL1       -0.2697
     19 H          -7.5440  -14.1108   24.9312 H       1  UNL1        0.1552
     20 C          -8.0554  -14.9356   22.6067 C.3     1  UNL1        0.0323
     21 C          -6.6298  -15.3878   22.7790 C.ar    1  UNL1       -0.0084
     22 C          -5.9625  -16.0014   21.7052 C.ar    1  UNL1        0.0008
     23 C          -4.6373  -16.4477   21.8407 C.ar    1  UNL1        0.0712
     24 C          -3.9619  -16.2203   23.0495 C.ar    1  UNL1        0.0051
     25 C          -4.6121  -15.6019   24.1184 C.ar    1  UNL1        0.0143
     26 C          -5.9492  -15.1911   24.0008 C.ar    1  UNL1        0.0465
     27 C          -3.9176  -17.0657   20.6680 C.3     1  UNL1        0.4186
     28 F          -2.5459  -16.9786   20.8326 F       1  UNL1       -0.1659
     29 F          -4.2754  -16.3985   19.5114 F       1  UNL1       -0.1659
     30 F          -4.2529  -18.4026   20.5396 F       1  UNL1       -0.1659
     31 C          -8.6222  -15.7368   27.5276 C.3     1  UNL1        0.0241
     32 C          -9.0844  -15.6686   26.0653 C.3     1  UNL1        0.0047
     33 C          -7.6066  -16.8644   27.7391 C.3     1  UNL1        0.0047
     34 N         -11.2534  -12.7199   31.2698 N.pl3   1  UNL1       -0.2816
     35 H         -11.9390  -11.9735   31.0167 H       1  UNL1        0.1551
     36 C         -11.4740  -13.4831   32.4658 C.ar    1  UNL1        0.0889
     37 C         -12.3551  -14.5816   32.4610 C.ar    1  UNL1        0.1543
     38 F         -13.0212  -14.9283   31.3307 F       1  UNL1       -0.2028
     39 C         -12.5806  -15.3077   33.6341 C.ar    1  UNL1        0.0310
     40 C         -11.9431  -14.9396   34.8205 C.ar    1  UNL1        0.0033
     41 C         -11.0834  -13.8393   34.8400 C.ar    1  UNL1        0.0128
     42 C         -10.8509  -13.1049   33.6711 C.ar    1  UNL1        0.0733
     43 CL         -9.7471  -11.7371   33.7337 Cl      1  UNL1       -0.0809
@<TRIPOS>BOND
     1    20    21    1
     2    21    22   ar
     3    22    23   ar
     4    23    27    1
     5    27    28    1
     6    27    29    1
     7    27    30    1
     8    23    24   ar
     9    24    25   ar
    10    25    26   ar
    11    26    16    1
    12    16    17   am
    13    17    18    2
    14    17     1    1
    15     1     2   ar
    16     2     3   ar
    17     3     4   ar
    18     4     5   ar
    19     5     6   ar
    20     6    34    1
    21    34    36    1
    22    36    37   ar
    23    37    38    1
    24    37    39   ar
    25    39    40   ar
    26    40    41   ar
    27    41    42   ar
    28    42    43    1
    29     6     7   ar
    30     7     8   ar
    31     8     9   ar
    32     9    31    1
    33    31    32    1
    34    31    33    1
    35     3    10    1
    36    10    11    1
    37    11    12    1
    38    11    13    1
    39    11    14    1
    40    26    21   ar
    41     9     1   ar
    42    14     2    1
    43     8     4   ar
    44    42    36   ar
    45    16    19    1
    46     5    15    1
    47    34    35    1
@<TRIPOS>MOLECULE
*****
 43 47 0 0 0
SMALL
GASTEIGER

@<TRIPOS>ATOM
      1 C          -8.0982  -16.1961   24.3663 C.ar    1  UNL1        0.0848
      2 C          -9.0883  -17.1006   23.9168 C.ar    1  UNL1        0.1398
      3 C          -8.8575  -18.0080   22.9203 C.ar    1  UNL1        0.0325
      4 C          -7.6143  -18.0350   22.3138 C.ar    1  UNL1        0.0752
      5 N          -7.1878  -18.8039   21.3060 N.ar    1  UNL1       -0.3255
      6 C          -5.9093  -18.3921   21.1183 C.ar    1  UNL1        0.1984
      7 N          -5.5240  -17.3919   21.9526 N.ar    1  UNL1       -0.2140
      8 C          -6.6186  -17.1841   22.7101 C.ar    1  UNL1        0.0957
      9 C          -6.7967  -16.2445   23.7581 C.ar    1  UNL1        0.0040
     10 C         -10.0778  -18.8073   22.6422 C.3     1  UNL1        0.0709
     11 C         -11.0996  -18.2211   23.6733 C.3     1  UNL1        0.1375
     12 C         -12.3154  -17.6060   22.9682 C.3     1  UNL1        0.0439
     13 C         -11.5476  -19.2860   24.6830 C.3     1  UNL1        0.0439
     14 O         -10.3895  -17.1913   24.3671 O.3     1  UNL1       -0.4824
     15 H          -7.7280  -19.5246   20.7778 H       1  UNL1        0.1686
     16 N          -7.7146  -15.1614   26.6342 N.am    1  UNL1       -0.2806
     17 C          -8.4638  -15.2180   25.4097 C.2     1  UNL1        0.2522
     18 O          -9.4761  -14.4841   25.2447 O.2     1  UNL1       -0.2697
     19 H          -6.9241  -15.8325   26.7615 H       1  UNL1        0.1552
     20 C          -5.7204  -13.3239   27.7002 C.3     1  UNL1        0.0323
     21 C          -7.1174  -13.3934   28.2571 C.ar    1  UNL1       -0.0084
     22 C          -7.4914  -12.5302   29.3011 C.ar    1  UNL1        0.0008
     23 C          -8.7829  -12.5822   29.8513 C.ar    1  UNL1        0.0712
     24 C          -9.7212  -13.4710   29.3048 C.ar    1  UNL1        0.0051
     25 C          -9.3632  -14.3248   28.2605 C.ar    1  UNL1        0.0143
     26 C          -8.0617  -14.3046   27.7349 C.ar    1  UNL1        0.0465
     27 C          -9.1858  -11.6215   30.9421 C.3     1  UNL1        0.4186
     28 F         -10.5150  -11.2583   30.8100 F       1  UNL1       -0.1659
     29 F          -8.3993  -10.4875   30.8631 F       1  UNL1       -0.1659
     30 F          -9.0184  -12.2006   32.1882 F       1  UNL1       -0.1659
     31 C          -5.6488  -15.3495   24.2180 C.3     1  UNL1        0.0241
     32 C          -4.7779  -16.0312   25.2827 C.3     1  UNL1        0.0047
     33 C          -4.8073  -14.8798   23.0268 C.3     1  UNL1        0.0047
     34 N          -5.0472  -18.9132   20.0989 N.pl3   1  UNL1       -0.2816
     35 H          -5.4637  -19.5546   19.3873 H       1  UNL1        0.1551
     36 C          -3.6322  -18.6718   20.0664 C.ar    1  UNL1        0.0889
     37 C          -2.7242  -19.6948   20.4014 C.ar    1  UNL1        0.1543
     38 F          -3.1712  -20.9207   20.7743 F       1  UNL1       -0.2028
     39 C          -1.3485  -19.4469   20.3872 C.ar    1  UNL1        0.0310
     40 C          -0.8675  -18.1794   20.0533 C.ar    1  UNL1        0.0033
     41 C          -1.7608  -17.1528   19.7396 C.ar    1  UNL1        0.0128
     42 C          -3.1404  -17.3901   19.7512 C.ar    1  UNL1        0.0733
     43 CL         -4.2311  -16.0756   19.3324 Cl      1  UNL1       -0.0809
@<TRIPOS>BOND
     1    20    21    1
     2    21    22   ar
     3    22    23   ar
     4    23    27    1
     5    27    28    1
     6    27    29    1
     7    27    30    1
     8    23    24   ar
     9    24    25   ar
    10    25    26   ar
    11    26    16    1
    12    16    17   am
    13    17    18    2
    14    17     1    1
    15     1     2   ar
    16     2     3   ar
    17     3     4   ar
    18     4     5   ar
    19     5     6   ar
    20     6    34    1
    21    34    36    1
    22    36    37   ar
    23    37    38    1
    24    37    39   ar
    25    39    40   ar
    26    40    41   ar
    27    41    42   ar
    28    42    43    1
    29     6     7   ar
    30     7     8   ar
    31     8     9   ar
    32     9    31    1
    33    31    32    1
    34    31    33    1
    35     3    10    1
    36    10    11    1
    37    11    12    1
    38    11    13    1
    39    11    14    1
    40    26    21   ar
    41     9     1   ar
    42    14     2    1
    43     8     4   ar
    44    42    36   ar
    45    16    19    1
    46     5    15    1
    47    34    35    1
@<TRIPOS>MOLECULE
*****
 43 47 0 0 0
SMALL
GASTEIGER

@<TRIPOS>ATOM
      1 C          -6.5396  -17.9366   21.8464 C.ar    1  UNL1        0.0848
      2 C          -6.7064  -17.1017   22.9759 C.ar    1  UNL1        0.1398
      3 C          -7.9362  -16.7959   23.4892 C.ar    1  UNL1        0.0325
      4 C          -9.0649  -17.3068   22.8733 C.ar    1  UNL1        0.0752
      5 N         -10.3516  -17.1083   23.1796 N.ar    1  UNL1       -0.3255
      6 C         -11.0113  -17.8325   22.2417 C.ar    1  UNL1        0.1984
      7 N         -10.1956  -18.4613   21.3560 N.ar    1  UNL1       -0.2140
      8 C          -8.9623  -18.1214   21.7787 C.ar    1  UNL1        0.0957
      9 C          -7.7101  -18.4931   21.2248 C.ar    1  UNL1        0.0040
     10 C          -7.8092  -15.8853   24.6553 C.3     1  UNL1        0.0709
     11 C          -6.2582  -15.7027   24.7653 C.3     1  UNL1        0.1375
     12 C          -5.8542  -14.2329   24.5923 C.3     1  UNL1        0.0439
     13 C          -5.7238  -16.2525   26.0943 C.3     1  UNL1        0.0439
     14 O          -5.7091  -16.4695   23.6898 O.3     1  UNL1       -0.4824
     15 H         -10.7435  -16.5122   23.9420 H       1  UNL1        0.1686
     16 N          -4.1544  -18.6701   22.2124 N.am    1  UNL1       -0.2806
     17 C          -5.1727  -18.1611   21.3361 C.2     1  UNL1        0.2522
     18 O          -4.8929  -17.8392   20.1493 O.2     1  UNL1       -0.2697
     19 H          -4.4088  -18.8610   23.2076 H       1  UNL1        0.1552
     20 C          -2.4560  -16.3153   21.9675 C.3     1  UNL1        0.0323
     21 C          -1.9335  -17.7039   21.7122 C.ar    1  UNL1       -0.0084
     22 C          -0.5812  -17.8848   21.3753 C.ar    1  UNL1        0.0008
     23 C          -0.0684  -19.1669   21.1165 C.ar    1  UNL1        0.0712
     24 C          -0.9123  -20.2793   21.2558 C.ar    1  UNL1        0.0051
     25 C          -2.2541  -20.1114   21.6008 C.ar    1  UNL1        0.0143
     26 C          -2.7806  -18.8288   21.8205 C.ar    1  UNL1        0.0465
     27 C           1.3942  -19.3526   20.7980 C.3     1  UNL1        0.4186
     28 F           2.0559  -18.1368   20.8031 F       1  UNL1       -0.1659
     29 F           1.5181  -19.9274   19.5470 F       1  UNL1       -0.1659
     30 F           1.9963  -20.1756   21.7342 F       1  UNL1       -0.1659
     31 C          -7.6255  -19.4514   20.0396 C.3     1  UNL1        0.0241
     32 C          -6.9790  -20.7892   20.4256 C.3     1  UNL1        0.0047
     33 C          -9.0035  -19.6614   19.4035 C.3     1  UNL1        0.0047
     34 N         -12.4397  -17.8936   22.1432 N.pl3   1  UNL1       -0.2816
     35 H         -12.8767  -17.6601   21.2235 H       1  UNL1        0.1551
     36 C         -13.2945  -18.1662   23.2642 C.ar    1  UNL1        0.0889
     37 C         -14.6909  -18.2401   23.0976 C.ar    1  UNL1        0.1543
     38 F         -15.2529  -18.0407   21.8786 F       1  UNL1       -0.2028
     39 C         -15.5185  -18.4858   24.1971 C.ar    1  UNL1        0.0310
     40 C         -14.9658  -18.6464   25.4692 C.ar    1  UNL1        0.0033
     41 C         -13.5838  -18.5545   25.6478 C.ar    1  UNL1        0.0128
     42 C         -12.7460  -18.3083   24.5537 C.ar    1  UNL1        0.0733
     43 CL        -11.0096  -18.2179   24.8180 Cl      1  UNL1       -0.0809
@<TRIPOS>BOND
     1    20    21    1
     2    21    22   ar
     3    22    23   ar
     4    23    27    1
     5    27    28    1
     6    27    29    1
     7    27    30    1
     8    23    24   ar
     9    24    25   ar
    10    25    26   ar
    11    26    16    1
    12    16    17   am
    13    17    18    2
    14    17     1    1
    15     1     2   ar
    16     2     3   ar
    17     3     4   ar
    18     4     5   ar
    19     5     6   ar
    20     6    34    1
    21    34    36    1
    22    36    37   ar
    23    37    38    1
    24    37    39   ar
    25    39    40   ar
    26    40    41   ar
    27    41    42   ar
    28    42    43    1
    29     6     7   ar
    30     7     8   ar
    31     8     9   ar
    32     9    31    1
    33    31    32    1
    34    31    33    1
    35     3    10    1
    36    10    11    1
    37    11    12    1
    38    11    13    1
    39    11    14    1
    40    26    21   ar
    41     9     1   ar
    42    14     2    1
    43     8     4   ar
    44    42    36   ar
    45    16    19    1
    46     5    15    1
    47    34    35    1
@<TRIPOS>MOLECULE
*****
 43 47 0 0 0
SMALL
GASTEIGER

@<TRIPOS>ATOM
      1 C          -7.9572  -15.7716   25.6905 C.ar    1  UNL1        0.0848
      2 C          -8.8877  -16.2221   24.7250 C.ar    1  UNL1        0.1398
      3 C          -8.5133  -16.6137   23.4696 C.ar    1  UNL1        0.0325
      4 C          -7.1761  -16.5528   23.1199 C.ar    1  UNL1        0.0752
      5 N          -6.5998  -16.8464   21.9492 N.ar    1  UNL1       -0.3255
      6 C          -5.2871  -16.5900   22.1741 C.ar    1  UNL1        0.1984
      7 N          -5.0207  -16.1362   23.4264 N.ar    1  UNL1       -0.2140
      8 C          -6.2327  -16.1268   24.0147 C.ar    1  UNL1        0.0957
      9 C          -6.5640  -15.7376   25.3383 C.ar    1  UNL1        0.0040
     10 C          -9.6972  -17.0133   22.6671 C.3     1  UNL1        0.0709
     11 C         -10.8710  -16.8025   23.6814 C.3     1  UNL1        0.1375
     12 C         -11.8759  -15.7641   23.1663 C.3     1  UNL1        0.0439
     13 C         -11.5815  -18.1256   23.9963 C.3     1  UNL1        0.0439
     14 O         -10.2566  -16.3086   24.8749 O.3     1  UNL1       -0.4824
     15 H          -7.0632  -17.1666   21.0701 H       1  UNL1        0.1686
     16 N          -8.4075  -13.9265   27.3499 N.am    1  UNL1       -0.2806
     17 C          -8.4686  -15.3183   26.9989 C.2     1  UNL1        0.2522
     18 O          -8.8940  -16.1687   27.8273 O.2     1  UNL1       -0.2697
     19 H          -7.9856  -13.2616   26.6633 H       1  UNL1        0.1552
     20 C          -6.5520  -12.2516   28.8471 C.3     1  UNL1        0.0323
     21 C          -7.9218  -12.5891   29.3727 C.ar    1  UNL1       -0.0084
     22 C          -8.3404  -12.0618   30.6062 C.ar    1  UNL1        0.0008
     23 C          -9.6068  -12.3713   31.1296 C.ar    1  UNL1        0.0712
     24 C         -10.4790  -13.1711   30.3755 C.ar    1  UNL1        0.0051
     25 C         -10.0770  -13.6909   29.1442 C.ar    1  UNL1        0.0143
     26 C          -8.7972  -13.4174   28.6364 C.ar    1  UNL1        0.0465
     27 C         -10.0615  -11.7647   32.4336 C.3     1  UNL1        0.4186
     28 F         -11.3444  -12.1796   32.7471 F       1  UNL1       -0.1659
     29 F         -10.0483  -10.3868   32.3237 F       1  UNL1       -0.1659
     30 F          -9.2211  -12.1429   33.4665 F       1  UNL1       -0.1659
     31 C          -5.4823  -15.3237   26.3325 C.3     1  UNL1        0.0241
     32 C          -4.3958  -16.3979   26.4819 C.3     1  UNL1        0.0047
     33 C          -4.8772  -13.9681   25.9532 C.3     1  UNL1        0.0047
     34 N          -4.2678  -16.7246   21.1759 N.pl3   1  UNL1       -0.2816
     35 H          -4.3253  -16.1107   20.3326 H       1  UNL1        0.1551
     36 C          -3.2345  -17.7197   21.2359 C.ar    1  UNL1        0.0889
     37 C          -1.9101  -17.3578   21.5490 C.ar    1  UNL1        0.1543
     38 F          -1.5853  -16.0614   21.7847 F       1  UNL1       -0.2028
     39 C          -0.9054  -18.3291   21.5858 C.ar    1  UNL1        0.0310
     40 C          -1.2071  -19.6618   21.2995 C.ar    1  UNL1        0.0033
     41 C          -2.5136  -20.0273   20.9679 C.ar    1  UNL1        0.0128
     42 C          -3.5273  -19.0626   20.9277 C.ar    1  UNL1        0.0733
     43 CL         -5.1630  -19.5668   20.5236 Cl      1  UNL1       -0.0809
@<TRIPOS>BOND
     1    20    21    1
     2    21    22   ar
     3    22    23   ar
     4    23    27    1
     5    27    28    1
     6    27    29    1
     7    27    30    1
     8    23    24   ar
     9    24    25   ar
    10    25    26   ar
    11    26    16    1
    12    16    17   am
    13    17    18    2
    14    17     1    1
    15     1     2   ar
    16     2     3   ar
    17     3     4   ar
    18     4     5   ar
    19     5     6   ar
    20     6    34    1
    21    34    36    1
    22    36    37   ar
    23    37    38    1
    24    37    39   ar
    25    39    40   ar
    26    40    41   ar
    27    41    42   ar
    28    42    43    1
    29     6     7   ar
    30     7     8   ar
    31     8     9   ar
    32     9    31    1
    33    31    32    1
    34    31    33    1
    35     3    10    1
    36    10    11    1
    37    11    12    1
    38    11    13    1
    39    11    14    1
    40    26    21   ar
    41     9     1   ar
    42    14     2    1
    43     8     4   ar
    44    42    36   ar
    45    16    19    1
    46     5    15    1
    47    34    35    1
@<TRIPOS>MOLECULE
*****
 43 47 0 0 0
SMALL
GASTEIGER

@<TRIPOS>ATOM
      1 C          -9.0192  -12.4313   29.9952 C.ar    1  UNL1        0.0848
      2 C          -9.9695  -12.5582   31.0352 C.ar    1  UNL1        0.1398
      3 C          -9.9072  -11.8175   32.1827 C.ar    1  UNL1        0.0325
      4 C          -8.8668  -10.9201   32.3450 C.ar    1  UNL1        0.0752
      5 N          -8.5929  -10.1315   33.3899 N.ar    1  UNL1       -0.3255
      6 C          -7.4620   -9.4878   33.0076 C.ar    1  UNL1        0.1984
      7 N          -7.0101   -9.8497   31.7788 N.ar    1  UNL1       -0.2140
      8 C          -7.9205  -10.7550   31.3704 C.ar    1  UNL1        0.0957
      9 C          -7.9556  -11.4767   30.1494 C.ar    1  UNL1        0.0040
     10 C         -11.0165  -12.1762   33.1025 C.3     1  UNL1        0.0709
     11 C         -11.7801  -13.2736   32.2880 C.3     1  UNL1        0.1375
     12 C         -11.7986  -14.6134   33.0351 C.3     1  UNL1        0.0439
     13 C         -13.2093  -12.8272   31.9528 C.3     1  UNL1        0.0439
     14 O         -11.0424  -13.4250   31.0719 O.3     1  UNL1       -0.4824
     15 H          -9.1148  -10.0590   34.2913 H       1  UNL1        0.1686
     16 N          -7.9894  -14.0132   28.3225 N.am    1  UNL1       -0.2806
     17 C          -9.1430  -13.3165   28.8204 C.2     1  UNL1        0.2522
     18 O         -10.2493  -13.4011   28.2211 O.2     1  UNL1       -0.2697
     19 H          -7.0752  -13.8644   28.8058 H       1  UNL1        0.1552
     20 C          -5.5940  -14.1700   26.6711 C.3     1  UNL1        0.0323
     21 C          -6.8503  -14.9242   26.3252 C.ar    1  UNL1       -0.0084
     22 C          -6.8704  -15.7553   25.1922 C.ar    1  UNL1        0.0008
     23 C          -8.0326  -16.4594   24.8357 C.ar    1  UNL1        0.0712
     24 C          -9.1639  -16.3698   25.6610 C.ar    1  UNL1        0.0051
     25 C          -9.1507  -15.5558   26.7946 C.ar    1  UNL1        0.0143
     26 C          -8.0047  -14.8186   27.1320 C.ar    1  UNL1        0.0465
     27 C          -8.0288  -17.3816   23.6421 C.3     1  UNL1        0.4186
     28 F          -6.7333  -17.6755   23.2529 F       1  UNL1       -0.1659
     29 F          -8.6864  -16.7692   22.5917 F       1  UNL1       -0.1659
     30 F          -8.6693  -18.5713   23.9432 F       1  UNL1       -0.1659
     31 C          -6.9196  -11.2277   29.0564 C.3     1  UNL1        0.0241
     32 C          -6.7642   -9.7336   28.7397 C.3     1  UNL1        0.0047
     33 C          -5.5737  -11.8632   29.4201 C.3     1  UNL1        0.0047
     34 N          -6.7613   -8.5509   33.8353 N.pl3   1  UNL1       -0.2816
     35 H          -7.0368   -8.4855   34.8408 H       1  UNL1        0.1551
     36 C          -5.7730   -7.6403   33.3297 C.ar    1  UNL1        0.0889
     37 C          -4.4437   -7.6992   33.7908 C.ar    1  UNL1        0.1543
     38 F          -4.0778   -8.6072   34.7306 F       1  UNL1       -0.2028
     39 C          -3.4914   -6.7963   33.3091 C.ar    1  UNL1        0.0310
     40 C          -3.8561   -5.8224   32.3776 C.ar    1  UNL1        0.0033
     41 C          -5.1764   -5.7429   31.9297 C.ar    1  UNL1        0.0128
     42 C          -6.1382   -6.6417   32.4059 C.ar    1  UNL1        0.0733
     43 CL         -7.7859   -6.5197   31.8031 Cl      1  UNL1       -0.0809
@<TRIPOS>BOND
     1    20    21    1
     2    21    22   ar
     3    22    23   ar
     4    23    27    1
     5    27    28    1
     6    27    29    1
     7    27    30    1
     8    23    24   ar
     9    24    25   ar
    10    25    26   ar
    11    26    16    1
    12    16    17   am
    13    17    18    2
    14    17     1    1
    15     1     2   ar
    16     2     3   ar
    17     3     4   ar
    18     4     5   ar
    19     5     6   ar
    20     6    34    1
    21    34    36    1
    22    36    37   ar
    23    37    38    1
    24    37    39   ar
    25    39    40   ar
    26    40    41   ar
    27    41    42   ar
    28    42    43    1
    29     6     7   ar
    30     7     8   ar
    31     8     9   ar
    32     9    31    1
    33    31    32    1
    34    31    33    1
    35     3    10    1
    36    10    11    1
    37    11    12    1
    38    11    13    1
    39    11    14    1
    40    26    21   ar
    41     9     1   ar
    42    14     2    1
    43     8     4   ar
    44    42    36   ar
    45    16    19    1
    46     5    15    1
    47    34    35    1
@<TRIPOS>MOLECULE
*****
 43 47 0 0 0
SMALL
GASTEIGER

@<TRIPOS>ATOM
      1 C          -8.8225   -8.4495   32.0891 C.ar    1  UNL1        0.0848
      2 C         -10.0033   -7.8126   31.6407 C.ar    1  UNL1        0.1398
      3 C         -11.1389   -8.5062   31.3264 C.ar    1  UNL1        0.0325
      4 C         -11.1325   -9.8856   31.4332 C.ar    1  UNL1        0.0752
      5 N         -12.1070  -10.7550   31.1446 N.ar    1  UNL1       -0.3255
      6 C         -11.5447  -11.9577   31.4215 C.ar    1  UNL1        0.1984
      7 N         -10.2599  -11.8790   31.8554 N.ar    1  UNL1       -0.2140
      8 C         -10.0185  -10.5536   31.8635 C.ar    1  UNL1        0.0957
      9 C          -8.8248   -9.8800   32.2301 C.ar    1  UNL1        0.0040
     10 C         -12.2083   -7.5851   30.8647 C.3     1  UNL1        0.0709
     11 C         -11.5100   -6.1879   30.9700 C.3     1  UNL1        0.1375
     12 C         -11.4344   -5.4956   29.6031 C.3     1  UNL1        0.0439
     13 C         -12.2173   -5.2853   31.9895 C.3     1  UNL1        0.0439
     14 O         -10.1837   -6.4608   31.4313 O.3     1  UNL1       -0.4824
     15 H         -13.0586  -10.5481   30.7681 H       1  UNL1        0.1686
     16 N          -6.4053   -7.8794   31.6498 N.am    1  UNL1       -0.2806
     17 C          -7.6321   -7.6163   32.3496 C.2     1  UNL1        0.2522
     18 O          -7.6834   -6.7211   33.2363 O.2     1  UNL1       -0.2697
     19 H          -6.3836   -8.6737   30.9715 H       1  UNL1        0.1552
     20 C          -5.2685   -6.1671   29.5845 C.3     1  UNL1        0.0323
     21 C          -4.6182   -6.3275   30.9328 C.ar    1  UNL1       -0.0084
     22 C          -3.4450   -5.6117   31.2263 C.ar    1  UNL1        0.0008
     23 C          -2.8071   -5.7525   32.4700 C.ar    1  UNL1        0.0712
     24 C          -3.3895   -6.5764   33.4452 C.ar    1  UNL1        0.0051
     25 C          -4.5606   -7.2831   33.1677 C.ar    1  UNL1        0.0143
     26 C          -5.1790   -7.1769   31.9120 C.ar    1  UNL1        0.0465
     27 C          -1.5728   -4.9465   32.7890 C.3     1  UNL1        0.4186
     28 F          -0.4433   -5.7464   32.7609 F       1  UNL1       -0.1659
     29 F          -1.7026   -4.3951   34.0499 F       1  UNL1       -0.1659
     30 F          -1.4036   -3.9282   31.8666 F       1  UNL1       -0.1659
     31 C          -7.6182  -10.6479   32.7633 C.3     1  UNL1        0.0241
     32 C          -8.0043  -11.6182   33.8886 C.3     1  UNL1        0.0047
     33 C          -6.8837  -11.3723   31.6304 C.3     1  UNL1        0.0047
     34 N         -12.2107  -13.2114   31.2252 N.pl3   1  UNL1       -0.2816
     35 H         -12.5184  -13.4552   30.2571 H       1  UNL1        0.1551
     36 C         -12.5551  -14.0962   32.3023 C.ar    1  UNL1        0.0889
     37 C         -12.4716  -15.4921   32.1358 C.ar    1  UNL1        0.1543
     38 F         -12.0786  -16.0245   30.9511 F       1  UNL1       -0.2028
     39 C         -12.8278  -16.3479   33.1822 C.ar    1  UNL1        0.0310
     40 C         -13.2810  -15.8234   34.3942 C.ar    1  UNL1        0.0033
     41 C         -13.3866  -14.4410   34.5619 C.ar    1  UNL1        0.0128
     42 C         -13.0330  -13.5750   33.5204 C.ar    1  UNL1        0.0733
     43 CL        -13.1633  -11.8402   33.7782 Cl      1  UNL1       -0.0809
@<TRIPOS>BOND
     1    20    21    1
     2    21    22   ar
     3    22    23   ar
     4    23    27    1
     5    27    28    1
     6    27    29    1
     7    27    30    1
     8    23    24   ar
     9    24    25   ar
    10    25    26   ar
    11    26    16    1
    12    16    17   am
    13    17    18    2
    14    17     1    1
    15     1     2   ar
    16     2     3   ar
    17     3     4   ar
    18     4     5   ar
    19     5     6   ar
    20     6    34    1
    21    34    36    1
    22    36    37   ar
    23    37    38    1
    24    37    39   ar
    25    39    40   ar
    26    40    41   ar
    27    41    42   ar
    28    42    43    1
    29     6     7   ar
    30     7     8   ar
    31     8     9   ar
    32     9    31    1
    33    31    32    1
    34    31    33    1
    35     3    10    1
    36    10    11    1
    37    11    12    1
    38    11    13    1
    39    11    14    1
    40    26    21   ar
    41     9     1   ar
    42    14     2    1
    43     8     4   ar
    44    42    36   ar
    45    16    19    1
    46     5    15    1
    47    34    35    1
