@<TRIPOS>MOLECULE
*****
 45 51 0 0 0
SMALL
GASTEIGER

@<TRIPOS>ATOM
      1 C         -27.6971   48.8804   -9.2363 C.3     1  UNL1        0.0817
      2 C         -26.1577   48.8766   -9.1023 C.3     1  UNL1        0.0252
      3 C         -25.8328   48.4253   -7.6635 C.3     1  UNL1        0.0278
      4 C         -27.1551   48.3732   -6.9922 C.ar    1  UNL1       -0.0248
      5 C         -27.3971   48.0825   -5.6483 C.ar    1  UNL1       -0.0045
      6 C         -28.7281   48.0444   -5.1874 C.ar    1  UNL1       -0.0002
      7 C         -29.7853   48.3053   -6.0877 C.ar    1  UNL1       -0.0003
      8 C         -29.5161   48.5901   -7.4337 C.ar    1  UNL1       -0.0033
      9 C         -28.1864   48.6428   -7.8562 C.ar    1  UNL1       -0.0117
     10 C         -27.8248   51.4312   -9.5509 C.3     1  UNL1        0.1158
     11 N         -28.4967   52.3558  -10.2807 N.3     1  UNL1       -0.2851
     12 C         -29.3190   51.6161  -11.0367 C.3     1  UNL1        0.0910
     13 C         -30.2169   52.0809  -11.9838 C.3     1  UNL1        0.1018
     14 C         -30.9614   51.1264  -12.6890 C.3     1  UNL1        0.3136
     15 N         -30.7978   49.7795  -12.4502 N.am    1  UNL1       -0.1293
     16 C         -29.8936   49.3366  -11.5067 C.2     1  UNL1        0.4047
     17 O         -29.7333   48.1030  -11.3129 O.2     1  UNL1       -0.2174
     18 C         -29.1534   50.2889  -10.7812 C.3     1  UNL1        0.2038
     19 N         -28.2111   50.1412   -9.8161 N.3     1  UNL1       -0.2473
     20 H         -27.8568   52.8985  -10.8607 H       1  UNL1        0.1244
     21 C         -27.3482   52.0962   -7.1904 C.3     1  UNL1        0.0029
     22 C         -26.7590   51.8584   -8.5765 C.3     1  UNL1        0.0326
     23 C         -31.5782   48.8172  -13.2480 C.3     1  UNL1        0.3404
     24 C         -31.0751   48.7798  -14.6762 C.ar    1  UNL1        0.0640
     25 C         -31.3864   49.8571  -15.5256 C.ar    1  UNL1        0.0031
     26 C         -30.9293   49.8795  -16.8449 C.ar    1  UNL1       -0.0001
     27 C         -30.1570   48.8272  -17.3357 C.ar    1  UNL1        0.0007
     28 C         -29.8413   47.7469  -16.5098 C.ar    1  UNL1        0.0102
     29 C         -30.2938   47.7113  -15.1829 C.ar    1  UNL1        0.0710
     30 C         -29.9501   46.5657  -14.3750 C.1     1  UNL1        0.1003
     31 N         -29.6744   45.6464  -13.7282 N.1     1  UNL1       -0.1908
     32 C         -29.0124   47.7624   -3.7627 C.ar    1  UNL1        0.0032
     33 C         -30.0130   48.5128   -3.1255 C.ar    1  UNL1        0.0032
     34 C         -30.3786   48.2386   -1.8083 C.ar    1  UNL1        0.0369
     35 C         -29.7548   47.2124   -1.0972 C.ar    1  UNL1        0.1388
     36 C         -28.7411   46.4614   -1.7202 C.ar    1  UNL1        0.0400
     37 C         -28.3524   46.7307   -3.0457 C.ar    1  UNL1        0.0401
     38 C         -27.2250   45.9619   -3.6287 C.ar    1  UNL1        0.1807
     39 N         -25.9262   46.1484   -3.3234 N.ar    1  UNL1       -0.1083
     40 N         -25.2706   45.2432   -4.0360 N.ar    1  UNL1       -0.0229
     41 N         -26.1247   44.5235   -4.7477 N.ar    1  UNL1       -0.0464
     42 N         -27.3504   44.9512   -4.5059 N.ar    1  UNL1       -0.2388
     43 H         -28.2185   44.5683   -4.9410 H       1  UNL1        0.1923
     44 O         -30.1652   46.9750    0.2233 O.3     1  UNL1       -0.4714
     45 C         -29.9543   47.8744    1.3069 C.3     1  UNL1        0.2525
@<TRIPOS>BOND
     1    21    22    1
     2    22    10    1
     3    10    11    1
     4    11    12    1
     5    12    13    1
     6    13    14    1
     7    14    15    1
     8    15    23    1
     9    23    24    1
    10    24    25   ar
    11    25    26   ar
    12    26    27   ar
    13    27    28   ar
    14    28    29   ar
    15    29    30    1
    16    30    31    3
    17    15    16    1
    18    16    17    2
    19    16    18    1
    20    18    19    1
    21    19     1    1
    22     1     2    1
    23     2     3    1
    24     3     4    1
    25     4     5   ar
    26     5     6   ar
    27     6    32    1
    28    32    33   ar
    29    33    34   ar
    30    34    35   ar
    31    35    44    1
    32    44    45    1
    33    35    36   ar
    34    36    37   ar
    35    37    38    1
    36    38    39   ar
    37    39    40   ar
    38    40    41   ar
    39    41    42   ar
    40     6     7   ar
    41     7     8   ar
    42     8     9   ar
    43    19    10    1
    44     9     1    1
    45    18    12    1
    46     9     4   ar
    47    29    24   ar
    48    37    32   ar
    49    42    38   ar
    50    42    43    1
    51    11    20    1
@<TRIPOS>MOLECULE
*****
 45 51 0 0 0
SMALL
GASTEIGER

@<TRIPOS>ATOM
      1 C         -27.6771   47.8176   -5.2249 C.3     1  UNL1        0.0817
      2 C         -27.8533   46.6211   -6.1866 C.3     1  UNL1        0.0252
      3 C         -26.9652   46.8986   -7.4169 C.3     1  UNL1        0.0278
      4 C         -26.4780   48.2844   -7.2076 C.ar    1  UNL1       -0.0248
      5 C         -25.6880   49.0317   -8.0830 C.ar    1  UNL1       -0.0045
      6 C         -25.2887   50.3287   -7.7037 C.ar    1  UNL1       -0.0002
      7 C         -25.6980   50.8467   -6.4546 C.ar    1  UNL1       -0.0003
      8 C         -26.4875   50.0742   -5.5912 C.ar    1  UNL1       -0.0033
      9 C         -26.8861   48.8014   -6.0039 C.ar    1  UNL1       -0.0117
     10 C         -29.8985   49.0954   -5.4588 C.3     1  UNL1        0.1158
     11 N         -30.9914   49.4222   -4.7256 N.3     1  UNL1       -0.2851
     12 C         -30.7435   48.8632   -3.5336 C.3     1  UNL1        0.0910
     13 C         -31.5674   48.8855   -2.4201 C.3     1  UNL1        0.1018
     14 C         -31.1258   48.2049   -1.2780 C.3     1  UNL1        0.3136
     15 N         -29.9215   47.5360   -1.2707 N.am    1  UNL1       -0.1293
     16 C         -29.1179   47.5207   -2.3924 C.2     1  UNL1        0.4047
     17 O         -28.0306   46.8862   -2.3841 O.2     1  UNL1       -0.2174
     18 C         -29.5455   48.2160   -3.5390 C.3     1  UNL1        0.2038
     19 N         -28.9712   48.3642   -4.7594 N.3     1  UNL1       -0.2473
     20 H         -31.8388   49.0352   -5.1411 H       1  UNL1        0.1244
     21 C         -29.9684   51.0252   -7.0440 C.3     1  UNL1        0.0029
     22 C         -29.7954   49.5169   -6.9009 C.3     1  UNL1        0.0326
     23 C         -29.5235   46.8038   -0.0554 C.3     1  UNL1        0.3404
     24 C         -30.1573   47.4262    1.1714 C.ar    1  UNL1        0.0640
     25 C         -29.8962   48.7806    1.4476 C.ar    1  UNL1        0.0031
     26 C         -30.4725   49.4062    2.5550 C.ar    1  UNL1       -0.0001
     27 C         -31.3159   48.6892    3.4032 C.ar    1  UNL1        0.0007
     28 C         -31.5837   47.3430    3.1487 C.ar    1  UNL1        0.0102
     29 C         -31.0116   46.7021    2.0402 C.ar    1  UNL1        0.0710
     30 C         -31.3108   45.3060    1.8293 C.1     1  UNL1        0.1003
     31 N         -31.5497   44.1862    1.6606 N.1     1  UNL1       -0.1908
     32 C         -24.4710   51.1520   -8.6223 C.ar    1  UNL1        0.0032
     33 C         -23.1035   51.2985   -8.3412 C.ar    1  UNL1        0.0032
     34 C         -22.2685   51.9966   -9.2126 C.ar    1  UNL1        0.0369
     35 C         -22.7774   52.5646  -10.3814 C.ar    1  UNL1        0.1388
     36 C         -24.1488   52.4361  -10.6680 C.ar    1  UNL1        0.0400
     37 C         -25.0083   51.7435   -9.7950 C.ar    1  UNL1        0.0401
     38 C         -26.4591   51.7047  -10.1042 C.ar    1  UNL1        0.1807
     39 N         -27.4081   52.3861   -9.4333 N.ar    1  UNL1       -0.1083
     40 N         -28.5443   52.0940  -10.0504 N.ar    1  UNL1       -0.0229
     41 N         -28.3103   51.2724  -11.0624 N.ar    1  UNL1       -0.0464
     42 N         -27.0155   51.0194  -11.1179 N.ar    1  UNL1       -0.2388
     43 H         -26.5537   50.3931  -11.8136 H       1  UNL1        0.1923
     44 O         -21.8920   53.2512  -11.2260 O.3     1  UNL1       -0.4714
     45 C         -20.4896   53.0120  -11.2892 C.3     1  UNL1        0.2525
@<TRIPOS>BOND
     1    21    22    1
     2    22    10    1
     3    10    11    1
     4    11    12    1
     5    12    13    1
     6    13    14    1
     7    14    15    1
     8    15    23    1
     9    23    24    1
    10    24    25   ar
    11    25    26   ar
    12    26    27   ar
    13    27    28   ar
    14    28    29   ar
    15    29    30    1
    16    30    31    3
    17    15    16    1
    18    16    17    2
    19    16    18    1
    20    18    19    1
    21    19     1    1
    22     1     2    1
    23     2     3    1
    24     3     4    1
    25     4     5   ar
    26     5     6   ar
    27     6    32    1
    28    32    33   ar
    29    33    34   ar
    30    34    35   ar
    31    35    44    1
    32    44    45    1
    33    35    36   ar
    34    36    37   ar
    35    37    38    1
    36    38    39   ar
    37    39    40   ar
    38    40    41   ar
    39    41    42   ar
    40     6     7   ar
    41     7     8   ar
    42     8     9   ar
    43    19    10    1
    44     9     1    1
    45    18    12    1
    46     9     4   ar
    47    29    24   ar
    48    37    32   ar
    49    42    38   ar
    50    42    43    1
    51    11    20    1
@<TRIPOS>MOLECULE
*****
 45 51 0 0 0
SMALL
GASTEIGER

@<TRIPOS>ATOM
      1 C         -30.6718   47.9026   -9.2642 C.3     1  UNL1        0.0817
      2 C         -31.5831   49.1354   -9.0700 C.3     1  UNL1        0.0252
      3 C         -30.6986   50.3837   -9.2670 C.3     1  UNL1        0.0278
      4 C         -29.3222   49.8400   -9.3740 C.ar    1  UNL1       -0.0248
      5 C         -28.1418   50.5759   -9.4927 C.ar    1  UNL1       -0.0045
      6 C         -26.9184   49.8880   -9.6174 C.ar    1  UNL1       -0.0002
      7 C         -26.9096   48.4752   -9.6143 C.ar    1  UNL1       -0.0003
      8 C         -28.1093   47.7592   -9.4986 C.ar    1  UNL1       -0.0033
      9 C         -29.3034   48.4681   -9.3540 C.ar    1  UNL1       -0.0117
     10 C         -31.0862   45.5747   -8.2486 C.3     1  UNL1        0.1158
     11 N         -31.1269   44.9605   -7.0403 N.3     1  UNL1       -0.2851
     12 C         -30.8550   45.9507   -6.1799 C.3     1  UNL1        0.0910
     13 C         -30.7549   45.8475   -4.8020 C.3     1  UNL1        0.1018
     14 C         -30.4276   47.0092   -4.0909 C.3     1  UNL1        0.3136
     15 N         -30.2085   48.2031   -4.7423 N.am    1  UNL1       -0.1293
     16 C         -30.3071   48.2837   -6.1163 C.2     1  UNL1        0.4047
     17 O         -30.0811   49.3734   -6.7048 O.2     1  UNL1       -0.2174
     18 C         -30.6523   47.1255   -6.8378 C.3     1  UNL1        0.2038
     19 N         -30.8127   46.9173   -8.1690 N.3     1  UNL1       -0.2473
     20 H         -30.4247   44.2230   -6.9819 H       1  UNL1        0.1244
     21 C         -30.3182   45.1898  -10.5946 C.3     1  UNL1        0.0029
     22 C         -31.3127   44.7862   -9.5114 C.3     1  UNL1        0.0326
     23 C         -29.8286   49.3854   -3.9490 C.3     1  UNL1        0.3404
     24 C         -28.8227   50.2303   -4.7031 C.ar    1  UNL1        0.0640
     25 C         -27.5112   49.7426   -4.8477 C.ar    1  UNL1        0.0031
     26 C         -26.5523   50.4744   -5.5512 C.ar    1  UNL1       -0.0001
     27 C         -26.8877   51.7033   -6.1188 C.ar    1  UNL1        0.0007
     28 C         -28.1827   52.2065   -5.9823 C.ar    1  UNL1        0.0102
     29 C         -29.1556   51.4822   -5.2782 C.ar    1  UNL1        0.0710
     30 C         -30.4756   52.0530   -5.1556 C.1     1  UNL1        0.1003
     31 N         -31.5344   52.5100   -5.0582 N.1     1  UNL1       -0.1908
     32 C         -25.6496   50.6429   -9.7208 C.ar    1  UNL1        0.0032
     33 C         -24.7772   50.6262   -8.6212 C.ar    1  UNL1        0.0032
     34 C         -23.5338   51.2532   -8.6894 C.ar    1  UNL1        0.0369
     35 C         -23.1333   51.9112   -9.8533 C.ar    1  UNL1        0.1388
     36 C         -24.0039   51.9463  -10.9579 C.ar    1  UNL1        0.0400
     37 C         -25.2667   51.3274  -10.9035 C.ar    1  UNL1        0.0401
     38 C         -26.1776   51.4614  -12.0672 C.ar    1  UNL1        0.1807
     39 N         -25.8062   51.3283  -13.3553 N.ar    1  UNL1       -0.1083
     40 N         -26.9205   51.4914  -14.0546 N.ar    1  UNL1       -0.0229
     41 N         -27.9389   51.7104  -13.2367 N.ar    1  UNL1       -0.0464
     42 N         -27.4997   51.6916  -11.9915 N.ar    1  UNL1       -0.2388
     43 H         -28.0880   51.8460  -11.1432 H       1  UNL1        0.1923
     44 O         -21.8694   52.5202   -9.8700 O.3     1  UNL1       -0.4714
     45 C         -21.4268   53.4309  -10.8713 C.3     1  UNL1        0.2525
@<TRIPOS>BOND
     1    21    22    1
     2    22    10    1
     3    10    11    1
     4    11    12    1
     5    12    13    1
     6    13    14    1
     7    14    15    1
     8    15    23    1
     9    23    24    1
    10    24    25   ar
    11    25    26   ar
    12    26    27   ar
    13    27    28   ar
    14    28    29   ar
    15    29    30    1
    16    30    31    3
    17    15    16    1
    18    16    17    2
    19    16    18    1
    20    18    19    1
    21    19     1    1
    22     1     2    1
    23     2     3    1
    24     3     4    1
    25     4     5   ar
    26     5     6   ar
    27     6    32    1
    28    32    33   ar
    29    33    34   ar
    30    34    35   ar
    31    35    44    1
    32    44    45    1
    33    35    36   ar
    34    36    37   ar
    35    37    38    1
    36    38    39   ar
    37    39    40   ar
    38    40    41   ar
    39    41    42   ar
    40     6     7   ar
    41     7     8   ar
    42     8     9   ar
    43    19    10    1
    44     9     1    1
    45    18    12    1
    46     9     4   ar
    47    29    24   ar
    48    37    32   ar
    49    42    38   ar
    50    42    43    1
    51    11    20    1
@<TRIPOS>MOLECULE
*****
 45 51 0 0 0
SMALL
GASTEIGER

@<TRIPOS>ATOM
      1 C         -27.9523   48.4485   -8.4871 C.3     1  UNL1        0.0817
      2 C         -26.5243   47.9171   -8.2298 C.3     1  UNL1        0.0252
      3 C         -26.4164   47.6321   -6.7177 C.3     1  UNL1        0.0278
      4 C         -27.6790   48.1719   -6.1556 C.ar    1  UNL1       -0.0248
      5 C         -28.0377   48.2210   -4.8073 C.ar    1  UNL1       -0.0045
      6 C         -29.2991   48.7410   -4.4553 C.ar    1  UNL1       -0.0002
      7 C         -30.1689   49.2051   -5.4673 C.ar    1  UNL1       -0.0003
      8 C         -29.7870   49.1405   -6.8147 C.ar    1  UNL1       -0.0033
      9 C         -28.5223   48.6410   -7.1311 C.ar    1  UNL1       -0.0117
     10 C         -27.1139   50.7712   -9.2113 C.3     1  UNL1        0.1158
     11 N         -27.3915   51.7395  -10.1192 N.3     1  UNL1       -0.2851
     12 C         -28.4332   51.2394  -10.7971 C.3     1  UNL1        0.0910
     13 C         -29.0935   51.8344  -11.8597 C.3     1  UNL1        0.1018
     14 C         -30.1435   51.1181  -12.4485 C.3     1  UNL1        0.3136
     15 N         -30.4969   49.8684  -11.9886 N.am    1  UNL1       -0.1293
     16 C         -29.8226   49.2904  -10.9325 C.2     1  UNL1        0.4047
     17 O         -30.1366   48.1379  -10.5352 O.2     1  UNL1       -0.2174
     18 C         -28.7773   50.0099  -10.3237 C.3     1  UNL1        0.2038
     19 N         -27.9569   49.6910   -9.2910 N.3     1  UNL1       -0.2473
     20 H         -26.5962   51.8990  -10.7376 H       1  UNL1        0.1244
     21 C         -24.6755   51.2709   -8.9970 C.3     1  UNL1        0.0029
     22 C         -25.9632   50.9331   -8.2535 C.3     1  UNL1        0.0326
     23 C         -31.5834   49.1424  -12.6697 C.3     1  UNL1        0.3404
     24 C         -31.0173   48.1476  -13.6617 C.ar    1  UNL1        0.0640
     25 C         -30.6104   46.8866  -13.1895 C.ar    1  UNL1        0.0031
     26 C         -30.1006   45.9274  -14.0670 C.ar    1  UNL1       -0.0001
     27 C         -29.9882   46.2133  -15.4274 C.ar    1  UNL1        0.0007
     28 C         -30.3823   47.4607  -15.9147 C.ar    1  UNL1        0.0102
     29 C         -30.8958   48.4334  -15.0447 C.ar    1  UNL1        0.0710
     30 C         -31.2768   49.7110  -15.5976 C.1     1  UNL1        0.1003
     31 N         -31.5825   50.7358  -16.0399 N.1     1  UNL1       -0.1908
     32 C         -29.6956   48.8269   -3.0320 C.ar    1  UNL1        0.0032
     33 C         -30.9442   49.3901   -2.7249 C.ar    1  UNL1        0.0032
     34 C         -31.4047   49.4260   -1.4094 C.ar    1  UNL1        0.0369
     35 C         -30.6314   48.9032   -0.3718 C.ar    1  UNL1        0.1388
     36 C         -29.3724   48.3477   -0.6648 C.ar    1  UNL1        0.0400
     37 C         -28.8873   48.3119   -1.9854 C.ar    1  UNL1        0.0401
     38 C         -27.5209   47.7872   -2.2295 C.ar    1  UNL1        0.1807
     39 N         -27.2010   46.4812   -2.3136 N.ar    1  UNL1       -0.1083
     40 N         -25.9002   46.4601   -2.5679 N.ar    1  UNL1       -0.0229
     41 N         -25.4347   47.6976   -2.6437 N.ar    1  UNL1       -0.0464
     42 N         -26.4291   48.5423   -2.4403 N.ar    1  UNL1       -0.2388
     43 H         -26.3437   49.5826   -2.4345 H       1  UNL1        0.1923
     44 O         -31.1453   48.9596    0.9326 O.3     1  UNL1       -0.4714
     45 C         -31.1690   47.8606    1.8377 C.3     1  UNL1        0.2525
@<TRIPOS>BOND
     1    21    22    1
     2    22    10    1
     3    10    11    1
     4    11    12    1
     5    12    13    1
     6    13    14    1
     7    14    15    1
     8    15    23    1
     9    23    24    1
    10    24    25   ar
    11    25    26   ar
    12    26    27   ar
    13    27    28   ar
    14    28    29   ar
    15    29    30    1
    16    30    31    3
    17    15    16    1
    18    16    17    2
    19    16    18    1
    20    18    19    1
    21    19     1    1
    22     1     2    1
    23     2     3    1
    24     3     4    1
    25     4     5   ar
    26     5     6   ar
    27     6    32    1
    28    32    33   ar
    29    33    34   ar
    30    34    35   ar
    31    35    44    1
    32    44    45    1
    33    35    36   ar
    34    36    37   ar
    35    37    38    1
    36    38    39   ar
    37    39    40   ar
    38    40    41   ar
    39    41    42   ar
    40     6     7   ar
    41     7     8   ar
    42     8     9   ar
    43    19    10    1
    44     9     1    1
    45    18    12    1
    46     9     4   ar
    47    29    24   ar
    48    37    32   ar
    49    42    38   ar
    50    42    43    1
    51    11    20    1
@<TRIPOS>MOLECULE
*****
 45 51 0 0 0
SMALL
GASTEIGER

@<TRIPOS>ATOM
      1 C         -26.1718   50.6825   -6.8303 C.3     1  UNL1        0.0817
      2 C         -26.4950   51.9460   -6.0015 C.3     1  UNL1        0.0252
      3 C         -27.2323   51.4741   -4.7315 C.3     1  UNL1        0.0278
      4 C         -27.4649   50.0271   -4.9634 C.ar    1  UNL1       -0.0248
      5 C         -28.1628   49.1506   -4.1305 C.ar    1  UNL1       -0.0045
      6 C         -28.2571   47.7928   -4.4946 C.ar    1  UNL1       -0.0002
      7 C         -27.6518   47.3483   -5.6914 C.ar    1  UNL1       -0.0003
      8 C         -26.9523   48.2476   -6.5084 C.ar    1  UNL1       -0.0033
      9 C         -26.8950   49.5911   -6.1330 C.ar    1  UNL1       -0.0117
     10 C         -27.8340   50.8515   -8.7876 C.3     1  UNL1        0.1158
     11 N         -27.8405   51.0073  -10.1347 N.3     1  UNL1       -0.2851
     12 C         -26.5395   51.0895  -10.4436 C.3     1  UNL1        0.0910
     13 C         -25.9971   51.2751  -11.7047 C.3     1  UNL1        0.1018
     14 C         -24.6023   51.3656  -11.7993 C.3     1  UNL1        0.3136
     15 N         -23.8069   51.2792  -10.6778 N.am    1  UNL1       -0.1293
     16 C         -24.3673   51.1002   -9.4296 C.2     1  UNL1        0.4047
     17 O         -23.6338   51.0470   -8.4077 O.2     1  UNL1       -0.2174
     18 C         -25.7667   50.9911   -9.3268 C.3     1  UNL1        0.2038
     19 N         -26.5722   50.8190   -8.2485 N.3     1  UNL1       -0.2473
     20 H         -28.3336   51.8595  -10.4012 H       1  UNL1        0.1244
     21 C         -29.9253   49.5237   -8.4634 C.3     1  UNL1        0.0029
     22 C         -29.1296   50.7490   -8.0268 C.3     1  UNL1        0.0326
     23 C         -22.3480   51.4200  -10.8296 C.3     1  UNL1        0.3404
     24 C         -21.9157   52.8376  -10.5168 C.ar    1  UNL1        0.0640
     25 C         -22.8386   53.8801  -10.7172 C.ar    1  UNL1        0.0031
     26 C         -22.4953   55.2018  -10.4249 C.ar    1  UNL1       -0.0001
     27 C         -21.2265   55.5020   -9.9302 C.ar    1  UNL1        0.0007
     28 C         -20.2950   54.4819   -9.7289 C.ar    1  UNL1        0.0102
     29 C         -20.6262   53.1502  -10.0184 C.ar    1  UNL1        0.0710
     30 C         -19.6227   52.1353   -9.8042 C.1     1  UNL1        0.1003
     31 N         -18.8181   51.3210   -9.6336 N.1     1  UNL1       -0.1908
     32 C         -29.0112   46.8464   -3.6425 C.ar    1  UNL1        0.0032
     33 C         -30.4068   46.9819   -3.5762 C.ar    1  UNL1        0.0032
     34 C         -31.1767   46.0719   -2.8530 C.ar    1  UNL1        0.0369
     35 C         -30.5735   45.0087   -2.1796 C.ar    1  UNL1        0.1388
     36 C         -29.1743   44.8694   -2.2274 C.ar    1  UNL1        0.0400
     37 C         -28.3805   45.7841   -2.9442 C.ar    1  UNL1        0.0401
     38 C         -26.9046   45.6374   -2.8974 C.ar    1  UNL1        0.1807
     39 N         -26.1903   44.7889   -3.6620 N.ar    1  UNL1       -0.1083
     40 N         -24.9259   45.0018   -3.3255 N.ar    1  UNL1       -0.0229
     41 N         -24.8582   45.9442   -2.3975 N.ar    1  UNL1       -0.0464
     42 N         -26.0804   46.3587   -2.1182 N.ar    1  UNL1       -0.2388
     43 H         -26.3218   47.0904   -1.4140 H       1  UNL1        0.1923
     44 O         -31.3958   44.1188   -1.4721 O.3     1  UNL1       -0.4714
     45 C         -31.5794   44.1402   -0.0602 C.3     1  UNL1        0.2525
@<TRIPOS>BOND
     1    21    22    1
     2    22    10    1
     3    10    11    1
     4    11    12    1
     5    12    13    1
     6    13    14    1
     7    14    15    1
     8    15    23    1
     9    23    24    1
    10    24    25   ar
    11    25    26   ar
    12    26    27   ar
    13    27    28   ar
    14    28    29   ar
    15    29    30    1
    16    30    31    3
    17    15    16    1
    18    16    17    2
    19    16    18    1
    20    18    19    1
    21    19     1    1
    22     1     2    1
    23     2     3    1
    24     3     4    1
    25     4     5   ar
    26     5     6   ar
    27     6    32    1
    28    32    33   ar
    29    33    34   ar
    30    34    35   ar
    31    35    44    1
    32    44    45    1
    33    35    36   ar
    34    36    37   ar
    35    37    38    1
    36    38    39   ar
    37    39    40   ar
    38    40    41   ar
    39    41    42   ar
    40     6     7   ar
    41     7     8   ar
    42     8     9   ar
    43    19    10    1
    44     9     1    1
    45    18    12    1
    46     9     4   ar
    47    29    24   ar
    48    37    32   ar
    49    42    38   ar
    50    42    43    1
    51    11    20    1
@<TRIPOS>MOLECULE
*****
 45 51 0 0 0
SMALL
GASTEIGER

@<TRIPOS>ATOM
      1 C         -29.8546   50.4761  -11.7429 C.3     1  UNL1        0.0817
      2 C         -30.5985   50.9014  -10.4570 C.3     1  UNL1        0.0252
      3 C         -29.5481   51.5252   -9.5154 C.3     1  UNL1        0.0278
      4 C         -28.2541   51.2696  -10.1951 C.ar    1  UNL1       -0.0248
      5 C         -26.9822   51.5806   -9.7109 C.ar    1  UNL1       -0.0045
      6 C         -25.8585   51.2941  -10.5112 C.ar    1  UNL1       -0.0002
      7 C         -26.0395   50.6959  -11.7784 C.ar    1  UNL1       -0.0003
      8 C         -27.3278   50.3976  -12.2439 C.ar    1  UNL1       -0.0033
      9 C         -28.4203   50.6726  -11.4192 C.ar    1  UNL1       -0.0117
     10 C         -30.4161   47.9964  -11.3455 C.3     1  UNL1        0.1158
     11 N         -30.6862   46.8670  -12.0459 N.3     1  UNL1       -0.2851
     12 C         -30.6162   47.2693  -13.3218 C.3     1  UNL1        0.0910
     13 C         -30.8334   46.4935  -14.4487 C.3     1  UNL1        0.1018
     14 C         -30.7404   47.1267  -15.6948 C.3     1  UNL1        0.3136
     15 N         -30.4503   48.4702  -15.7893 N.am    1  UNL1       -0.1293
     16 C         -30.2432   49.2271  -14.6542 C.2     1  UNL1        0.4047
     17 O         -30.0029   50.4592  -14.7496 O.2     1  UNL1       -0.2174
     18 C         -30.3178   48.5957  -13.3985 C.3     1  UNL1        0.2038
     19 N         -30.1655   49.0855  -12.1423 N.3     1  UNL1       -0.2473
     20 H         -31.6175   46.5144  -11.8249 H       1  UNL1        0.1244
     21 C         -29.0974   47.4743   -9.2887 C.3     1  UNL1        0.0029
     22 C         -30.4267   47.9792   -9.8397 C.3     1  UNL1        0.0326
     23 C         -30.4031   49.0942  -17.1234 C.3     1  UNL1        0.3404
     24 C         -28.9881   49.0866  -17.6636 C.ar    1  UNL1        0.0640
     25 C         -28.1743   50.2098  -17.4290 C.ar    1  UNL1        0.0031
     26 C         -26.8562   50.2435  -17.8890 C.ar    1  UNL1       -0.0001
     27 C         -26.3321   49.1582  -18.5905 C.ar    1  UNL1        0.0007
     28 C         -27.1253   48.0363  -18.8375 C.ar    1  UNL1        0.0102
     29 C         -28.4507   47.9890  -18.3815 C.ar    1  UNL1        0.0710
     30 C         -29.2316   46.8111  -18.6743 C.1     1  UNL1        0.1003
     31 N         -29.8570   45.8662  -18.9097 N.1     1  UNL1       -0.1908
     32 C         -24.4970   51.5913  -10.0129 C.ar    1  UNL1        0.0032
     33 C         -23.6327   52.3227  -10.8427 C.ar    1  UNL1        0.0032
     34 C         -22.3669   52.6998  -10.3961 C.ar    1  UNL1        0.0369
     35 C         -21.9344   52.3556   -9.1146 C.ar    1  UNL1        0.1388
     36 C         -22.7862   51.6114   -8.2779 C.ar    1  UNL1        0.0400
     37 C         -24.0632   51.2136   -8.7156 C.ar    1  UNL1        0.0401
     38 C         -24.8902   50.3635   -7.8239 C.ar    1  UNL1        0.1807
     39 N         -25.5854   50.8109   -6.7602 N.ar    1  UNL1       -0.1083
     40 N         -26.1984   49.7411   -6.2734 N.ar    1  UNL1       -0.0229
     41 N         -25.9012   48.6782   -7.0054 N.ar    1  UNL1       -0.0464
     42 N         -25.0899   49.0436   -7.9812 N.ar    1  UNL1       -0.2388
     43 H         -24.6895   48.4041   -8.7025 H       1  UNL1        0.1923
     44 O         -20.6539   52.7656   -8.7137 O.3     1  UNL1       -0.4714
     45 C         -19.8593   53.7215   -9.4084 C.3     1  UNL1        0.2525
@<TRIPOS>BOND
     1    21    22    1
     2    22    10    1
     3    10    11    1
     4    11    12    1
     5    12    13    1
     6    13    14    1
     7    14    15    1
     8    15    23    1
     9    23    24    1
    10    24    25   ar
    11    25    26   ar
    12    26    27   ar
    13    27    28   ar
    14    28    29   ar
    15    29    30    1
    16    30    31    3
    17    15    16    1
    18    16    17    2
    19    16    18    1
    20    18    19    1
    21    19     1    1
    22     1     2    1
    23     2     3    1
    24     3     4    1
    25     4     5   ar
    26     5     6   ar
    27     6    32    1
    28    32    33   ar
    29    33    34   ar
    30    34    35   ar
    31    35    44    1
    32    44    45    1
    33    35    36   ar
    34    36    37   ar
    35    37    38    1
    36    38    39   ar
    37    39    40   ar
    38    40    41   ar
    39    41    42   ar
    40     6     7   ar
    41     7     8   ar
    42     8     9   ar
    43    19    10    1
    44     9     1    1
    45    18    12    1
    46     9     4   ar
    47    29    24   ar
    48    37    32   ar
    49    42    38   ar
    50    42    43    1
    51    11    20    1
@<TRIPOS>MOLECULE
*****
 45 51 0 0 0
SMALL
GASTEIGER

@<TRIPOS>ATOM
      1 C         -27.7269   47.4320   -7.0178 C.3     1  UNL1        0.0817
      2 C         -27.9727   46.6039   -8.2991 C.3     1  UNL1        0.0252
      3 C         -26.9857   47.1217   -9.3653 C.3     1  UNL1        0.0278
      4 C         -26.3645   48.3135   -8.7365 C.ar    1  UNL1       -0.0248
      5 C         -25.4455   49.1836   -9.3258 C.ar    1  UNL1       -0.0045
      6 C         -24.9316   50.2517   -8.5639 C.ar    1  UNL1       -0.0002
      7 C         -25.3582   50.4236   -7.2279 C.ar    1  UNL1       -0.0003
      8 C         -26.2787   49.5332   -6.6577 C.ar    1  UNL1       -0.0033
      9 C         -26.7872   48.4977   -7.4441 C.ar    1  UNL1       -0.0117
     10 C         -29.8194   48.9287   -6.9550 C.3     1  UNL1        0.1158
     11 N         -30.8991   49.1728   -6.1717 N.3     1  UNL1       -0.2851
     12 C         -30.7347   48.3280   -5.1450 C.3     1  UNL1        0.0910
     13 C         -31.5839   48.1631   -4.0631 C.3     1  UNL1        0.1018
     14 C         -31.2361   47.1945   -3.1126 C.3     1  UNL1        0.3136
     15 N         -30.0962   46.4343   -3.2571 N.am    1  UNL1       -0.1293
     16 C         -29.2663   46.6099   -4.3455 C.2     1  UNL1        0.4047
     17 O         -28.2400   45.8937   -4.4816 O.2     1  UNL1       -0.2174
     18 C         -29.5988   47.5925   -5.2968 C.3     1  UNL1        0.2038
     19 N         -28.9801   47.9706   -6.4437 N.3     1  UNL1       -0.2473
     20 H         -31.7655   48.9748   -6.6723 H       1  UNL1        0.1244
     21 C         -29.3004   51.1333   -8.0095 C.3     1  UNL1        0.0029
     22 C         -29.6395   49.6670   -8.2551 C.3     1  UNL1        0.0326
     23 C         -29.7983   45.4026   -2.2480 C.3     1  UNL1        0.3404
     24 C         -30.2171   45.8709   -0.8698 C.ar    1  UNL1        0.0640
     25 C         -31.1757   45.1178   -0.1678 C.ar    1  UNL1        0.0031
     26 C         -31.5804   45.4965    1.1139 C.ar    1  UNL1       -0.0001
     27 C         -31.0358   46.6322    1.7125 C.ar    1  UNL1        0.0007
     28 C         -30.0867   47.3954    1.0302 C.ar    1  UNL1        0.0102
     29 C         -29.6713   47.0268   -0.2576 C.ar    1  UNL1        0.0710
     30 C         -28.6969   47.8571   -0.9242 C.1     1  UNL1        0.1003
     31 N         -27.9158   48.5222   -1.4597 N.1     1  UNL1       -0.1908
     32 C         -23.9742   51.2032   -9.1708 C.ar    1  UNL1        0.0032
     33 C         -22.7584   51.4333   -8.5079 C.ar    1  UNL1        0.0032
     34 C         -21.7856   52.2581   -9.0711 C.ar    1  UNL1        0.0369
     35 C         -22.0031   52.8722  -10.3054 C.ar    1  UNL1        0.1388
     36 C         -23.2228   52.6601  -10.9737 C.ar    1  UNL1        0.0400
     37 C         -24.2200   51.8387  -10.4156 C.ar    1  UNL1        0.0401
     38 C         -25.5180   51.7114  -11.1234 C.ar    1  UNL1        0.1807
     39 N         -26.7237   51.9439  -10.5690 N.ar    1  UNL1       -0.1083
     40 N         -27.5970   51.7468  -11.5465 N.ar    1  UNL1       -0.0229
     41 N         -26.9615   51.4123  -12.6592 N.ar    1  UNL1       -0.0464
     42 N         -25.6631   51.3884  -12.4200 N.ar    1  UNL1       -0.2388
     43 H         -24.9266   51.1455  -13.1187 H       1  UNL1        0.1923
     44 O         -20.9883   53.6874  -10.8293 O.3     1  UNL1       -0.4714
     45 C         -20.1903   54.5781  -10.0563 C.3     1  UNL1        0.2525
@<TRIPOS>BOND
     1    21    22    1
     2    22    10    1
     3    10    11    1
     4    11    12    1
     5    12    13    1
     6    13    14    1
     7    14    15    1
     8    15    23    1
     9    23    24    1
    10    24    25   ar
    11    25    26   ar
    12    26    27   ar
    13    27    28   ar
    14    28    29   ar
    15    29    30    1
    16    30    31    3
    17    15    16    1
    18    16    17    2
    19    16    18    1
    20    18    19    1
    21    19     1    1
    22     1     2    1
    23     2     3    1
    24     3     4    1
    25     4     5   ar
    26     5     6   ar
    27     6    32    1
    28    32    33   ar
    29    33    34   ar
    30    34    35   ar
    31    35    44    1
    32    44    45    1
    33    35    36   ar
    34    36    37   ar
    35    37    38    1
    36    38    39   ar
    37    39    40   ar
    38    40    41   ar
    39    41    42   ar
    40     6     7   ar
    41     7     8   ar
    42     8     9   ar
    43    19    10    1
    44     9     1    1
    45    18    12    1
    46     9     4   ar
    47    29    24   ar
    48    37    32   ar
    49    42    38   ar
    50    42    43    1
    51    11    20    1
@<TRIPOS>MOLECULE
*****
 45 51 0 0 0
SMALL
GASTEIGER

@<TRIPOS>ATOM
      1 C         -26.4064   51.1000   -6.9304 C.3     1  UNL1        0.0817
      2 C         -27.1660   52.2973   -6.3162 C.3     1  UNL1        0.0252
      3 C         -28.0816   51.7302   -5.2119 C.3     1  UNL1        0.0278
      4 C         -27.9585   50.2588   -5.3586 C.ar    1  UNL1       -0.0248
      5 C         -28.6500   49.2876   -4.6321 C.ar    1  UNL1       -0.0045
      6 C         -28.3811   47.9275   -4.8833 C.ar    1  UNL1       -0.0002
      7 C         -27.4267   47.5749   -5.8636 C.ar    1  UNL1       -0.0003
      8 C         -26.7423   48.5694   -6.5764 C.ar    1  UNL1       -0.0033
      9 C         -27.0460   49.9081   -6.3215 C.ar    1  UNL1       -0.0117
     10 C         -27.5717   51.0536   -9.2244 C.3     1  UNL1        0.1158
     11 N         -27.2663   51.0741  -10.5455 N.3     1  UNL1       -0.2851
     12 C         -25.9283   51.1399  -10.5534 C.3     1  UNL1        0.0910
     13 C         -25.1081   51.2049  -11.6680 C.3     1  UNL1        0.1018
     14 C         -23.7280   51.3014  -11.4477 C.3     1  UNL1        0.3136
     15 N         -23.2130   51.3365  -10.1705 N.am    1  UNL1       -0.1293
     16 C         -24.0475   51.2766   -9.0731 C.2     1  UNL1        0.4047
     17 O         -23.5695   51.3341   -7.9099 O.2     1  UNL1       -0.2174
     18 C         -25.4343   51.1623   -9.2847 C.3     1  UNL1        0.2038
     19 N         -26.4682   51.0896   -8.4089 N.3     1  UNL1       -0.2473
     20 H         -27.6747   51.8897  -11.0019 H       1  UNL1        0.1244
     21 C         -29.5847   49.6075   -8.9114 C.3     1  UNL1        0.0029
     22 C         -29.0086   51.0128   -8.7757 C.3     1  UNL1        0.0326
     23 C         -21.7567   51.4781   -9.9958 C.3     1  UNL1        0.3404
     24 C         -21.3750   52.9394   -9.8813 C.ar    1  UNL1        0.0640
     25 C         -22.0633   53.8767  -10.6729 C.ar    1  UNL1        0.0031
     26 C         -21.7626   55.2377  -10.5894 C.ar    1  UNL1       -0.0001
     27 C         -20.7701   55.6826   -9.7165 C.ar    1  UNL1        0.0007
     28 C         -20.0725   54.7675   -8.9261 C.ar    1  UNL1        0.0102
     29 C         -20.3641   53.3978   -8.9999 C.ar    1  UNL1        0.0710
     30 C         -19.6051   52.4926   -8.1706 C.1     1  UNL1        0.1003
     31 N         -18.9961   51.7663   -7.5065 N.1     1  UNL1       -0.1908
     32 C         -29.1166   46.8768   -4.1447 C.ar    1  UNL1        0.0032
     33 C         -28.9706   46.8219   -2.7497 C.ar    1  UNL1        0.0032
     34 C         -29.6990   45.9048   -1.9932 C.ar    1  UNL1        0.0369
     35 C         -30.5872   45.0223   -2.6097 C.ar    1  UNL1        0.1388
     36 C         -30.7329   45.0583   -4.0086 C.ar    1  UNL1        0.0400
     37 C         -29.9984   45.9706   -4.7890 C.ar    1  UNL1        0.0401
     38 C         -30.1303   45.9140   -6.2659 C.ar    1  UNL1        0.1807
     39 N         -29.5460   44.9930   -7.0567 N.ar    1  UNL1       -0.1083
     40 N         -29.9475   45.2879   -8.2851 N.ar    1  UNL1       -0.0229
     41 N         -30.7495   46.3414   -8.2573 N.ar    1  UNL1       -0.0464
     42 N         -30.8816   46.7462   -7.0073 N.ar    1  UNL1       -0.2388
     43 H         -31.4506   47.5641   -6.6963 H       1  UNL1        0.1923
     44 O         -31.2995   44.1241   -1.8006 O.3     1  UNL1       -0.4714
     45 C         -31.5759   44.3290   -0.4189 C.3     1  UNL1        0.2525
@<TRIPOS>BOND
     1    21    22    1
     2    22    10    1
     3    10    11    1
     4    11    12    1
     5    12    13    1
     6    13    14    1
     7    14    15    1
     8    15    23    1
     9    23    24    1
    10    24    25   ar
    11    25    26   ar
    12    26    27   ar
    13    27    28   ar
    14    28    29   ar
    15    29    30    1
    16    30    31    3
    17    15    16    1
    18    16    17    2
    19    16    18    1
    20    18    19    1
    21    19     1    1
    22     1     2    1
    23     2     3    1
    24     3     4    1
    25     4     5   ar
    26     5     6   ar
    27     6    32    1
    28    32    33   ar
    29    33    34   ar
    30    34    35   ar
    31    35    44    1
    32    44    45    1
    33    35    36   ar
    34    36    37   ar
    35    37    38    1
    36    38    39   ar
    37    39    40   ar
    38    40    41   ar
    39    41    42   ar
    40     6     7   ar
    41     7     8   ar
    42     8     9   ar
    43    19    10    1
    44     9     1    1
    45    18    12    1
    46     9     4   ar
    47    29    24   ar
    48    37    32   ar
    49    42    38   ar
    50    42    43    1
    51    11    20    1
@<TRIPOS>MOLECULE
*****
 45 51 0 0 0
SMALL
GASTEIGER

@<TRIPOS>ATOM
      1 C         -27.5345   51.1950   -9.5339 C.3     1  UNL1        0.0817
      2 C         -27.5036   51.5976   -8.0423 C.3     1  UNL1        0.0252
      3 C         -26.0829   52.1208   -7.7473 C.3     1  UNL1        0.0278
      4 C         -25.3240   51.8302   -8.9888 C.ar    1  UNL1       -0.0248
      5 C         -23.9626   52.0513   -9.2050 C.ar    1  UNL1       -0.0045
      6 C         -23.4133   51.7444  -10.4657 C.ar    1  UNL1       -0.0002
      7 C         -24.2449   51.2166  -11.4787 C.ar    1  UNL1       -0.0003
      8 C         -25.6102   51.0083  -11.2380 C.ar    1  UNL1       -0.0033
      9 C         -26.1213   51.3008   -9.9721 C.ar    1  UNL1       -0.0117
     10 C         -27.9966   48.7340   -8.9404 C.3     1  UNL1        0.1158
     11 N         -28.6559   47.6538   -9.4276 N.3     1  UNL1       -0.2851
     12 C         -29.1990   48.1089  -10.5646 C.3     1  UNL1        0.0910
     13 C         -29.9991   47.3977  -11.4438 C.3     1  UNL1        0.1018
     14 C         -30.4915   48.0806  -12.5635 C.3     1  UNL1        0.3136
     15 N         -30.1935   49.4093  -12.7732 N.am    1  UNL1       -0.1293
     16 C         -29.3994   50.1017  -11.8821 C.2     1  UNL1        0.4047
     17 O         -29.1528   51.3220  -12.0691 O.2     1  UNL1       -0.2174
     18 C         -28.8863   49.4192  -10.7632 C.3     1  UNL1        0.2038
     19 N         -28.0984   49.8427   -9.7429 N.3     1  UNL1       -0.2473
     20 H         -29.3776   47.3426   -8.7773 H       1  UNL1        0.1244
     21 C         -25.8918   48.0039   -7.8098 C.3     1  UNL1        0.0029
     22 C         -27.2614   48.6493   -7.6288 C.3     1  UNL1        0.0326
     23 C         -30.7697   50.0895  -13.9466 C.3     1  UNL1        0.3404
     24 C         -30.5507   49.2658  -15.1987 C.ar    1  UNL1        0.0640
     25 C         -31.5831   48.4132  -15.6301 C.ar    1  UNL1        0.0031
     26 C         -31.4380   47.6482  -16.7893 C.ar    1  UNL1       -0.0001
     27 C         -30.2608   47.7218  -17.5333 C.ar    1  UNL1        0.0007
     28 C         -29.2229   48.5585  -17.1190 C.ar    1  UNL1        0.0102
     29 C         -29.3549   49.3322  -15.9568 C.ar    1  UNL1        0.0710
     30 C         -28.2475   50.1710  -15.5657 C.1     1  UNL1        0.1003
     31 N         -27.3590   50.8436  -15.2532 N.1     1  UNL1       -0.1908
     32 C         -21.9685   51.9464  -10.7149 C.ar    1  UNL1        0.0032
     33 C         -21.1713   50.8144  -10.9460 C.ar    1  UNL1        0.0032
     34 C         -19.8204   50.9479  -11.2638 C.ar    1  UNL1        0.0369
     35 C         -19.2343   52.2111  -11.3570 C.ar    1  UNL1        0.1388
     36 C         -20.0195   53.3532  -11.1148 C.ar    1  UNL1        0.0400
     37 C         -21.3822   53.2370  -10.7831 C.ar    1  UNL1        0.0401
     38 C         -22.1453   54.4680  -10.4605 C.ar    1  UNL1        0.1807
     39 N         -21.6130   55.5892   -9.9366 N.ar    1  UNL1       -0.1083
     40 N         -22.6253   56.4395   -9.8397 N.ar    1  UNL1       -0.0229
     41 N         -23.7352   55.8732  -10.2885 N.ar    1  UNL1       -0.0464
     42 N         -23.4587   54.6445  -10.6853 N.ar    1  UNL1       -0.2388
     43 H         -24.1512   53.9675  -11.0747 H       1  UNL1        0.1923
     44 O         -17.8725   52.2885  -11.6859 O.3     1  UNL1       -0.4714
     45 C         -16.8150   51.8184  -10.8562 C.3     1  UNL1        0.2525
@<TRIPOS>BOND
     1    21    22    1
     2    22    10    1
     3    10    11    1
     4    11    12    1
     5    12    13    1
     6    13    14    1
     7    14    15    1
     8    15    23    1
     9    23    24    1
    10    24    25   ar
    11    25    26   ar
    12    26    27   ar
    13    27    28   ar
    14    28    29   ar
    15    29    30    1
    16    30    31    3
    17    15    16    1
    18    16    17    2
    19    16    18    1
    20    18    19    1
    21    19     1    1
    22     1     2    1
    23     2     3    1
    24     3     4    1
    25     4     5   ar
    26     5     6   ar
    27     6    32    1
    28    32    33   ar
    29    33    34   ar
    30    34    35   ar
    31    35    44    1
    32    44    45    1
    33    35    36   ar
    34    36    37   ar
    35    37    38    1
    36    38    39   ar
    37    39    40   ar
    38    40    41   ar
    39    41    42   ar
    40     6     7   ar
    41     7     8   ar
    42     8     9   ar
    43    19    10    1
    44     9     1    1
    45    18    12    1
    46     9     4   ar
    47    29    24   ar
    48    37    32   ar
    49    42    38   ar
    50    42    43    1
    51    11    20    1
