@<TRIPOS>MOLECULE
*****
 47 51 0 0 0
SMALL
GASTEIGER

@<TRIPOS>ATOM
      1 C         -26.8833   51.4634   -8.1285 C.3     1  UNL1        0.1562
      2 C         -27.2237   52.3030   -6.8908 C.3     1  UNL1        0.0622
      3 C         -28.0882   51.4008   -5.9922 C.3     1  UNL1        0.1294
      4 O         -29.1297   52.1628   -5.4275 O.3     1  UNL1       -0.3808
      5 C         -28.6928   50.3586   -6.9588 C.3     1  UNL1        0.1264
      6 N         -27.8466   50.3708   -8.1425 N.am    1  UNL1       -0.2544
      7 C         -27.8565   49.3319   -9.1394 C.2     1  UNL1        0.3081
      8 O         -26.8996   49.2447   -9.9563 O.2     1  UNL1       -0.2522
      9 N         -28.9471   48.3976   -9.2117 N.am    1  UNL1       -0.2681
     10 H         -29.7053   51.5394   -4.9104 H       1  UNL1        0.2107
     11 H         -29.5166   48.2221   -8.3548 H       1  UNL1        0.1564
     12 C         -27.2032   50.7736   -4.8990 C.ar    1  UNL1        0.0310
     13 C         -26.1721   51.5221   -4.2859 C.ar    1  UNL1        0.0026
     14 C         -25.4007   50.9741   -3.2585 C.ar    1  UNL1        0.0295
     15 C         -25.6597   49.6835   -2.7997 C.ar    1  UNL1        0.1424
     16 F         -24.9123   49.1561   -1.7990 F       1  UNL1       -0.2041
     17 C         -26.7039   48.9447   -3.3554 C.ar    1  UNL1        0.0590
     18 C         -27.4832   49.4839   -4.3843 C.ar    1  UNL1        0.1406
     19 F         -28.5237   48.7479   -4.8503 F       1  UNL1       -0.2044
     20 C         -29.2979   47.6687  -10.4003 C.ar    1  UNL1        0.0516
     21 C         -28.8012   46.3740  -10.6420 C.ar    1  UNL1        0.0156
     22 C         -29.1275   45.7023  -11.8241 C.ar    1  UNL1        0.0127
     23 C         -29.9401   46.3188  -12.7804 C.ar    1  UNL1        0.0578
     24 CL        -30.3453   45.4755  -14.2640 Cl      1  UNL1       -0.0822
     25 C         -30.4199   47.6129  -12.5572 C.ar    1  UNL1        0.0127
     26 C         -30.0941   48.2875  -11.3767 C.ar    1  UNL1        0.0156
     27 N         -25.8501   52.2644  -10.3593 N.am    1  UNL1       -0.2680
     28 C         -26.9200   52.2863   -9.4021 C.2     1  UNL1        0.2454
     29 O         -27.9662   52.9328   -9.6755 O.2     1  UNL1       -0.2730
     30 H         -26.0926   52.2659  -11.3754 H       1  UNL1        0.1563
     31 C         -21.7739   52.2350   -9.2905 C.ar    1  UNL1        0.2466
     32 C         -22.6675   51.3627   -8.6505 C.ar    1  UNL1        0.0736
     33 C         -24.0172   51.3580   -9.0071 C.ar    1  UNL1        0.0406
     34 C         -24.4692   52.2434   -9.9905 C.ar    1  UNL1        0.1346
     35 N         -23.5829   53.0562  -10.6254 N.ar    1  UNL1       -0.2228
     36 C         -22.2628   53.0711  -10.3052 C.ar    1  UNL1        0.1691
     37 C         -18.0680   52.0005   -9.5619 C.2     1  UNL1        0.1450
     38 C         -17.6849   52.3429   -8.2584 C.2     1  UNL1        0.0225
     39 C         -18.6502   52.6261   -7.2962 C.2     1  UNL1        0.1158
     40 C         -20.0027   52.5764   -7.6382 C.2     1  UNL1        0.4230
     41 O         -20.8672   52.8104   -6.7489 O.2     1  UNL1       -0.2135
     42 N         -20.3805   52.2640   -8.9202 N.am    1  UNL1       -0.0840
     43 C         -19.4387   51.9773   -9.8715 C.2     1  UNL1        0.2969
     44 O         -15.9379   51.1947  -10.2355 O.2     1  UNL1       -0.2449
     45 C         -17.0385   51.6979  -10.5858 C.2     1  UNL1        0.3441
     46 O         -17.2577   51.9395  -11.9415 O.3     1  UNL1       -0.4770
     47 H         -18.1527   52.2416  -12.3040 H       1  UNL1        0.2954
@<TRIPOS>BOND
     1    44    45    2
     2    45    46    1
     3    45    37    1
     4    37    38    1
     5    38    39    2
     6    39    40    1
     7    40    41    2
     8    40    42    1
     9    42    31    1
    10    31    32   ar
    11    32    33   ar
    12    33    34   ar
    13    34    27    1
    14    27    28   am
    15    28    29    2
    16    28     1    1
    17     1     2    1
    18     2     3    1
    19     3     4    1
    20     3    12    1
    21    12    13   ar
    22    13    14   ar
    23    14    15   ar
    24    15    16    1
    25    15    17   ar
    26    17    18   ar
    27    18    19    1
    28     3     5    1
    29     5     6    1
    30     6     7   am
    31     7     8    2
    32     7     9   am
    33     9    20    1
    34    20    21   ar
    35    21    22   ar
    36    22    23   ar
    37    23    24    1
    38    23    25   ar
    39    25    26   ar
    40    34    35   ar
    41    35    36   ar
    42    42    43    1
    43    43    37    2
    44    36    31   ar
    45     6     1    1
    46    26    20   ar
    47    18    12   ar
    48    46    47    1
    49    27    30    1
    50     4    10    1
    51     9    11    1
@<TRIPOS>MOLECULE
*****
 47 51 0 0 0
SMALL
GASTEIGER

@<TRIPOS>ATOM
      1 C         -27.7410   50.6778   -7.9077 C.3     1  UNL1        0.1562
      2 C         -29.2386   50.7027   -8.2379 C.3     1  UNL1        0.0622
      3 C         -29.3363   50.5828   -9.7692 C.3     1  UNL1        0.1294
      4 O         -30.3483   51.4410  -10.2422 O.3     1  UNL1       -0.3808
      5 C         -27.9689   51.0840  -10.2838 C.3     1  UNL1        0.1264
      6 N         -27.0556   50.9881   -9.1551 N.am    1  UNL1       -0.2544
      7 C         -25.6224   51.0410   -9.2833 C.2     1  UNL1        0.3081
      8 O         -24.8977   50.6446   -8.3303 O.2     1  UNL1       -0.2522
      9 N         -25.0135   51.5431  -10.4852 N.am    1  UNL1       -0.2681
     10 H         -30.3391   51.3901  -11.2346 H       1  UNL1        0.2107
     11 H         -25.5568   51.5106  -11.3758 H       1  UNL1        0.1564
     12 C         -29.6280   49.1187  -10.1474 C.ar    1  UNL1        0.0310
     13 C         -29.7383   48.1226   -9.1498 C.ar    1  UNL1        0.0026
     14 C         -30.0533   46.8035   -9.4842 C.ar    1  UNL1        0.0295
     15 C         -30.2953   46.4559  -10.8122 C.ar    1  UNL1        0.1424
     16 F         -30.6055   45.1756  -11.1330 F       1  UNL1       -0.2041
     17 C         -30.2411   47.4316  -11.8072 C.ar    1  UNL1        0.0590
     18 C         -29.9272   48.7558  -11.4836 C.ar    1  UNL1        0.1406
     19 F         -29.9450   49.6781  -12.4788 F       1  UNL1       -0.2044
     20 C         -23.6807   52.0795  -10.5423 C.ar    1  UNL1        0.0516
     21 C         -23.4406   53.4632  -10.4456 C.ar    1  UNL1        0.0156
     22 C         -22.1379   53.9617  -10.5425 C.ar    1  UNL1        0.0127
     23 C         -21.0656   53.0884  -10.7490 C.ar    1  UNL1        0.0578
     24 CL        -19.4327   53.7166  -10.8735 Cl      1  UNL1       -0.0822
     25 C         -21.2984   51.7150  -10.8674 C.ar    1  UNL1        0.0127
     26 C         -22.6002   51.2138  -10.7723 C.ar    1  UNL1        0.0156
     27 N         -27.0291   51.2002   -5.4775 N.am    1  UNL1       -0.2680
     28 C         -27.3874   51.6455   -6.7946 C.2     1  UNL1        0.2454
     29 O         -27.3098   52.8741   -7.0621 O.2     1  UNL1       -0.2730
     30 H         -26.2536   51.6928   -4.9804 H       1  UNL1        0.1563
     31 C         -28.9908   48.0209   -3.5272 C.ar    1  UNL1        0.2466
     32 C         -27.5949   47.9959   -3.6678 C.ar    1  UNL1        0.0736
     33 C         -26.9364   49.0509   -4.3022 C.ar    1  UNL1        0.0406
     34 C         -27.6833   50.1176   -4.8116 C.ar    1  UNL1        0.1346
     35 N         -29.0313   50.1426   -4.6345 N.ar    1  UNL1       -0.2228
     36 C         -29.6942   49.1344   -4.0102 C.ar    1  UNL1        0.1691
     37 C         -30.4802   45.8924   -0.8601 C.2     1  UNL1        0.1450
     38 C         -31.0490   44.8668   -1.6268 C.2     1  UNL1        0.0225
     39 C         -30.9183   44.8733   -3.0126 C.2     1  UNL1        0.1158
     40 C         -30.2251   45.9118   -3.6368 C.2     1  UNL1        0.4230
     41 O         -30.0925   45.8909   -4.8918 O.2     1  UNL1       -0.2135
     42 N         -29.6866   46.9301   -2.8905 N.am    1  UNL1       -0.0840
     43 C         -29.8041   46.9288   -1.5265 C.2     1  UNL1        0.2969
     44 O         -30.3886   46.9346    1.2720 O.2     1  UNL1       -0.2449
     45 C         -30.6193   45.8836    0.6164 C.2     1  UNL1        0.3441
     46 O         -31.0179   44.7414    1.3099 O.3     1  UNL1       -0.4770
     47 H         -31.3202   43.8969    0.8418 H       1  UNL1        0.2954
@<TRIPOS>BOND
     1    44    45    2
     2    45    46    1
     3    45    37    1
     4    37    38    1
     5    38    39    2
     6    39    40    1
     7    40    41    2
     8    40    42    1
     9    42    31    1
    10    31    32   ar
    11    32    33   ar
    12    33    34   ar
    13    34    27    1
    14    27    28   am
    15    28    29    2
    16    28     1    1
    17     1     2    1
    18     2     3    1
    19     3     4    1
    20     3    12    1
    21    12    13   ar
    22    13    14   ar
    23    14    15   ar
    24    15    16    1
    25    15    17   ar
    26    17    18   ar
    27    18    19    1
    28     3     5    1
    29     5     6    1
    30     6     7   am
    31     7     8    2
    32     7     9   am
    33     9    20    1
    34    20    21   ar
    35    21    22   ar
    36    22    23   ar
    37    23    24    1
    38    23    25   ar
    39    25    26   ar
    40    34    35   ar
    41    35    36   ar
    42    42    43    1
    43    43    37    2
    44    36    31   ar
    45     6     1    1
    46    26    20   ar
    47    18    12   ar
    48    46    47    1
    49    27    30    1
    50     4    10    1
    51     9    11    1
@<TRIPOS>MOLECULE
*****
 47 51 0 0 0
SMALL
GASTEIGER

@<TRIPOS>ATOM
      1 C         -28.1127   49.8203   -6.6416 C.3     1  UNL1        0.1562
      2 C         -28.4349   49.7380   -5.1442 C.3     1  UNL1        0.0622
      3 C         -28.8011   48.2685   -4.8704 C.3     1  UNL1        0.1294
      4 O         -29.8885   48.2159   -3.9764 O.3     1  UNL1       -0.3808
      5 C         -29.2498   47.7201   -6.2429 C.3     1  UNL1        0.1264
      6 N         -28.6948   48.6254   -7.2378 N.am    1  UNL1       -0.2544
      7 C         -28.5943   48.3053   -8.6380 C.2     1  UNL1        0.3081
      8 O         -27.8343   48.9868   -9.3786 O.2     1  UNL1       -0.2522
      9 N         -29.3534   47.2195   -9.1966 N.am    1  UNL1       -0.2681
     10 H         -30.1416   47.2604   -3.8746 H       1  UNL1        0.2107
     11 H         -29.6659   46.4480   -8.5670 H       1  UNL1        0.1564
     12 C         -27.5739   47.5367   -4.2958 C.ar    1  UNL1        0.0310
     13 C         -26.8613   46.5975   -5.0766 C.ar    1  UNL1        0.0026
     14 C         -25.7177   45.9696   -4.5776 C.ar    1  UNL1        0.0295
     15 C         -25.2430   46.2860   -3.3058 C.ar    1  UNL1        0.1424
     16 F         -24.1299   45.6783   -2.8262 F       1  UNL1       -0.2041
     17 C         -25.9008   47.2458   -2.5371 C.ar    1  UNL1        0.0590
     18 C         -27.0465   47.8814   -3.0271 C.ar    1  UNL1        0.1406
     19 F         -27.6154   48.8495   -2.2651 F       1  UNL1       -0.2044
     20 C         -29.7006   47.1196  -10.5883 C.ar    1  UNL1        0.0516
     21 C         -29.2908   46.0240  -11.3713 C.ar    1  UNL1        0.0156
     22 C         -29.6095   45.9703  -12.7316 C.ar    1  UNL1        0.0127
     23 C         -30.3276   47.0125  -13.3260 C.ar    1  UNL1        0.0578
     24 CL        -30.7234   46.9445  -15.0334 Cl      1  UNL1       -0.0822
     25 C         -30.7197   48.1142  -12.5597 C.ar    1  UNL1        0.0127
     26 C         -30.4011   48.1712  -11.1995 C.ar    1  UNL1        0.0156
     27 N         -28.0667   51.6599   -8.4579 N.am    1  UNL1       -0.2680
     28 C         -28.6398   51.0973   -7.2678 C.2     1  UNL1        0.2454
     29 O         -29.6757   51.6264   -6.7840 O.2     1  UNL1       -0.2730
     30 H         -28.7093   52.0643   -9.1754 H       1  UNL1        0.1563
     31 C         -23.9234   51.8006   -9.2149 C.ar    1  UNL1        0.2466
     32 C         -24.4252   50.9118   -8.2519 C.ar    1  UNL1        0.0736
     33 C         -25.7977   50.8508   -8.0037 C.ar    1  UNL1        0.0406
     34 C         -26.6598   51.6968   -8.7082 C.ar    1  UNL1        0.1346
     35 N         -26.1600   52.5259   -9.6632 N.ar    1  UNL1       -0.2228
     36 C         -24.8302   52.5952   -9.9320 C.ar    1  UNL1        0.1691
     37 C         -20.2911   52.3991   -8.6580 C.2     1  UNL1        0.1450
     38 C         -19.7686   52.0363   -9.9064 C.2     1  UNL1        0.0225
     39 C         -20.6184   51.6194  -10.9270 C.2     1  UNL1        0.1158
     40 C         -21.9940   51.5554  -10.6985 C.2     1  UNL1        0.4230
     41 O         -22.7546   51.2003  -11.6411 O.2     1  UNL1       -0.2135
     42 N         -22.5068   51.8878   -9.4695 N.am    1  UNL1       -0.0840
     43 C         -21.6796   52.3055   -8.4617 C.2     1  UNL1        0.2969
     44 O         -18.4280   52.1062   -7.2145 O.2     1  UNL1       -0.2449
     45 C         -19.3847   52.8442   -7.5718 C.2     1  UNL1        0.3441
     46 O         -19.5483   54.0748   -6.9367 O.3     1  UNL1       -0.4770
     47 H         -20.2264   54.7605   -7.2424 H       1  UNL1        0.2954
@<TRIPOS>BOND
     1    44    45    2
     2    45    46    1
     3    45    37    1
     4    37    38    1
     5    38    39    2
     6    39    40    1
     7    40    41    2
     8    40    42    1
     9    42    31    1
    10    31    32   ar
    11    32    33   ar
    12    33    34   ar
    13    34    27    1
    14    27    28   am
    15    28    29    2
    16    28     1    1
    17     1     2    1
    18     2     3    1
    19     3     4    1
    20     3    12    1
    21    12    13   ar
    22    13    14   ar
    23    14    15   ar
    24    15    16    1
    25    15    17   ar
    26    17    18   ar
    27    18    19    1
    28     3     5    1
    29     5     6    1
    30     6     7   am
    31     7     8    2
    32     7     9   am
    33     9    20    1
    34    20    21   ar
    35    21    22   ar
    36    22    23   ar
    37    23    24    1
    38    23    25   ar
    39    25    26   ar
    40    34    35   ar
    41    35    36   ar
    42    42    43    1
    43    43    37    2
    44    36    31   ar
    45     6     1    1
    46    26    20   ar
    47    18    12   ar
    48    46    47    1
    49    27    30    1
    50     4    10    1
    51     9    11    1
@<TRIPOS>MOLECULE
*****
 47 51 0 0 0
SMALL
GASTEIGER

@<TRIPOS>ATOM
      1 C         -29.3304   49.1141   -7.7244 C.3     1  UNL1        0.1562
      2 C         -29.0509   49.7438   -9.0948 C.3     1  UNL1        0.0622
      3 C         -28.2257   48.7064   -9.8768 C.3     1  UNL1        0.1294
      4 O         -27.2144   49.3645  -10.6037 O.3     1  UNL1       -0.3808
      5 C         -27.5731   47.8297   -8.7853 C.3     1  UNL1        0.1264
      6 N         -28.3634   48.0341   -7.5807 N.am    1  UNL1       -0.2544
      7 C         -28.3034   47.1678   -6.4322 C.2     1  UNL1        0.3081
      8 O         -29.2211   47.2158   -5.5684 O.2     1  UNL1       -0.2522
      9 N         -27.2072   46.2530   -6.2623 N.am    1  UNL1       -0.2681
     10 H         -26.6611   48.6643  -11.0408 H       1  UNL1        0.2107
     11 H         -26.6774   45.9406   -7.1056 H       1  UNL1        0.1564
     12 C         -29.1581   47.9159  -10.8135 C.ar    1  UNL1        0.0310
     13 C         -30.2089   48.5640  -11.5030 C.ar    1  UNL1        0.0026
     14 C         -31.0247   47.8611  -12.3927 C.ar    1  UNL1        0.0295
     15 C         -30.7922   46.5087  -12.6376 C.ar    1  UNL1        0.1424
     16 F         -31.5829   45.8304  -13.5055 F       1  UNL1       -0.2041
     17 C         -29.7307   45.8604  -12.0070 C.ar    1  UNL1        0.0590
     18 C         -28.9070   46.5547  -11.1147 C.ar    1  UNL1        0.1406
     19 F         -27.8528   45.8942  -10.5725 F       1  UNL1       -0.2044
     20 C         -26.7989   45.7220   -4.9900 C.ar    1  UNL1        0.0516
     21 C         -27.4561   44.6218   -4.4076 C.ar    1  UNL1        0.0156
     22 C         -27.0635   44.1493   -3.1517 C.ar    1  UNL1        0.0127
     23 C         -26.0222   44.7758   -2.4601 C.ar    1  UNL1        0.0578
     24 CL        -25.5337   44.1832   -0.8831 Cl      1  UNL1       -0.0822
     25 C         -25.3787   45.8822   -3.0224 C.ar    1  UNL1        0.0127
     26 C         -25.7702   46.3578   -4.2776 C.ar    1  UNL1        0.0156
     27 N         -28.4973   51.3526   -6.7345 N.am    1  UNL1       -0.2680
     28 C         -29.2376   50.1297   -6.6017 C.2     1  UNL1        0.2454
     29 O         -29.9131   49.9393   -5.5555 O.2     1  UNL1       -0.2730
     30 H         -28.9032   52.2255   -6.3288 H       1  UNL1        0.1563
     31 C         -24.7747   51.6242   -8.6909 C.ar    1  UNL1        0.2466
     32 C         -24.9216   50.7662   -7.5903 C.ar    1  UNL1        0.0736
     33 C         -26.1546   50.6617   -6.9441 C.ar    1  UNL1        0.0406
     34 C         -27.2306   51.4343   -7.3920 C.ar    1  UNL1        0.1346
     35 N         -27.0801   52.2330   -8.4821 N.ar    1  UNL1       -0.2228
     36 C         -25.8942   52.3430   -9.1356 C.ar    1  UNL1        0.1691
     37 C         -21.1429   52.2484   -9.2225 C.2     1  UNL1        0.1450
     38 C         -21.0275   51.9875  -10.5943 C.2     1  UNL1        0.0225
     39 C         -22.1498   51.6302  -11.3362 C.2     1  UNL1        0.1158
     40 C         -23.3905   51.5239  -10.7053 C.2     1  UNL1        0.4230
     41 O         -24.4038   51.2242  -11.3956 O.2     1  UNL1       -0.2135
     42 N         -23.5027   51.7562   -9.3572 N.am    1  UNL1       -0.0840
     43 C         -22.4059   52.1148   -8.6206 C.2     1  UNL1        0.2969
     44 O         -18.8429   52.8029   -9.0161 O.2     1  UNL1       -0.2449
     45 C         -19.9465   52.6301   -8.4335 C.2     1  UNL1        0.3441
     46 O         -20.0074   52.8227   -7.0538 O.3     1  UNL1       -0.4770
     47 H         -20.8778   52.8049   -6.5384 H       1  UNL1        0.2954
@<TRIPOS>BOND
     1    44    45    2
     2    45    46    1
     3    45    37    1
     4    37    38    1
     5    38    39    2
     6    39    40    1
     7    40    41    2
     8    40    42    1
     9    42    31    1
    10    31    32   ar
    11    32    33   ar
    12    33    34   ar
    13    34    27    1
    14    27    28   am
    15    28    29    2
    16    28     1    1
    17     1     2    1
    18     2     3    1
    19     3     4    1
    20     3    12    1
    21    12    13   ar
    22    13    14   ar
    23    14    15   ar
    24    15    16    1
    25    15    17   ar
    26    17    18   ar
    27    18    19    1
    28     3     5    1
    29     5     6    1
    30     6     7   am
    31     7     8    2
    32     7     9   am
    33     9    20    1
    34    20    21   ar
    35    21    22   ar
    36    22    23   ar
    37    23    24    1
    38    23    25   ar
    39    25    26   ar
    40    34    35   ar
    41    35    36   ar
    42    42    43    1
    43    43    37    2
    44    36    31   ar
    45     6     1    1
    46    26    20   ar
    47    18    12   ar
    48    46    47    1
    49    27    30    1
    50     4    10    1
    51     9    11    1
@<TRIPOS>MOLECULE
*****
 47 51 0 0 0
SMALL
GASTEIGER

@<TRIPOS>ATOM
      1 C         -29.3144   50.1265   -8.1074 C.3     1  UNL1        0.1562
      2 C         -28.7953   51.5396   -8.4014 C.3     1  UNL1        0.0622
      3 C         -27.5578   51.7306   -7.5066 C.3     1  UNL1        0.1294
      4 O         -27.5571   53.0378   -6.9816 O.3     1  UNL1       -0.3808
      5 C         -27.7569   50.7237   -6.3522 C.3     1  UNL1        0.1264
      6 N         -28.7137   49.7408   -6.8375 N.am    1  UNL1       -0.2544
      7 C         -28.9279   48.4615   -6.2124 C.2     1  UNL1        0.3081
      8 O         -29.5257   47.5510   -6.8481 O.2     1  UNL1       -0.2522
      9 N         -28.4687   48.2161   -4.8721 N.am    1  UNL1       -0.2681
     10 H         -26.7861   53.1056   -6.3583 H       1  UNL1        0.2107
     11 H         -27.6790   48.7871   -4.4985 H       1  UNL1        0.1564
     12 C         -26.2861   51.4632   -8.3330 C.ar    1  UNL1        0.0310
     13 C         -26.2163   51.8395   -9.6942 C.ar    1  UNL1        0.0026
     14 C         -25.0472   51.6455  -10.4336 C.ar    1  UNL1        0.0295
     15 C         -23.9159   51.1029   -9.8263 C.ar    1  UNL1        0.1424
     16 F         -22.7811   50.9203  -10.5454 F       1  UNL1       -0.2041
     17 C         -23.9457   50.7703   -8.4723 C.ar    1  UNL1        0.0590
     18 C         -25.1109   50.9610   -7.7221 C.ar    1  UNL1        0.1406
     19 F         -25.0705   50.6768   -6.3958 F       1  UNL1       -0.2044
     20 C         -29.0249   47.2105   -4.0080 C.ar    1  UNL1        0.0516
     21 C         -29.3751   45.9364   -4.4932 C.ar    1  UNL1        0.0156
     22 C         -29.9498   44.9898   -3.6396 C.ar    1  UNL1        0.0127
     23 C         -30.1920   45.3081   -2.2998 C.ar    1  UNL1        0.0578
     24 CL        -30.9161   44.1200   -1.2318 Cl      1  UNL1       -0.0822
     25 C         -29.8666   46.5786   -1.8156 C.ar    1  UNL1        0.0127
     26 C         -29.2932   47.5277   -2.6673 C.ar    1  UNL1        0.0156
     27 N         -31.5839   49.1889   -8.9168 N.am    1  UNL1       -0.2680
     28 C         -30.8298   50.0724   -8.0731 C.2     1  UNL1        0.2454
     29 O         -31.4407   50.7533   -7.2068 O.2     1  UNL1       -0.2730
     30 H         -32.4183   48.7077   -8.5124 H       1  UNL1        0.1563
     31 C         -30.6059   48.4839  -12.9549 C.ar    1  UNL1        0.2466
     32 C         -30.3889   47.4784  -12.0004 C.ar    1  UNL1        0.0736
     33 C         -30.7211   47.6999  -10.6627 C.ar    1  UNL1        0.0406
     34 C         -31.2510   48.9373  -10.2840 C.ar    1  UNL1        0.1346
     35 N         -31.4882   49.8869  -11.2280 N.ar    1  UNL1       -0.2228
     36 C         -31.1850   49.6915  -12.5377 C.ar    1  UNL1        0.1691
     37 C         -30.2200   46.8229  -16.2646 C.2     1  UNL1        0.1450
     38 C         -29.6163   47.8472  -17.0060 C.2     1  UNL1        0.0225
     39 C         -29.3216   49.0672  -16.4041 C.2     1  UNL1        0.1158
     40 C         -29.6385   49.2695  -15.0598 C.2     1  UNL1        0.4230
     41 O         -29.3419   50.3715  -14.5207 O.2     1  UNL1       -0.2135
     42 N         -30.2510   48.2763  -14.3370 N.am    1  UNL1       -0.0840
     43 C         -30.5386   47.0707  -14.9183 C.2     1  UNL1        0.2969
     44 O         -30.9547   45.4980  -18.0936 O.2     1  UNL1       -0.2449
     45 C         -30.5325   45.5231  -16.9068 C.2     1  UNL1        0.3441
     46 O         -30.3564   44.3122  -16.2380 O.3     1  UNL1       -0.4770
     47 H         -29.9232   44.2510  -15.3257 H       1  UNL1        0.2954
@<TRIPOS>BOND
     1    44    45    2
     2    45    46    1
     3    45    37    1
     4    37    38    1
     5    38    39    2
     6    39    40    1
     7    40    41    2
     8    40    42    1
     9    42    31    1
    10    31    32   ar
    11    32    33   ar
    12    33    34   ar
    13    34    27    1
    14    27    28   am
    15    28    29    2
    16    28     1    1
    17     1     2    1
    18     2     3    1
    19     3     4    1
    20     3    12    1
    21    12    13   ar
    22    13    14   ar
    23    14    15   ar
    24    15    16    1
    25    15    17   ar
    26    17    18   ar
    27    18    19    1
    28     3     5    1
    29     5     6    1
    30     6     7   am
    31     7     8    2
    32     7     9   am
    33     9    20    1
    34    20    21   ar
    35    21    22   ar
    36    22    23   ar
    37    23    24    1
    38    23    25   ar
    39    25    26   ar
    40    34    35   ar
    41    35    36   ar
    42    42    43    1
    43    43    37    2
    44    36    31   ar
    45     6     1    1
    46    26    20   ar
    47    18    12   ar
    48    46    47    1
    49    27    30    1
    50     4    10    1
    51     9    11    1
@<TRIPOS>MOLECULE
*****
 47 51 0 0 0
SMALL
GASTEIGER

@<TRIPOS>ATOM
      1 C         -28.6630   47.7018   -9.1403 C.3     1  UNL1        0.1562
      2 C         -29.0532   46.6064  -10.1405 C.3     1  UNL1        0.0622
      3 C         -30.5255   46.8695  -10.5032 C.3     1  UNL1        0.1294
      4 O         -31.2139   45.6432  -10.5845 O.3     1  UNL1       -0.3808
      5 C         -31.0783   47.6799   -9.3101 C.3     1  UNL1        0.1264
      6 N         -29.9182   48.2400   -8.6335 N.am    1  UNL1       -0.2544
      7 C         -29.9949   49.3160   -7.6798 C.2     1  UNL1        0.3081
      8 O         -28.9495   49.9520   -7.3745 O.2     1  UNL1       -0.2522
      9 N         -31.2501   49.6680   -7.0732 N.am    1  UNL1       -0.2681
     10 H         -32.1708   45.8519  -10.7523 H       1  UNL1        0.2107
     11 H         -32.1348   49.4285   -7.5726 H       1  UNL1        0.1564
     12 C         -30.5920   47.6332  -11.8389 C.ar    1  UNL1        0.0310
     13 C         -30.9531   48.9999  -11.8729 C.ar    1  UNL1        0.0026
     14 C         -30.9649   49.7096  -13.0759 C.ar    1  UNL1        0.0295
     15 C         -30.5883   49.0832  -14.2628 C.ar    1  UNL1        0.1424
     16 F         -30.5962   49.7761  -15.4282 F       1  UNL1       -0.2041
     17 C         -30.1806   47.7496  -14.2460 C.ar    1  UNL1        0.0590
     18 C         -30.1642   47.0296  -13.0468 C.ar    1  UNL1        0.1406
     19 F         -29.7036   45.7534  -13.0742 F       1  UNL1       -0.2044
     20 C         -31.3655   50.3516   -5.8136 C.ar    1  UNL1        0.0516
     21 C         -31.5100   51.7502   -5.7469 C.ar    1  UNL1        0.0156
     22 C         -31.5815   52.3939   -4.5078 C.ar    1  UNL1        0.0127
     23 C         -31.4973   51.6522   -3.3255 C.ar    1  UNL1        0.0578
     24 CL        -31.5840   52.4623   -1.7722 Cl      1  UNL1       -0.0822
     25 C         -31.3323   50.2651   -3.3834 C.ar    1  UNL1        0.0127
     26 C         -31.2590   49.6189   -4.6212 C.ar    1  UNL1        0.0156
     27 N         -26.8061   47.9985   -7.3657 N.am    1  UNL1       -0.2680
     28 C         -27.7703   47.1714   -8.0347 C.2     1  UNL1        0.2454
     29 O         -27.9499   45.9941   -7.6236 O.2     1  UNL1       -0.2730
     30 H         -26.6885   47.8887   -6.3335 H       1  UNL1        0.1563
     31 C         -24.3959   50.8408   -9.3333 C.ar    1  UNL1        0.2466
     32 C         -25.4248   50.1950  -10.0358 C.ar    1  UNL1        0.0736
     33 C         -26.2352   49.2608   -9.3881 C.ar    1  UNL1        0.0406
     34 C         -25.9969   48.9629   -8.0428 C.ar    1  UNL1        0.1346
     35 N         -25.0190   49.6245   -7.3682 N.ar    1  UNL1       -0.2228
     36 C         -24.2250   50.5464   -7.9725 C.ar    1  UNL1        0.1691
     37 C         -21.4269   52.2832  -11.0556 C.2     1  UNL1        0.1450
     38 C         -21.8713   53.5893  -11.3001 C.2     1  UNL1        0.0225
     39 C         -23.1352   53.9900  -10.8762 C.2     1  UNL1        0.1158
     40 C         -23.9626   53.0814  -10.2140 C.2     1  UNL1        0.4230
     41 O         -25.0957   53.4663   -9.8127 O.2     1  UNL1       -0.2135
     42 N         -23.5393   51.7945   -9.9936 N.am    1  UNL1       -0.0840
     43 C         -22.2953   51.3932  -10.4006 C.2     1  UNL1        0.2969
     44 O         -19.2145   52.7270  -11.7962 O.2     1  UNL1       -0.2449
     45 C         -20.0796   51.8580  -11.5068 C.2     1  UNL1        0.3441
     46 O         -19.7292   50.5120  -11.6063 O.3     1  UNL1       -0.4770
     47 H         -20.3352   49.7659  -11.2907 H       1  UNL1        0.2954
@<TRIPOS>BOND
     1    44    45    2
     2    45    46    1
     3    45    37    1
     4    37    38    1
     5    38    39    2
     6    39    40    1
     7    40    41    2
     8    40    42    1
     9    42    31    1
    10    31    32   ar
    11    32    33   ar
    12    33    34   ar
    13    34    27    1
    14    27    28   am
    15    28    29    2
    16    28     1    1
    17     1     2    1
    18     2     3    1
    19     3     4    1
    20     3    12    1
    21    12    13   ar
    22    13    14   ar
    23    14    15   ar
    24    15    16    1
    25    15    17   ar
    26    17    18   ar
    27    18    19    1
    28     3     5    1
    29     5     6    1
    30     6     7   am
    31     7     8    2
    32     7     9   am
    33     9    20    1
    34    20    21   ar
    35    21    22   ar
    36    22    23   ar
    37    23    24    1
    38    23    25   ar
    39    25    26   ar
    40    34    35   ar
    41    35    36   ar
    42    42    43    1
    43    43    37    2
    44    36    31   ar
    45     6     1    1
    46    26    20   ar
    47    18    12   ar
    48    46    47    1
    49    27    30    1
    50     4    10    1
    51     9    11    1
@<TRIPOS>MOLECULE
*****
 47 51 0 0 0
SMALL
GASTEIGER

@<TRIPOS>ATOM
      1 C         -27.7646   47.9806   -3.2492 C.3     1  UNL1        0.1562
      2 C         -27.0084   46.9654   -4.1154 C.3     1  UNL1        0.0622
      3 C         -27.6057   45.5890   -3.7731 C.3     1  UNL1        0.1294
      4 O         -26.5725   44.6339   -3.7065 O.3     1  UNL1       -0.3808
      5 C         -28.2150   45.7717   -2.3655 C.3     1  UNL1        0.1264
      6 N         -28.3924   47.2050   -2.1879 N.am    1  UNL1       -0.2544
      7 C         -29.2241   47.7840   -1.1651 C.2     1  UNL1        0.3081
      8 O         -29.5777   48.9908   -1.2603 O.2     1  UNL1       -0.2522
      9 N         -29.6512   46.9994   -0.0383 N.am    1  UNL1       -0.2681
     10 H         -26.9816   43.7753   -3.4184 H       1  UNL1        0.2107
     11 H         -29.6920   45.9610   -0.1350 H       1  UNL1        0.1564
     12 C         -28.6476   45.2065   -4.8408 C.ar    1  UNL1        0.0310
     13 C         -29.7889   44.4458   -4.4971 C.ar    1  UNL1        0.0026
     14 C         -30.7620   44.1403   -5.4515 C.ar    1  UNL1        0.0295
     15 C         -30.6350   44.6111   -6.7574 C.ar    1  UNL1        0.1424
     16 F         -31.5837   44.3169   -7.6803 F       1  UNL1       -0.2041
     17 C         -29.5430   45.4049   -7.1070 C.ar    1  UNL1        0.0590
     18 C         -28.5629   45.7176   -6.1592 C.ar    1  UNL1        0.1406
     19 F         -27.5516   46.5413   -6.5338 F       1  UNL1       -0.2044
     20 C         -30.0457   47.5626    1.2244 C.ar    1  UNL1        0.0516
     21 C         -29.2625   48.5369    1.8715 C.ar    1  UNL1        0.0156
     22 C         -29.6495   49.0401    3.1173 C.ar    1  UNL1        0.0127
     23 C         -30.8122   48.5685    3.7344 C.ar    1  UNL1        0.0578
     24 CL        -31.2940   49.1989    5.2987 Cl      1  UNL1       -0.0822
     25 C         -31.5840   47.5854    3.1078 C.ar    1  UNL1        0.0127
     26 C         -31.1986   47.0794    1.8627 C.ar    1  UNL1        0.0156
     27 N         -26.7321   50.3492   -3.3428 N.am    1  UNL1       -0.2680
     28 C         -26.8493   49.0645   -2.7126 C.2     1  UNL1        0.2454
     29 O         -26.2483   48.8653   -1.6235 O.2     1  UNL1       -0.2730
     30 H         -26.6666   51.1964   -2.7351 H       1  UNL1        0.1563
     31 C         -26.6266   50.8335   -7.5277 C.ar    1  UNL1        0.2466
     32 C         -27.0560   51.8938   -6.7150 C.ar    1  UNL1        0.0736
     33 C         -27.0826   51.7453   -5.3271 C.ar    1  UNL1        0.0406
     34 C         -26.6978   50.5261   -4.7608 C.ar    1  UNL1        0.1346
     35 N         -26.2503   49.5219   -5.5612 N.ar    1  UNL1       -0.2228
     36 C         -26.2033   49.6457   -6.9132 C.ar    1  UNL1        0.1691
     37 C         -27.8386   51.2127  -11.0276 C.2     1  UNL1        0.1450
     38 C         -26.6242   51.2576  -11.7249 C.2     1  UNL1        0.0225
     39 C         -25.4183   51.1404  -11.0396 C.2     1  UNL1        0.1158
     40 C         -25.4236   50.9869   -9.6521 C.2     1  UNL1        0.4230
     41 O         -24.3236   50.8560   -9.0472 O.2     1  UNL1       -0.2135
     42 N         -26.6108   50.9658   -8.9635 N.am    1  UNL1       -0.0840
     43 C         -27.8020   51.0735   -9.6295 C.2     1  UNL1        0.2969
     44 O         -30.1431   51.7712  -11.1613 O.2     1  UNL1       -0.2449
     45 C         -29.1228   51.3365  -11.7592 C.2     1  UNL1        0.3441
     46 O         -29.2355   50.9994  -13.1075 O.3     1  UNL1       -0.4770
     47 H         -28.4371   50.7457  -13.6749 H       1  UNL1        0.2954
@<TRIPOS>BOND
     1    44    45    2
     2    45    46    1
     3    45    37    1
     4    37    38    1
     5    38    39    2
     6    39    40    1
     7    40    41    2
     8    40    42    1
     9    42    31    1
    10    31    32   ar
    11    32    33   ar
    12    33    34   ar
    13    34    27    1
    14    27    28   am
    15    28    29    2
    16    28     1    1
    17     1     2    1
    18     2     3    1
    19     3     4    1
    20     3    12    1
    21    12    13   ar
    22    13    14   ar
    23    14    15   ar
    24    15    16    1
    25    15    17   ar
    26    17    18   ar
    27    18    19    1
    28     3     5    1
    29     5     6    1
    30     6     7   am
    31     7     8    2
    32     7     9   am
    33     9    20    1
    34    20    21   ar
    35    21    22   ar
    36    22    23   ar
    37    23    24    1
    38    23    25   ar
    39    25    26   ar
    40    34    35   ar
    41    35    36   ar
    42    42    43    1
    43    43    37    2
    44    36    31   ar
    45     6     1    1
    46    26    20   ar
    47    18    12   ar
    48    46    47    1
    49    27    30    1
    50     4    10    1
    51     9    11    1
