@<TRIPOS>MOLECULE
*****
 50 55 0 0 0
SMALL
GASTEIGER

@<TRIPOS>ATOM
      1 C         -63.6360  -40.1131  -19.3977 C.3     1  UNL1        0.1535
      2 N         -62.6839  -40.2479  -20.5089 N.am    1  UNL1       -0.2945
      3 C         -62.0927  -41.5122  -20.8408 C.2     1  UNL1        0.2483
      4 O         -61.7270  -42.2751  -19.9048 O.2     1  UNL1       -0.2701
      5 H         -62.4238  -39.4084  -21.0729 H       1  UNL1        0.1501
      6 C         -61.9388  -41.9626  -22.2532 C.ar    1  UNL1        0.0808
      7 C         -63.0276  -41.8306  -23.1356 C.ar    1  UNL1        0.0080
      8 C         -62.8991  -42.1513  -24.4882 C.ar    1  UNL1        0.0148
      9 C         -61.6773  -42.6152  -24.9994 C.ar    1  UNL1        0.0502
     10 C         -60.5923  -42.7657  -24.1220 C.ar    1  UNL1        0.0443
     11 C         -60.7137  -42.4436  -22.7672 C.ar    1  UNL1        0.1457
     12 F         -59.6082  -42.5580  -21.9915 F       1  UNL1       -0.2040
     13 N         -61.5287  -42.9039  -26.4072 N.pl3   1  UNL1       -0.3040
     14 C         -61.1250  -44.2464  -26.8488 C.3     1  UNL1        0.1122
     15 C         -60.3594  -44.1762  -28.1738 C.3     1  UNL1        0.1122
     16 N         -61.0957  -43.3991  -29.1832 N.pl3   1  UNL1       -0.3040
     17 C         -62.1842  -42.5022  -28.7683 C.3     1  UNL1        0.1122
     18 C         -61.8860  -41.8797  -27.4012 C.3     1  UNL1        0.1122
     19 C         -60.8007  -43.5847  -30.5860 C.ar    1  UNL1        0.0488
     20 C         -59.5701  -44.1321  -30.9913 C.ar    1  UNL1        0.0154
     21 C         -59.2860  -44.3133  -32.3471 C.ar    1  UNL1        0.0135
     22 C         -60.2238  -43.9544  -33.3196 C.ar    1  UNL1        0.0683
     23 CL        -59.8286  -44.1982  -35.0157 Cl      1  UNL1       -0.0814
     24 C         -61.4578  -43.4100  -32.9296 C.ar    1  UNL1        0.0694
     25 CL        -62.6683  -42.9519  -34.1202 Cl      1  UNL1       -0.0813
     26 C         -61.7412  -43.2283  -31.5707 C.ar    1  UNL1        0.0268
     27 C         -63.7307  -38.6715  -18.9646 C.2     1  UNL1        0.2443
     28 O         -63.0148  -38.2598  -18.0106 O.2     1  UNL1       -0.2730
     29 N         -64.5685  -37.7564  -19.6896 N.am    1  UNL1       -0.2825
     30 H         -64.8806  -38.0341  -20.6478 H       1  UNL1        0.1549
     31 C         -64.9091  -36.4384  -19.2267 C.ar    1  UNL1        0.0535
     32 C         -66.1555  -35.8911  -19.5612 C.ar    1  UNL1        0.0353
     33 C         -66.5007  -34.6203  -19.0951 C.ar    1  UNL1        0.1002
     34 N         -65.6382  -33.9253  -18.3075 N.ar    1  UNL1       -0.2422
     35 C         -64.4308  -34.4371  -17.9499 C.ar    1  UNL1        0.1002
     36 C         -64.0459  -35.7043  -18.3953 C.ar    1  UNL1        0.0353
     37 C         -65.0325  -40.6300  -19.8077 C.3     1  UNL1        0.0569
     38 N         -65.3275  -43.3175  -21.6911 N.pl3   1  UNL1       -0.3570
     39 C         -65.3136  -43.9040  -20.3879 C.ar    1  UNL1        0.0426
     40 C         -65.2168  -45.3053  -20.2601 C.ar    1  UNL1        0.0142
     41 C         -65.3504  -45.9256  -19.0031 C.ar    1  UNL1        0.0027
     42 C         -65.6010  -45.1580  -17.8568 C.ar    1  UNL1        0.0170
     43 C         -65.6749  -43.7737  -17.9966 C.ar    1  UNL1        0.0575
     44 N         -65.8496  -42.8840  -17.0072 N.ar    1  UNL1       -0.3522
     45 C         -65.7479  -41.6660  -17.5761 C.ar    1  UNL1        0.0682
     46 C         -65.4947  -41.7779  -18.9415 C.ar    1  UNL1       -0.0005
     47 C         -65.4955  -43.1483  -19.2121 C.ar    1  UNL1        0.0260
     48 H         -64.9613  -43.8522  -22.5101 H       1  UNL1        0.1424
     49 H         -65.9272  -42.4887  -21.8922 H       1  UNL1        0.1424
     50 H         -65.9816  -43.0883  -15.9917 H       1  UNL1        0.1660
@<TRIPOS>BOND
     1    38    39    1
     2    39    40   ar
     3    40    41   ar
     4    41    42   ar
     5    42    43   ar
     6    43    44   ar
     7    44    45   ar
     8    45    46   ar
     9    46    37    1
    10    37     1    1
    11     1     2    1
    12     2     3   am
    13     3     4    2
    14     3     6    1
    15     6     7   ar
    16     7     8   ar
    17     8     9   ar
    18     9    13    1
    19    13    14    1
    20    14    15    1
    21    15    16    1
    22    16    19    1
    23    19    20   ar
    24    20    21   ar
    25    21    22   ar
    26    22    23    1
    27    22    24   ar
    28    24    25    1
    29    24    26   ar
    30    16    17    1
    31    17    18    1
    32     9    10   ar
    33    10    11   ar
    34    11    12    1
    35     1    27    1
    36    27    28    2
    37    27    29   am
    38    29    31    1
    39    31    32   ar
    40    32    33   ar
    41    33    34   ar
    42    34    35   ar
    43    35    36   ar
    44    46    47   ar
    45    47    39   ar
    46    47    43   ar
    47    11     6   ar
    48    36    31   ar
    49    18    13    1
    50    26    19   ar
    51    38    48    1
    52    38    49    1
    53    44    50    1
    54     2     5    1
    55    29    30    1
@<TRIPOS>MOLECULE
*****
 50 55 0 0 0
SMALL
GASTEIGER

@<TRIPOS>ATOM
      1 C         -64.1149  -42.0793  -19.2506 C.3     1  UNL1        0.1535
      2 N         -62.9194  -42.2771  -20.0818 N.am    1  UNL1       -0.2945
      3 C         -62.6363  -43.5404  -20.6999 C.2     1  UNL1        0.2483
      4 O         -62.8480  -44.5973  -20.0443 O.2     1  UNL1       -0.2701
      5 H         -62.2536  -41.4860  -20.2283 H       1  UNL1        0.1501
      6 C         -62.1414  -43.6371  -22.1024 C.ar    1  UNL1        0.0808
      7 C         -62.6650  -44.6357  -22.9451 C.ar    1  UNL1        0.0080
      8 C         -62.3005  -44.7037  -24.2911 C.ar    1  UNL1        0.0148
      9 C         -61.3998  -43.7753  -24.8351 C.ar    1  UNL1        0.0502
     10 C         -60.8604  -42.7874  -23.9966 C.ar    1  UNL1        0.0443
     11 C         -61.2235  -42.7121  -22.6488 C.ar    1  UNL1        0.1457
     12 F         -60.7083  -41.6965  -21.9139 F       1  UNL1       -0.2040
     13 N         -61.0565  -43.8153  -26.2379 N.pl3   1  UNL1       -0.3040
     14 C         -60.4613  -42.6391  -26.8880 C.3     1  UNL1        0.1122
     15 C         -60.8267  -42.5960  -28.3749 C.3     1  UNL1        0.1122
     16 N         -60.5321  -43.8743  -29.0415 N.pl3   1  UNL1       -0.3040
     17 C         -60.3249  -45.0891  -28.2399 C.3     1  UNL1        0.1122
     18 C         -61.2062  -45.0724  -26.9875 C.3     1  UNL1        0.1122
     19 C         -60.3649  -43.9124  -30.4767 C.ar    1  UNL1        0.0488
     20 C         -59.1784  -44.4095  -31.0453 C.ar    1  UNL1        0.0154
     21 C         -59.0179  -44.4481  -32.4326 C.ar    1  UNL1        0.0135
     22 C         -60.0374  -43.9946  -33.2746 C.ar    1  UNL1        0.0683
     23 CL        -59.7971  -44.0598  -35.0154 Cl      1  UNL1       -0.0814
     24 C         -61.2287  -43.4989  -32.7212 C.ar    1  UNL1        0.0694
     25 CL        -62.5388  -42.9253  -33.7445 Cl      1  UNL1       -0.0813
     26 C         -61.3883  -43.4601  -31.3309 C.ar    1  UNL1        0.0268
     27 C         -64.2746  -40.6195  -18.9064 C.2     1  UNL1        0.2443
     28 O         -64.7719  -40.2931  -17.7937 O.2     1  UNL1       -0.2730
     29 N         -63.7857  -39.6111  -19.8058 N.am    1  UNL1       -0.2825
     30 H         -63.0996  -39.9014  -20.5390 H       1  UNL1        0.1549
     31 C         -64.0928  -38.2113  -19.6883 C.ar    1  UNL1        0.0535
     32 C         -63.0526  -37.2723  -19.7222 C.ar    1  UNL1        0.0353
     33 C         -63.3473  -35.9098  -19.6314 C.ar    1  UNL1        0.1002
     34 N         -64.6379  -35.4967  -19.5272 N.ar    1  UNL1       -0.2422
     35 C         -65.6694  -36.3818  -19.5113 C.ar    1  UNL1        0.1002
     36 C         -65.4187  -37.7535  -19.5988 C.ar    1  UNL1        0.0353
     37 C         -65.3784  -42.5873  -19.9792 C.3     1  UNL1        0.0569
     38 N         -63.6304  -41.4361  -22.5241 N.pl3   1  UNL1       -0.3570
     39 C         -64.9213  -40.8999  -22.8215 C.ar    1  UNL1        0.0426
     40 C         -65.1450  -40.2859  -24.0715 C.ar    1  UNL1        0.0142
     41 C         -66.3547  -39.6170  -24.3400 C.ar    1  UNL1        0.0027
     42 C         -67.3525  -39.5351  -23.3584 C.ar    1  UNL1        0.0170
     43 C         -67.1242  -40.1630  -22.1357 C.ar    1  UNL1        0.0575
     44 N         -67.9842  -40.2364  -21.1081 N.ar    1  UNL1       -0.3522
     45 C         -67.3972  -41.0227  -20.1836 C.ar    1  UNL1        0.0682
     46 C         -66.1538  -41.4657  -20.6292 C.ar    1  UNL1       -0.0005
     47 C         -65.9662  -40.8648  -21.8762 C.ar    1  UNL1        0.0260
     48 H         -62.9657  -41.6610  -23.2976 H       1  UNL1        0.1424
     49 H         -63.2352  -41.3619  -21.5621 H       1  UNL1        0.1424
     50 H         -68.9392  -39.8176  -21.0541 H       1  UNL1        0.1660
@<TRIPOS>BOND
     1    38    39    1
     2    39    40   ar
     3    40    41   ar
     4    41    42   ar
     5    42    43   ar
     6    43    44   ar
     7    44    45   ar
     8    45    46   ar
     9    46    37    1
    10    37     1    1
    11     1     2    1
    12     2     3   am
    13     3     4    2
    14     3     6    1
    15     6     7   ar
    16     7     8   ar
    17     8     9   ar
    18     9    13    1
    19    13    14    1
    20    14    15    1
    21    15    16    1
    22    16    19    1
    23    19    20   ar
    24    20    21   ar
    25    21    22   ar
    26    22    23    1
    27    22    24   ar
    28    24    25    1
    29    24    26   ar
    30    16    17    1
    31    17    18    1
    32     9    10   ar
    33    10    11   ar
    34    11    12    1
    35     1    27    1
    36    27    28    2
    37    27    29   am
    38    29    31    1
    39    31    32   ar
    40    32    33   ar
    41    33    34   ar
    42    34    35   ar
    43    35    36   ar
    44    46    47   ar
    45    47    39   ar
    46    47    43   ar
    47    11     6   ar
    48    36    31   ar
    49    18    13    1
    50    26    19   ar
    51    38    48    1
    52    38    49    1
    53    44    50    1
    54     2     5    1
    55    29    30    1
@<TRIPOS>MOLECULE
*****
 50 55 0 0 0
SMALL
GASTEIGER

@<TRIPOS>ATOM
      1 C         -61.8396  -46.9738  -27.8645 C.3     1  UNL1        0.1535
      2 N         -62.3490  -46.5855  -26.5420 N.am    1  UNL1       -0.2945
      3 C         -61.4622  -46.2367  -25.4695 C.2     1  UNL1        0.2483
      4 O         -60.4079  -46.9111  -25.3107 O.2     1  UNL1       -0.2701
      5 H         -63.3787  -46.5635  -26.3695 H       1  UNL1        0.1501
      6 C         -61.7321  -45.0794  -24.5699 C.ar    1  UNL1        0.0808
      7 C         -61.8517  -43.7927  -25.1280 C.ar    1  UNL1        0.0080
      8 C         -62.1969  -42.6956  -24.3367 C.ar    1  UNL1        0.0148
      9 C         -62.4319  -42.8520  -22.9621 C.ar    1  UNL1        0.0502
     10 C         -62.2976  -44.1291  -22.3956 C.ar    1  UNL1        0.0443
     11 C         -61.9550  -45.2321  -23.1830 C.ar    1  UNL1        0.1457
     12 F         -61.9011  -46.4442  -22.5790 F       1  UNL1       -0.2040
     13 N         -62.8342  -41.7270  -22.1497 N.pl3   1  UNL1       -0.3040
     14 C         -64.2587  -41.4698  -21.8950 C.3     1  UNL1        0.1122
     15 C         -64.5117  -39.9744  -21.6800 C.3     1  UNL1        0.1122
     16 N         -63.6014  -39.4116  -20.6703 N.pl3   1  UNL1       -0.3040
     17 C         -62.3834  -40.1426  -20.2917 C.3     1  UNL1        0.1122
     18 C         -61.8091  -40.9024  -21.4910 C.3     1  UNL1        0.1122
     19 C         -63.9521  -38.1829  -19.9946 C.ar    1  UNL1        0.0488
     20 C         -65.2800  -37.9373  -19.6010 C.ar    1  UNL1        0.0154
     21 C         -65.6184  -36.7506  -18.9462 C.ar    1  UNL1        0.0135
     22 C         -64.6393  -35.7915  -18.6712 C.ar    1  UNL1        0.0683
     23 CL        -65.1052  -34.3107  -17.8451 Cl      1  UNL1       -0.0814
     24 C         -63.3090  -36.0245  -19.0551 C.ar    1  UNL1        0.0694
     25 CL        -62.0454  -34.8477  -18.7220 Cl      1  UNL1       -0.0813
     26 C         -62.9712  -37.2138  -19.7117 C.ar    1  UNL1        0.0268
     27 C         -62.8822  -46.7110  -28.9222 C.2     1  UNL1        0.2443
     28 O         -62.9824  -47.4949  -29.9059 O.2     1  UNL1       -0.2730
     29 N         -63.8081  -45.6235  -28.7647 N.am    1  UNL1       -0.2825
     30 H         -63.9170  -45.2088  -27.8114 H       1  UNL1        0.1549
     31 C         -64.6747  -45.1473  -29.8086 C.ar    1  UNL1        0.0535
     32 C         -65.4570  -44.0054  -29.5876 C.ar    1  UNL1        0.0353
     33 C         -66.2836  -43.5253  -30.6063 C.ar    1  UNL1        0.1002
     34 N         -66.3160  -44.1534  -31.8111 N.ar    1  UNL1       -0.2422
     35 C         -65.5546  -45.2510  -32.0623 C.ar    1  UNL1        0.1002
     36 C         -64.7149  -45.7645  -31.0707 C.ar    1  UNL1        0.0353
     37 C         -60.5452  -46.2013  -28.2010 C.3     1  UNL1        0.0569
     38 N         -58.6706  -46.0769  -30.9079 N.pl3   1  UNL1       -0.3570
     39 C         -59.6357  -45.0652  -31.2037 C.ar    1  UNL1        0.0426
     40 C         -59.6736  -44.5009  -32.4959 C.ar    1  UNL1        0.0142
     41 C         -60.5073  -43.4019  -32.7785 C.ar    1  UNL1        0.0027
     42 C         -61.3024  -42.8377  -31.7710 C.ar    1  UNL1        0.0170
     43 C         -61.2682  -43.4183  -30.5049 C.ar    1  UNL1        0.0575
     44 N         -62.0004  -43.0497  -29.4424 N.ar    1  UNL1       -0.3522
     45 C         -61.7304  -43.9458  -28.4720 C.ar    1  UNL1        0.0682
     46 C         -60.8246  -44.9038  -28.9221 C.ar    1  UNL1       -0.0005
     47 C         -60.4958  -44.5257  -30.2260 C.ar    1  UNL1        0.0260
     48 H         -58.2213  -46.6148  -31.6822 H       1  UNL1        0.1424
     49 H         -58.2103  -46.1121  -29.9730 H       1  UNL1        0.1424
     50 H         -62.6846  -42.2625  -29.3906 H       1  UNL1        0.1660
@<TRIPOS>BOND
     1    38    39    1
     2    39    40   ar
     3    40    41   ar
     4    41    42   ar
     5    42    43   ar
     6    43    44   ar
     7    44    45   ar
     8    45    46   ar
     9    46    37    1
    10    37     1    1
    11     1     2    1
    12     2     3   am
    13     3     4    2
    14     3     6    1
    15     6     7   ar
    16     7     8   ar
    17     8     9   ar
    18     9    13    1
    19    13    14    1
    20    14    15    1
    21    15    16    1
    22    16    19    1
    23    19    20   ar
    24    20    21   ar
    25    21    22   ar
    26    22    23    1
    27    22    24   ar
    28    24    25    1
    29    24    26   ar
    30    16    17    1
    31    17    18    1
    32     9    10   ar
    33    10    11   ar
    34    11    12    1
    35     1    27    1
    36    27    28    2
    37    27    29   am
    38    29    31    1
    39    31    32   ar
    40    32    33   ar
    41    33    34   ar
    42    34    35   ar
    43    35    36   ar
    44    46    47   ar
    45    47    39   ar
    46    47    43   ar
    47    11     6   ar
    48    36    31   ar
    49    18    13    1
    50    26    19   ar
    51    38    48    1
    52    38    49    1
    53    44    50    1
    54     2     5    1
    55    29    30    1
@<TRIPOS>MOLECULE
*****
 50 55 0 0 0
SMALL
GASTEIGER

@<TRIPOS>ATOM
      1 C         -61.6030  -47.0337  -25.4089 C.3     1  UNL1        0.1535
      2 N         -62.3145  -46.3791  -24.3022 N.am    1  UNL1       -0.2945
      3 C         -61.6397  -46.0087  -23.0916 C.2     1  UNL1        0.2483
      4 O         -60.7859  -46.8008  -22.6064 O.2     1  UNL1       -0.2701
      5 H         -63.3356  -46.1784  -24.3896 H       1  UNL1        0.1501
      6 C         -61.8893  -44.7020  -22.4196 C.ar    1  UNL1        0.0808
      7 C         -61.5212  -43.5133  -23.0775 C.ar    1  UNL1        0.0080
      8 C         -61.8213  -42.2655  -22.5280 C.ar    1  UNL1        0.0148
      9 C         -62.4980  -42.1687  -21.3024 C.ar    1  UNL1        0.0502
     10 C         -62.8528  -43.3498  -20.6325 C.ar    1  UNL1        0.0443
     11 C         -62.5578  -44.6023  -21.1787 C.ar    1  UNL1        0.1457
     12 F         -62.9827  -45.6988  -20.5049 F       1  UNL1       -0.2040
     13 N         -62.8504  -40.8793  -20.7541 N.pl3   1  UNL1       -0.3040
     14 C         -62.9918  -40.7064  -19.3014 C.3     1  UNL1        0.1122
     15 C         -64.0009  -39.5994  -18.9808 C.3     1  UNL1        0.1122
     16 N         -63.6963  -38.3609  -19.7145 N.pl3   1  UNL1       -0.3040
     17 C         -62.8013  -38.3999  -20.8802 C.3     1  UNL1        0.1122
     18 C         -62.9628  -39.7155  -21.6473 C.3     1  UNL1        0.1122
     19 C         -64.2119  -37.0986  -19.2350 C.ar    1  UNL1        0.0488
     20 C         -63.4131  -36.2547  -18.4425 C.ar    1  UNL1        0.0154
     21 C         -63.9109  -35.0338  -17.9808 C.ar    1  UNL1        0.0135
     22 C         -65.2108  -34.6334  -18.3035 C.ar    1  UNL1        0.0683
     23 CL        -65.8008  -33.0894  -17.7033 Cl      1  UNL1       -0.0814
     24 C         -66.0185  -35.4640  -19.0967 C.ar    1  UNL1        0.0694
     25 CL        -67.6567  -34.9952  -19.5316 Cl      1  UNL1       -0.0813
     26 C         -65.5188  -36.6875  -19.5582 C.ar    1  UNL1        0.0268
     27 C         -61.6063  -48.5298  -25.2180 C.2     1  UNL1        0.2443
     28 O         -61.9541  -49.2784  -26.1723 O.2     1  UNL1       -0.2730
     29 N         -61.1358  -49.0985  -23.9851 N.am    1  UNL1       -0.2825
     30 H         -60.5575  -48.4945  -23.3578 H       1  UNL1        0.1549
     31 C         -61.3140  -50.4765  -23.6151 C.ar    1  UNL1        0.0535
     32 C         -60.1889  -51.2740  -23.3648 C.ar    1  UNL1        0.0353
     33 C         -60.3569  -52.6071  -22.9829 C.ar    1  UNL1        0.1002
     34 N         -61.6061  -53.1230  -22.8389 N.ar    1  UNL1       -0.2422
     35 C         -62.7165  -52.3696  -23.0554 C.ar    1  UNL1        0.1002
     36 C         -62.5932  -51.0320  -23.4398 C.ar    1  UNL1        0.0353
     37 C         -62.2521  -46.6769  -26.7641 C.3     1  UNL1        0.0569
     38 N         -63.8120  -45.5536  -29.4404 N.pl3   1  UNL1       -0.3570
     39 C         -62.4746  -45.1293  -29.7121 C.ar    1  UNL1        0.0426
     40 C         -62.2301  -44.2620  -30.7971 C.ar    1  UNL1        0.0142
     41 C         -60.9140  -43.9444  -31.1839 C.ar    1  UNL1        0.0027
     42 C         -59.8214  -44.5021  -30.5050 C.ar    1  UNL1        0.0170
     43 C         -60.0793  -45.3418  -29.4235 C.ar    1  UNL1        0.0575
     44 N         -59.1635  -45.9150  -28.6273 N.ar    1  UNL1       -0.3522
     45 C         -59.8535  -46.5455  -27.6558 C.ar    1  UNL1        0.0682
     46 C         -61.2243  -46.3644  -27.8261 C.ar    1  UNL1       -0.0005
     47 C         -61.3615  -45.6217  -29.0012 C.ar    1  UNL1        0.0260
     48 H         -64.6206  -45.0076  -29.8128 H       1  UNL1        0.1424
     49 H         -64.0029  -46.5245  -29.1118 H       1  UNL1        0.1424
     50 H         -58.1249  -45.8433  -28.7076 H       1  UNL1        0.1660
@<TRIPOS>BOND
     1    38    39    1
     2    39    40   ar
     3    40    41   ar
     4    41    42   ar
     5    42    43   ar
     6    43    44   ar
     7    44    45   ar
     8    45    46   ar
     9    46    37    1
    10    37     1    1
    11     1     2    1
    12     2     3   am
    13     3     4    2
    14     3     6    1
    15     6     7   ar
    16     7     8   ar
    17     8     9   ar
    18     9    13    1
    19    13    14    1
    20    14    15    1
    21    15    16    1
    22    16    19    1
    23    19    20   ar
    24    20    21   ar
    25    21    22   ar
    26    22    23    1
    27    22    24   ar
    28    24    25    1
    29    24    26   ar
    30    16    17    1
    31    17    18    1
    32     9    10   ar
    33    10    11   ar
    34    11    12    1
    35     1    27    1
    36    27    28    2
    37    27    29   am
    38    29    31    1
    39    31    32   ar
    40    32    33   ar
    41    33    34   ar
    42    34    35   ar
    43    35    36   ar
    44    46    47   ar
    45    47    39   ar
    46    47    43   ar
    47    11     6   ar
    48    36    31   ar
    49    18    13    1
    50    26    19   ar
    51    38    48    1
    52    38    49    1
    53    44    50    1
    54     2     5    1
    55    29    30    1
@<TRIPOS>MOLECULE
*****
 50 55 0 0 0
SMALL
GASTEIGER

@<TRIPOS>ATOM
      1 C         -61.7124  -46.1507  -27.5486 C.3     1  UNL1        0.1535
      2 N         -62.3611  -45.8246  -26.2710 N.am    1  UNL1       -0.2945
      3 C         -61.6180  -45.2850  -25.1689 C.2     1  UNL1        0.2483
      4 O         -60.4686  -45.7463  -24.9286 O.2     1  UNL1       -0.2701
      5 H         -63.3855  -45.9895  -26.1532 H       1  UNL1        0.1501
      6 C         -62.1484  -44.1718  -24.3318 C.ar    1  UNL1        0.0808
      7 C         -61.9939  -44.2335  -22.9340 C.ar    1  UNL1        0.0080
      8 C         -62.3904  -43.1711  -22.1197 C.ar    1  UNL1        0.0148
      9 C         -62.9552  -42.0146  -22.6789 C.ar    1  UNL1        0.0502
     10 C         -63.1282  -41.9531  -24.0704 C.ar    1  UNL1        0.0443
     11 C         -62.7305  -43.0122  -24.8915 C.ar    1  UNL1        0.1457
     12 F         -62.8740  -42.8588  -26.2304 F       1  UNL1       -0.2040
     13 N         -63.3239  -40.8954  -21.8430 N.pl3   1  UNL1       -0.3040
     14 C         -64.6778  -40.8083  -21.2776 C.3     1  UNL1        0.1122
     15 C         -65.0888  -39.3471  -21.0722 C.3     1  UNL1        0.1122
     16 N         -64.0672  -38.5980  -20.3236 N.pl3   1  UNL1       -0.3040
     17 C         -62.7034  -39.1342  -20.2061 C.3     1  UNL1        0.1122
     18 C         -62.3073  -39.8982  -21.4730 C.3     1  UNL1        0.1122
     19 C         -64.4316  -37.3796  -19.6368 C.ar    1  UNL1        0.0488
     20 C         -63.5202  -36.7459  -18.7729 C.ar    1  UNL1        0.0154
     21 C         -63.8719  -35.5672  -18.1107 C.ar    1  UNL1        0.0135
     22 C         -65.1355  -35.0001  -18.3006 C.ar    1  UNL1        0.0683
     23 CL        -65.5401  -33.5157  -17.4491 Cl      1  UNL1       -0.0814
     24 C         -66.0542  -35.6197  -19.1627 C.ar    1  UNL1        0.0694
     25 CL        -67.6514  -34.9359  -19.4353 Cl      1  UNL1       -0.0813
     26 C         -65.7010  -36.8012  -19.8253 C.ar    1  UNL1        0.0268
     27 C         -62.7197  -46.7265  -28.5124 C.2     1  UNL1        0.2443
     28 O         -62.8015  -47.9777  -28.6537 O.2     1  UNL1       -0.2730
     29 N         -63.6351  -45.8580  -29.1999 N.am    1  UNL1       -0.2825
     30 H         -63.7665  -44.8912  -28.8248 H       1  UNL1        0.1549
     31 C         -64.4640  -46.2713  -30.2997 C.ar    1  UNL1        0.0535
     32 C         -64.8751  -45.3237  -31.2472 C.ar    1  UNL1        0.0353
     33 C         -65.6616  -45.7241  -32.3299 C.ar    1  UNL1        0.1002
     34 N         -66.0123  -47.0294  -32.4722 N.ar    1  UNL1       -0.2422
     35 C         -65.6130  -47.9749  -31.5810 C.ar    1  UNL1        0.1002
     36 C         -64.8264  -47.6169  -30.4832 C.ar    1  UNL1        0.0353
     37 C         -61.0552  -44.8963  -28.1648 C.3     1  UNL1        0.0569
     38 N         -62.7350  -43.3649  -30.5503 N.pl3   1  UNL1       -0.3570
     39 C         -61.5093  -43.6511  -31.2271 C.ar    1  UNL1        0.0426
     40 C         -61.2722  -43.0876  -32.4983 C.ar    1  UNL1        0.0142
     41 C         -60.1471  -43.4655  -33.2560 C.ar    1  UNL1        0.0027
     42 C         -59.2511  -44.4253  -32.7643 C.ar    1  UNL1        0.0170
     43 C         -59.4887  -44.9584  -31.4991 C.ar    1  UNL1        0.0575
     44 N         -58.7112  -45.8387  -30.8497 N.ar    1  UNL1       -0.3522
     45 C         -59.2578  -45.9905  -29.6267 C.ar    1  UNL1        0.0682
     46 C         -60.3900  -45.1907  -29.4886 C.ar    1  UNL1       -0.0005
     47 C         -60.5575  -44.5610  -30.7242 C.ar    1  UNL1        0.0260
     48 H         -63.2992  -42.5284  -30.8196 H       1  UNL1        0.1424
     49 H         -63.2120  -44.1002  -29.9855 H       1  UNL1        0.1424
     50 H         -57.8294  -46.2771  -31.1968 H       1  UNL1        0.1660
@<TRIPOS>BOND
     1    38    39    1
     2    39    40   ar
     3    40    41   ar
     4    41    42   ar
     5    42    43   ar
     6    43    44   ar
     7    44    45   ar
     8    45    46   ar
     9    46    37    1
    10    37     1    1
    11     1     2    1
    12     2     3   am
    13     3     4    2
    14     3     6    1
    15     6     7   ar
    16     7     8   ar
    17     8     9   ar
    18     9    13    1
    19    13    14    1
    20    14    15    1
    21    15    16    1
    22    16    19    1
    23    19    20   ar
    24    20    21   ar
    25    21    22   ar
    26    22    23    1
    27    22    24   ar
    28    24    25    1
    29    24    26   ar
    30    16    17    1
    31    17    18    1
    32     9    10   ar
    33    10    11   ar
    34    11    12    1
    35     1    27    1
    36    27    28    2
    37    27    29   am
    38    29    31    1
    39    31    32   ar
    40    32    33   ar
    41    33    34   ar
    42    34    35   ar
    43    35    36   ar
    44    46    47   ar
    45    47    39   ar
    46    47    43   ar
    47    11     6   ar
    48    36    31   ar
    49    18    13    1
    50    26    19   ar
    51    38    48    1
    52    38    49    1
    53    44    50    1
    54     2     5    1
    55    29    30    1
@<TRIPOS>MOLECULE
*****
 50 55 0 0 0
SMALL
GASTEIGER

@<TRIPOS>ATOM
      1 C         -62.0120  -47.1021  -25.2984 C.3     1  UNL1        0.1535
      2 N         -62.4833  -46.4840  -24.0513 N.am    1  UNL1       -0.2945
      3 C         -61.5677  -45.9259  -23.0982 C.2     1  UNL1        0.2483
      4 O         -60.4916  -46.5396  -22.8596 O.2     1  UNL1       -0.2701
      5 H         -63.5064  -46.4491  -23.8449 H       1  UNL1        0.1501
      6 C         -61.8344  -44.6266  -22.4183 C.ar    1  UNL1        0.0808
      7 C         -61.4448  -43.4310  -23.0510 C.ar    1  UNL1        0.0080
      8 C         -61.7584  -42.1891  -22.4957 C.ar    1  UNL1        0.0148
      9 C         -62.4705  -42.1053  -21.2894 C.ar    1  UNL1        0.0502
     10 C         -62.8471  -43.2934  -20.6442 C.ar    1  UNL1        0.0443
     11 C         -62.5386  -44.5400  -21.1964 C.ar    1  UNL1        0.1457
     12 F         -62.9853  -45.6434  -20.5484 F       1  UNL1       -0.2040
     13 N         -62.8363  -40.8216  -20.7364 N.pl3   1  UNL1       -0.3040
     14 C         -63.0106  -40.6634  -19.2856 C.3     1  UNL1        0.1122
     15 C         -64.0276  -39.5602  -18.9769 C.3     1  UNL1        0.1122
     16 N         -63.7074  -38.3142  -19.6910 N.pl3   1  UNL1       -0.3040
     17 C         -62.7863  -38.3410  -20.8365 C.3     1  UNL1        0.1122
     18 C         -62.9293  -39.6490  -21.6202 C.3     1  UNL1        0.1122
     19 C         -64.2348  -37.0571  -19.2108 C.ar    1  UNL1        0.0488
     20 C         -63.4501  -36.2146  -18.4027 C.ar    1  UNL1        0.0154
     21 C         -63.9593  -34.9987  -17.9403 C.ar    1  UNL1        0.0135
     22 C         -65.2566  -34.6020  -18.2775 C.ar    1  UNL1        0.0683
     23 CL        -65.8610  -33.0642  -17.6758 Cl      1  UNL1       -0.0814
     24 C         -66.0501  -35.4311  -19.0863 C.ar    1  UNL1        0.0694
     25 CL        -67.6846  -34.9667  -19.5398 Cl      1  UNL1       -0.0813
     26 C         -65.5391  -36.6497  -19.5486 C.ar    1  UNL1        0.0268
     27 C         -61.7362  -48.5690  -25.0811 C.2     1  UNL1        0.2443
     28 O         -61.6426  -49.3389  -26.0764 O.2     1  UNL1       -0.2730
     29 N         -61.4988  -49.0672  -23.7544 N.am    1  UNL1       -0.2825
     30 H         -61.2569  -48.3757  -23.0088 H       1  UNL1        0.1549
     31 C         -61.4610  -50.4639  -23.4144 C.ar    1  UNL1        0.0535
     32 C         -60.2468  -51.0459  -23.0250 C.ar    1  UNL1        0.0353
     33 C         -60.2090  -52.3968  -22.6718 C.ar    1  UNL1        0.1002
     34 N         -61.3477  -53.1386  -22.6901 N.ar    1  UNL1       -0.2422
     35 C         -62.5436  -52.5982  -23.0442 C.ar    1  UNL1        0.1002
     36 C         -62.6255  -51.2510  -23.4056 C.ar    1  UNL1        0.0353
     37 C         -63.0541  -46.9260  -26.4245 C.3     1  UNL1        0.0569
     38 N         -64.5026  -47.0636  -29.3809 N.pl3   1  UNL1       -0.3570
     39 C         -64.4720  -45.6515  -29.1631 C.ar    1  UNL1        0.0426
     40 C         -65.1732  -44.7998  -30.0421 C.ar    1  UNL1        0.0142
     41 C         -65.0435  -43.4009  -29.9471 C.ar    1  UNL1        0.0027
     42 C         -64.1976  -42.8311  -28.9851 C.ar    1  UNL1        0.0170
     43 C         -63.5266  -43.6849  -28.1121 C.ar    1  UNL1        0.0575
     44 N         -62.7266  -43.3165  -27.0996 N.ar    1  UNL1       -0.3522
     45 C         -62.3859  -44.4525  -26.4586 C.ar    1  UNL1        0.0682
     46 C         -62.9831  -45.5578  -27.0608 C.ar    1  UNL1       -0.0005
     47 C         -63.6829  -45.0539  -28.1597 C.ar    1  UNL1        0.0260
     48 H         -65.2603  -47.4878  -29.9611 H       1  UNL1        0.1424
     49 H         -63.6556  -47.6451  -29.2032 H       1  UNL1        0.1424
     50 H         -62.4637  -42.3437  -26.8255 H       1  UNL1        0.1660
@<TRIPOS>BOND
     1    38    39    1
     2    39    40   ar
     3    40    41   ar
     4    41    42   ar
     5    42    43   ar
     6    43    44   ar
     7    44    45   ar
     8    45    46   ar
     9    46    37    1
    10    37     1    1
    11     1     2    1
    12     2     3   am
    13     3     4    2
    14     3     6    1
    15     6     7   ar
    16     7     8   ar
    17     8     9   ar
    18     9    13    1
    19    13    14    1
    20    14    15    1
    21    15    16    1
    22    16    19    1
    23    19    20   ar
    24    20    21   ar
    25    21    22   ar
    26    22    23    1
    27    22    24   ar
    28    24    25    1
    29    24    26   ar
    30    16    17    1
    31    17    18    1
    32     9    10   ar
    33    10    11   ar
    34    11    12    1
    35     1    27    1
    36    27    28    2
    37    27    29   am
    38    29    31    1
    39    31    32   ar
    40    32    33   ar
    41    33    34   ar
    42    34    35   ar
    43    35    36   ar
    44    46    47   ar
    45    47    39   ar
    46    47    43   ar
    47    11     6   ar
    48    36    31   ar
    49    18    13    1
    50    26    19   ar
    51    38    48    1
    52    38    49    1
    53    44    50    1
    54     2     5    1
    55    29    30    1
@<TRIPOS>MOLECULE
*****
 50 55 0 0 0
SMALL
GASTEIGER

@<TRIPOS>ATOM
      1 C         -61.6569  -47.0618  -25.2830 C.3     1  UNL1        0.1535
      2 N         -62.2636  -46.4382  -24.0988 N.am    1  UNL1       -0.2945
      3 C         -61.4615  -45.9530  -23.0129 C.2     1  UNL1        0.2483
      4 O         -60.4668  -46.6346  -22.6417 O.2     1  UNL1       -0.2701
      5 H         -63.3019  -46.3452  -24.0369 H       1  UNL1        0.1501
      6 C         -61.7466  -44.6520  -22.3438 C.ar    1  UNL1        0.0808
      7 C         -61.3185  -43.4594  -22.9569 C.ar    1  UNL1        0.0080
      8 C         -61.6456  -42.2153  -22.4145 C.ar    1  UNL1        0.0148
      9 C         -62.4101  -42.1261  -21.2411 C.ar    1  UNL1        0.0502
     10 C         -62.8257  -43.3114  -20.6149 C.ar    1  UNL1        0.0443
     11 C         -62.5040  -44.5602  -21.1545 C.ar    1  UNL1        0.1457
     12 F         -62.9889  -45.6602  -20.5285 F       1  UNL1       -0.2040
     13 N         -62.7887  -40.8398  -20.7033 N.pl3   1  UNL1       -0.3040
     14 C         -62.9165  -40.6534  -19.2510 C.3     1  UNL1        0.1122
     15 C         -63.9496  -39.5689  -18.9303 C.3     1  UNL1        0.1122
     16 N         -63.6862  -38.3317  -19.6820 N.pl3   1  UNL1       -0.3040
     17 C         -62.8051  -38.3616  -20.8585 C.3     1  UNL1        0.1122
     18 C         -62.9422  -39.6899  -21.6083 C.3     1  UNL1        0.1122
     19 C         -64.2281  -37.0774  -19.2106 C.ar    1  UNL1        0.0488
     20 C         -63.4576  -36.2260  -18.3984 C.ar    1  UNL1        0.0154
     21 C         -63.9809  -35.0128  -17.9445 C.ar    1  UNL1        0.0135
     22 C         -65.2784  -34.6279  -18.2946 C.ar    1  UNL1        0.0683
     23 CL        -65.9008  -33.0932  -17.7033 Cl      1  UNL1       -0.0814
     24 C         -66.0578  -35.4661  -19.1076 C.ar    1  UNL1        0.0694
     25 CL        -67.6919  -35.0166  -19.5773 Cl      1  UNL1       -0.0813
     26 C         -65.5327  -36.6819  -19.5614 C.ar    1  UNL1        0.0268
     27 C         -61.5009  -48.5465  -25.0679 C.2     1  UNL1        0.2443
     28 O         -61.4525  -49.3183  -26.0649 O.2     1  UNL1       -0.2730
     29 N         -61.3244  -49.0660  -23.7398 N.am    1  UNL1       -0.2825
     30 H         -61.0408  -48.3979  -22.9875 H       1  UNL1        0.1549
     31 C         -61.4021  -50.4623  -23.4053 C.ar    1  UNL1        0.0535
     32 C         -60.2352  -51.1510  -23.0464 C.ar    1  UNL1        0.0353
     33 C         -60.3084  -52.5019  -22.6985 C.ar    1  UNL1        0.1002
     34 N         -61.5083  -53.1404  -22.6924 N.ar    1  UNL1       -0.2422
     35 C         -62.6597  -52.4949  -23.0165 C.ar    1  UNL1        0.1002
     36 C         -62.6309  -51.1439  -23.3715 C.ar    1  UNL1        0.0353
     37 C         -62.5166  -46.8019  -26.5395 C.3     1  UNL1        0.0569
     38 N         -59.7648  -47.1249  -28.3229 N.pl3   1  UNL1       -0.3570
     39 C         -60.2903  -45.9090  -28.8593 C.ar    1  UNL1        0.0426
     40 C         -59.7000  -45.3478  -30.0108 C.ar    1  UNL1        0.0142
     41 C         -60.0936  -44.0790  -30.4774 C.ar    1  UNL1        0.0027
     42 C         -61.0698  -43.3427  -29.7912 C.ar    1  UNL1        0.0170
     43 C         -61.6570  -43.9187  -28.6666 C.ar    1  UNL1        0.0575
     44 N         -62.6414  -43.3877  -27.9250 N.ar    1  UNL1       -0.3522
     45 C         -62.9731  -44.3259  -27.0154 C.ar    1  UNL1        0.0682
     46 C         -62.2005  -45.4728  -27.1840 C.ar    1  UNL1       -0.0005
     47 C         -61.3186  -45.1810  -28.2272 C.ar    1  UNL1        0.0260
     48 H         -59.1826  -47.7528  -28.9209 H       1  UNL1        0.1424
     49 H         -59.7216  -47.2736  -27.2918 H       1  UNL1        0.1424
     50 H         -63.0995  -42.4588  -28.0573 H       1  UNL1        0.1660
@<TRIPOS>BOND
     1    38    39    1
     2    39    40   ar
     3    40    41   ar
     4    41    42   ar
     5    42    43   ar
     6    43    44   ar
     7    44    45   ar
     8    45    46   ar
     9    46    37    1
    10    37     1    1
    11     1     2    1
    12     2     3   am
    13     3     4    2
    14     3     6    1
    15     6     7   ar
    16     7     8   ar
    17     8     9   ar
    18     9    13    1
    19    13    14    1
    20    14    15    1
    21    15    16    1
    22    16    19    1
    23    19    20   ar
    24    20    21   ar
    25    21    22   ar
    26    22    23    1
    27    22    24   ar
    28    24    25    1
    29    24    26   ar
    30    16    17    1
    31    17    18    1
    32     9    10   ar
    33    10    11   ar
    34    11    12    1
    35     1    27    1
    36    27    28    2
    37    27    29   am
    38    29    31    1
    39    31    32   ar
    40    32    33   ar
    41    33    34   ar
    42    34    35   ar
    43    35    36   ar
    44    46    47   ar
    45    47    39   ar
    46    47    43   ar
    47    11     6   ar
    48    36    31   ar
    49    18    13    1
    50    26    19   ar
    51    38    48    1
    52    38    49    1
    53    44    50    1
    54     2     5    1
    55    29    30    1
