@<TRIPOS>MOLECULE
*****
 43 49 0 0 0
SMALL
GASTEIGER

@<TRIPOS>ATOM
      1 C         -27.0854   51.4005   -9.4630 C.3     1  UNL1        0.1158
      2 N         -26.6936   51.4914  -10.7604 N.3     1  UNL1       -0.2851
      3 C         -25.3554   51.4966  -10.6810 C.3     1  UNL1        0.0910
      4 C         -24.4598   51.6091  -11.7321 C.3     1  UNL1        0.1018
      5 C         -23.0946   51.6375  -11.4150 C.3     1  UNL1        0.3136
      6 N         -22.6668   51.5658  -10.1068 N.am    1  UNL1       -0.1293
      7 C         -23.5764   51.4601   -9.0747 C.2     1  UNL1        0.4047
      8 O         -23.1821   51.4280   -7.8791 O.2     1  UNL1       -0.2174
      9 C         -24.9459   51.4069   -9.3866 C.3     1  UNL1        0.2038
     10 N         -26.0349   51.3107   -8.5871 N.3     1  UNL1       -0.2473
     11 H         -27.0374   52.3522  -11.1861 H       1  UNL1        0.1244
     12 C         -26.0656   51.2110   -7.1120 C.3     1  UNL1        0.0817
     13 C         -27.0839   52.1923   -6.4897 C.3     1  UNL1        0.0252
     14 C         -27.9752   51.3756   -5.5327 C.3     1  UNL1        0.0278
     15 C         -27.5526   49.9716   -5.7524 C.ar    1  UNL1       -0.0248
     16 C         -28.1064   48.8335   -5.1641 C.ar    1  UNL1       -0.0045
     17 C         -27.5588   47.5709   -5.4699 C.ar    1  UNL1       -0.0002
     18 C         -26.4755   47.4818   -6.3716 C.ar    1  UNL1       -0.0003
     19 C         -25.9355   48.6405   -6.9476 C.ar    1  UNL1       -0.0033
     20 C         -26.5049   49.8764   -6.6325 C.ar    1  UNL1       -0.0117
     21 C         -28.1337   46.3440   -4.8742 C.ar    1  UNL1        0.0030
     22 C         -29.3665   45.8814   -5.3667 C.ar    1  UNL1        0.0001
     23 C         -29.9932   44.7764   -4.7904 C.ar    1  UNL1        0.0000
     24 C         -29.3987   44.1187   -3.7154 C.ar    1  UNL1        0.0001
     25 C         -28.1684   44.5545   -3.2204 C.ar    1  UNL1        0.0031
     26 C         -27.5132   45.6600   -3.7941 C.ar    1  UNL1        0.0371
     27 C         -26.1709   46.0357   -3.2861 C.ar    1  UNL1        0.1806
     28 N         -25.0653   45.2731   -3.3924 N.ar    1  UNL1       -0.1084
     29 N         -24.1097   45.9640   -2.7871 N.ar    1  UNL1       -0.0229
     30 N         -24.6013   47.1018   -2.3209 N.ar    1  UNL1       -0.0464
     31 N         -25.8867   47.1659   -2.6164 N.ar    1  UNL1       -0.2388
     32 H         -26.5208   47.9596   -2.3767 H       1  UNL1        0.1923
     33 C         -29.2012   50.0247   -9.3435 C.3     1  UNL1        0.0029
     34 C         -28.5431   51.3754   -9.0691 C.3     1  UNL1        0.0326
     35 C         -21.2226   51.6453   -9.8258 C.3     1  UNL1        0.3404
     36 C         -20.8054   53.0826   -9.5924 C.ar    1  UNL1        0.0640
     37 C         -21.3446   54.0813  -10.4234 C.ar    1  UNL1        0.0031
     38 C         -21.0074   55.4233  -10.2358 C.ar    1  UNL1       -0.0001
     39 C         -20.1266   55.7876   -9.2179 C.ar    1  UNL1        0.0007
     40 C         -19.5771   54.8108   -8.3857 C.ar    1  UNL1        0.0102
     41 C         -19.9069   53.4592   -8.5629 C.ar    1  UNL1        0.0710
     42 C         -19.3015   52.4880   -7.6835 C.1     1  UNL1        0.1003
     43 N         -18.8167   51.7082   -6.9790 N.1     1  UNL1       -0.1908
@<TRIPOS>BOND
     1    33    34    1
     2    34     1    1
     3     1     2    1
     4     2     3    1
     5     3     4    1
     6     4     5    1
     7     5     6    1
     8     6    35    1
     9    35    36    1
    10    36    37   ar
    11    37    38   ar
    12    38    39   ar
    13    39    40   ar
    14    40    41   ar
    15    41    42    1
    16    42    43    3
    17     6     7    1
    18     7     8    2
    19     7     9    1
    20     9    10    1
    21    10    12    1
    22    12    13    1
    23    13    14    1
    24    14    15    1
    25    15    16   ar
    26    16    17   ar
    27    17    21    1
    28    21    22   ar
    29    22    23   ar
    30    23    24   ar
    31    24    25   ar
    32    25    26   ar
    33    26    27    1
    34    27    28   ar
    35    28    29   ar
    36    29    30   ar
    37    30    31   ar
    38    17    18   ar
    39    18    19   ar
    40    19    20   ar
    41    10     1    1
    42    20    12    1
    43     9     3    1
    44    20    15   ar
    45    41    36   ar
    46    26    21   ar
    47    31    27   ar
    48    31    32    1
    49     2    11    1
@<TRIPOS>MOLECULE
*****
 43 49 0 0 0
SMALL
GASTEIGER

@<TRIPOS>ATOM
      1 C         -25.4682   51.4461   -9.6359 C.3     1  UNL1        0.1158
      2 N         -26.0085   51.4944  -10.8812 N.3     1  UNL1       -0.2851
      3 C         -27.3029   51.2176  -10.6690 C.3     1  UNL1        0.0910
      4 C         -28.2982   51.1072  -11.6265 C.3     1  UNL1        0.1018
      5 C         -29.5831   50.7641  -11.1835 C.3     1  UNL1        0.3136
      6 N         -29.8379   50.5371   -9.8482 N.am    1  UNL1       -0.1293
      7 C         -28.8304   50.6467   -8.9120 C.2     1  UNL1        0.4047
      8 O         -29.0607   50.4063   -7.6974 O.2     1  UNL1       -0.2174
      9 C         -27.5448   51.0138   -9.3457 C.3     1  UNL1        0.2038
     10 N         -26.3916   51.1869   -8.6567 N.3     1  UNL1       -0.2473
     11 H         -25.5815   50.7976  -11.4916 H       1  UNL1        0.1244
     12 C         -26.1815   51.0484   -7.1994 C.3     1  UNL1        0.0817
     13 C         -27.0013   52.0845   -6.3985 C.3     1  UNL1        0.0252
     14 C         -27.7797   51.3094   -5.3166 C.3     1  UNL1        0.0278
     15 C         -27.5103   49.8847   -5.6261 C.ar    1  UNL1       -0.0248
     16 C         -28.0439   48.7746   -4.9696 C.ar    1  UNL1       -0.0045
     17 C         -27.6551   47.4841   -5.3830 C.ar    1  UNL1       -0.0002
     18 C         -26.7491   47.3405   -6.4568 C.ar    1  UNL1       -0.0003
     19 C         -26.2254   48.4718   -7.0985 C.ar    1  UNL1       -0.0033
     20 C         -26.6361   49.7371   -6.6726 C.ar    1  UNL1       -0.0117
     21 C         -28.2152   46.2868   -4.7170 C.ar    1  UNL1        0.0030
     22 C         -29.4711   45.8178   -5.1403 C.ar    1  UNL1        0.0001
     23 C         -30.0826   44.7421   -4.4962 C.ar    1  UNL1        0.0000
     24 C         -29.4497   44.1205   -3.4216 C.ar    1  UNL1        0.0001
     25 C         -28.1965   44.5629   -2.9947 C.ar    1  UNL1        0.0031
     26 C         -27.5564   45.6389   -3.6372 C.ar    1  UNL1        0.0371
     27 C         -26.1912   46.0207   -3.1996 C.ar    1  UNL1        0.1806
     28 N         -25.1041   45.2298   -3.2880 N.ar    1  UNL1       -0.1084
     29 N         -24.1163   45.9406   -2.7627 N.ar    1  UNL1       -0.0229
     30 N         -24.5710   47.1177   -2.3611 N.ar    1  UNL1       -0.0464
     31 N         -25.8641   47.1880   -2.6191 N.ar    1  UNL1       -0.2388
     32 H         -26.4750   48.0092   -2.4149 H       1  UNL1        0.1923
     33 C         -23.1990   51.7911  -10.6919 C.3     1  UNL1        0.0029
     34 C         -23.9973   51.6879   -9.3939 C.3     1  UNL1        0.0326
     35 C         -31.1960   50.1351   -9.4420 C.3     1  UNL1        0.3404
     36 C         -31.2882   48.6285   -9.3152 C.ar    1  UNL1        0.0640
     37 C         -31.2304   47.8517  -10.4865 C.ar    1  UNL1        0.0031
     38 C         -31.2905   46.4581  -10.4211 C.ar    1  UNL1       -0.0001
     39 C         -31.4107   45.8202   -9.1869 C.ar    1  UNL1        0.0007
     40 C         -31.4745   46.5737   -8.0135 C.ar    1  UNL1        0.0102
     41 C         -31.4154   47.9740   -8.0643 C.ar    1  UNL1        0.0710
     42 C         -31.4980   48.7062   -6.8234 C.1     1  UNL1        0.1003
     43 N         -31.5645   49.2922   -5.8276 N.1     1  UNL1       -0.1908
@<TRIPOS>BOND
     1    33    34    1
     2    34     1    1
     3     1     2    1
     4     2     3    1
     5     3     4    1
     6     4     5    1
     7     5     6    1
     8     6    35    1
     9    35    36    1
    10    36    37   ar
    11    37    38   ar
    12    38    39   ar
    13    39    40   ar
    14    40    41   ar
    15    41    42    1
    16    42    43    3
    17     6     7    1
    18     7     8    2
    19     7     9    1
    20     9    10    1
    21    10    12    1
    22    12    13    1
    23    13    14    1
    24    14    15    1
    25    15    16   ar
    26    16    17   ar
    27    17    21    1
    28    21    22   ar
    29    22    23   ar
    30    23    24   ar
    31    24    25   ar
    32    25    26   ar
    33    26    27    1
    34    27    28   ar
    35    28    29   ar
    36    29    30   ar
    37    30    31   ar
    38    17    18   ar
    39    18    19   ar
    40    19    20   ar
    41    10     1    1
    42    20    12    1
    43     9     3    1
    44    20    15   ar
    45    41    36   ar
    46    26    21   ar
    47    31    27   ar
    48    31    32    1
    49     2    11    1
@<TRIPOS>MOLECULE
*****
 43 49 0 0 0
SMALL
GASTEIGER

@<TRIPOS>ATOM
      1 C         -27.7410   51.4321   -9.5584 C.3     1  UNL1        0.1158
      2 N         -28.3684   52.3940  -10.2838 N.3     1  UNL1       -0.2851
      3 C         -29.2260   51.6992  -11.0447 C.3     1  UNL1        0.0910
      4 C         -30.0915   52.2076  -11.9996 C.3     1  UNL1        0.1018
      5 C         -30.8729   51.2895  -12.7148 C.3     1  UNL1        0.3136
      6 N         -30.7726   49.9352  -12.4797 N.am    1  UNL1       -0.1293
      7 C         -29.8995   49.4499  -11.5280 C.2     1  UNL1        0.4047
      8 O         -29.7874   48.2098  -11.3398 O.2     1  UNL1       -0.2174
      9 C         -29.1301   50.3661  -10.7901 C.3     1  UNL1        0.2038
     10 N         -28.2085   50.1699   -9.8172 N.3     1  UNL1       -0.2473
     11 H         -27.7029   52.9086  -10.8606 H       1  UNL1        0.1244
     12 C         -27.7677   48.8827   -9.2378 C.3     1  UNL1        0.0817
     13 C         -26.2291   48.7985   -9.1259 C.3     1  UNL1        0.0252
     14 C         -25.9012   48.3812   -7.6783 C.3     1  UNL1        0.0278
     15 C         -27.2146   48.3942   -6.9904 C.ar    1  UNL1       -0.0248
     16 C         -27.4479   48.1481   -5.6366 C.ar    1  UNL1       -0.0045
     17 C         -28.7727   48.1768   -5.1552 C.ar    1  UNL1       -0.0002
     18 C         -29.8306   48.4664   -6.0450 C.ar    1  UNL1       -0.0003
     19 C         -29.5700   48.7078   -7.4014 C.ar    1  UNL1       -0.0033
     20 C         -28.2465   48.6814   -7.8470 C.ar    1  UNL1       -0.0117
     21 C         -29.0513   47.9352   -3.7218 C.ar    1  UNL1        0.0030
     22 C         -30.0541   48.7010   -3.1019 C.ar    1  UNL1        0.0001
     23 C         -30.3054   48.5718   -1.7358 C.ar    1  UNL1        0.0000
     24 C         -29.5598   47.6774   -0.9705 C.ar    1  UNL1        0.0001
     25 C         -28.5687   46.8983   -1.5699 C.ar    1  UNL1        0.0031
     26 C         -28.3063   47.0044   -2.9484 C.ar    1  UNL1        0.0371
     27 C         -27.2995   46.0986   -3.5543 C.ar    1  UNL1        0.1806
     28 N         -25.9649   46.2605   -3.4660 N.ar    1  UNL1       -0.1084
     29 N         -25.4486   45.2601   -4.1657 N.ar    1  UNL1       -0.0229
     30 N         -26.4193   44.5140   -4.6705 N.ar    1  UNL1       -0.0464
     31 N         -27.5828   45.0211   -4.3062 N.ar    1  UNL1       -0.2388
     32 H         -28.5163   44.6269   -4.5564 H       1  UNL1        0.1923
     33 C         -27.2258   52.1219   -7.1830 C.3     1  UNL1        0.0029
     34 C         -26.6611   51.7648   -8.5564 C.3     1  UNL1        0.0326
     35 C         -31.5840   49.0108  -13.2910 C.3     1  UNL1        0.3404
     36 C         -31.0208   48.9004  -14.6928 C.ar    1  UNL1        0.0640
     37 C         -31.2427   49.9604  -15.5905 C.ar    1  UNL1        0.0031
     38 C         -30.7269   49.9157  -16.8875 C.ar    1  UNL1       -0.0001
     39 C         -29.9842   48.8126  -17.3073 C.ar    1  UNL1        0.0007
     40 C         -29.7572   47.7484  -16.4328 C.ar    1  UNL1        0.0102
     41 C         -30.2694   47.7800  -15.1276 C.ar    1  UNL1        0.0710
     42 C         -30.0166   46.6488  -14.2677 C.1     1  UNL1        0.1003
     43 N         -29.8128   45.7423  -13.5777 N.1     1  UNL1       -0.1908
@<TRIPOS>BOND
     1    33    34    1
     2    34     1    1
     3     1     2    1
     4     2     3    1
     5     3     4    1
     6     4     5    1
     7     5     6    1
     8     6    35    1
     9    35    36    1
    10    36    37   ar
    11    37    38   ar
    12    38    39   ar
    13    39    40   ar
    14    40    41   ar
    15    41    42    1
    16    42    43    3
    17     6     7    1
    18     7     8    2
    19     7     9    1
    20     9    10    1
    21    10    12    1
    22    12    13    1
    23    13    14    1
    24    14    15    1
    25    15    16   ar
    26    16    17   ar
    27    17    21    1
    28    21    22   ar
    29    22    23   ar
    30    23    24   ar
    31    24    25   ar
    32    25    26   ar
    33    26    27    1
    34    27    28   ar
    35    28    29   ar
    36    29    30   ar
    37    30    31   ar
    38    17    18   ar
    39    18    19   ar
    40    19    20   ar
    41    10     1    1
    42    20    12    1
    43     9     3    1
    44    20    15   ar
    45    41    36   ar
    46    26    21   ar
    47    31    27   ar
    48    31    32    1
    49     2    11    1
@<TRIPOS>MOLECULE
*****
 43 49 0 0 0
SMALL
GASTEIGER

@<TRIPOS>ATOM
      1 C         -28.2290   50.5653  -10.4217 C.3     1  UNL1        0.1158
      2 N         -27.0981   50.5838   -9.6695 N.3     1  UNL1       -0.2851
      3 C         -27.2767   49.5660   -8.8155 C.3     1  UNL1        0.0910
      4 C         -26.4200   49.1711   -7.8007 C.3     1  UNL1        0.1018
      5 C         -26.8286   48.1008   -6.9929 C.3     1  UNL1        0.3136
      6 N         -28.0399   47.4765   -7.1985 N.am    1  UNL1       -0.1293
      7 C         -28.8806   47.8900   -8.2114 C.2     1  UNL1        0.4047
      8 O         -30.0007   47.3381   -8.3746 O.2     1  UNL1       -0.2174
      9 C         -28.4671   48.9469   -9.0407 C.3     1  UNL1        0.2038
     10 N         -29.0833   49.5470  -10.0871 N.3     1  UNL1       -0.2473
     11 H         -27.0067   51.4681   -9.1695 H       1  UNL1        0.1244
     12 C         -30.4024   49.2166  -10.6680 C.3     1  UNL1        0.0817
     13 C         -31.1408   50.4764  -11.1730 C.3     1  UNL1        0.0252
     14 C         -31.5840   50.1926  -12.6223 C.3     1  UNL1        0.0278
     15 C         -30.9664   48.8830  -12.9410 C.ar    1  UNL1       -0.0248
     16 C         -31.0166   48.2145  -14.1651 C.ar    1  UNL1       -0.0045
     17 C         -30.3905   46.9569  -14.2831 C.ar    1  UNL1       -0.0002
     18 C         -29.7163   46.4077  -13.1703 C.ar    1  UNL1       -0.0003
     19 C         -29.6822   47.0983  -11.9505 C.ar    1  UNL1       -0.0033
     20 C         -30.3038   48.3462  -11.8666 C.ar    1  UNL1       -0.0117
     21 C         -30.4129   46.2301  -15.5724 C.ar    1  UNL1        0.0030
     22 C         -30.7828   44.8739  -15.5638 C.ar    1  UNL1        0.0001
     23 C         -30.7458   44.1191  -16.7365 C.ar    1  UNL1        0.0000
     24 C         -30.3392   44.7072  -17.9325 C.ar    1  UNL1        0.0001
     25 C         -29.9807   46.0559  -17.9643 C.ar    1  UNL1        0.0031
     26 C         -30.0216   46.8387  -16.7955 C.ar    1  UNL1        0.0371
     27 C         -29.7090   48.2855  -16.8950 C.ar    1  UNL1        0.1806
     28 N         -30.5700   49.2330  -17.3147 N.ar    1  UNL1       -0.1084
     29 N         -29.8818   50.3653  -17.2792 N.ar    1  UNL1       -0.0229
     30 N         -28.6472   50.1303  -16.8616 N.ar    1  UNL1       -0.0464
     31 N         -28.5152   48.8388  -16.6206 N.ar    1  UNL1       -0.2388
     32 H         -27.6468   48.3772  -16.2709 H       1  UNL1        0.1923
     33 C         -27.6746   51.2482  -12.7903 C.3     1  UNL1        0.0029
     34 C         -28.4698   51.5671  -11.5259 C.3     1  UNL1        0.0326
     35 C         -28.4407   46.3862   -6.2921 C.3     1  UNL1        0.3404
     36 C         -28.4283   46.8600   -4.8535 C.ar    1  UNL1        0.0640
     37 C         -29.4430   47.7359   -4.4267 C.ar    1  UNL1        0.0031
     38 C         -29.4874   48.1851   -3.1052 C.ar    1  UNL1       -0.0001
     39 C         -28.5196   47.7683   -2.1917 C.ar    1  UNL1        0.0007
     40 C         -27.5018   46.9031   -2.5971 C.ar    1  UNL1        0.0102
     41 C         -27.4450   46.4442   -3.9211 C.ar    1  UNL1        0.0710
     42 C         -26.3652   45.5612   -4.2917 C.1     1  UNL1        0.1003
     43 N         -25.5002   44.8521   -4.5888 N.1     1  UNL1       -0.1908
@<TRIPOS>BOND
     1    33    34    1
     2    34     1    1
     3     1     2    1
     4     2     3    1
     5     3     4    1
     6     4     5    1
     7     5     6    1
     8     6    35    1
     9    35    36    1
    10    36    37   ar
    11    37    38   ar
    12    38    39   ar
    13    39    40   ar
    14    40    41   ar
    15    41    42    1
    16    42    43    3
    17     6     7    1
    18     7     8    2
    19     7     9    1
    20     9    10    1
    21    10    12    1
    22    12    13    1
    23    13    14    1
    24    14    15    1
    25    15    16   ar
    26    16    17   ar
    27    17    21    1
    28    21    22   ar
    29    22    23   ar
    30    23    24   ar
    31    24    25   ar
    32    25    26   ar
    33    26    27    1
    34    27    28   ar
    35    28    29   ar
    36    29    30   ar
    37    30    31   ar
    38    17    18   ar
    39    18    19   ar
    40    19    20   ar
    41    10     1    1
    42    20    12    1
    43     9     3    1
    44    20    15   ar
    45    41    36   ar
    46    26    21   ar
    47    31    27   ar
    48    31    32    1
    49     2    11    1
@<TRIPOS>MOLECULE
*****
 43 49 0 0 0
SMALL
GASTEIGER

@<TRIPOS>ATOM
      1 C         -26.8049   50.4531   -9.0212 C.3     1  UNL1        0.1158
      2 N         -27.1420   51.4494   -9.8808 N.3     1  UNL1       -0.2851
      3 C         -28.2342   50.9731  -10.4951 C.3     1  UNL1        0.0910
      4 C         -28.9602   51.5917  -11.5001 C.3     1  UNL1        0.1018
      5 C         -30.0491   50.8889  -12.0341 C.3     1  UNL1        0.3136
      6 N         -30.3739   49.6287  -11.5802 N.am    1  UNL1       -0.1293
      7 C         -29.6336   49.0287  -10.5824 C.2     1  UNL1        0.4047
      8 O         -29.9140   47.8641  -10.1939 O.2     1  UNL1       -0.2174
      9 C         -28.5549   49.7371  -10.0254 C.3     1  UNL1        0.2038
     10 N         -27.6737   49.3935   -9.0558 N.3     1  UNL1       -0.2473
     11 H         -26.3927   51.6226  -10.5508 H       1  UNL1        0.1244
     12 C         -27.6291   48.1343   -8.2818 C.3     1  UNL1        0.0817
     13 C         -26.1802   47.7164   -7.9452 C.3     1  UNL1        0.0252
     14 C         -26.1271   47.4430   -6.4287 C.3     1  UNL1        0.0278
     15 C         -27.4649   47.8533   -5.9388 C.ar    1  UNL1       -0.0248
     16 C         -27.8999   47.8603   -4.6126 C.ar    1  UNL1       -0.0045
     17 C         -29.2221   48.2592   -4.3292 C.ar    1  UNL1       -0.0002
     18 C         -30.0714   48.6553   -5.3858 C.ar    1  UNL1       -0.0003
     19 C         -29.6110   48.6373   -6.7101 C.ar    1  UNL1       -0.0033
     20 C         -28.2935   48.2459   -6.9589 C.ar    1  UNL1       -0.0117
     21 C         -29.7084   48.2921   -2.9316 C.ar    1  UNL1        0.0030
     22 C         -30.6694   49.2579   -2.5855 C.ar    1  UNL1        0.0001
     23 C         -31.1054   49.3866   -1.2666 C.ar    1  UNL1        0.0000
     24 C         -30.5883   48.5540   -0.2761 C.ar    1  UNL1        0.0001
     25 C         -29.6430   47.5800   -0.6020 C.ar    1  UNL1        0.0031
     26 C         -29.1977   47.4253   -1.9280 C.ar    1  UNL1        0.0371
     27 C         -28.2531   46.3243   -2.2390 C.ar    1  UNL1        0.1806
     28 N         -28.6045   45.1290   -2.7518 N.ar    1  UNL1       -0.1084
     29 N         -27.4725   44.4452   -2.8409 N.ar    1  UNL1       -0.0229
     30 N         -26.4645   45.1810   -2.3980 N.ar    1  UNL1       -0.0464
     31 N         -26.9285   46.3556   -2.0127 N.ar    1  UNL1       -0.2388
     32 H         -26.3500   47.1354   -1.6297 H       1  UNL1        0.1923
     33 C         -24.4158   51.2415   -8.7886 C.3     1  UNL1        0.0029
     34 C         -25.6015   50.5542   -8.1145 C.3     1  UNL1        0.0326
     35 C         -31.5006   48.9157  -12.2073 C.3     1  UNL1        0.3404
     36 C         -31.0035   47.9991  -13.3060 C.ar    1  UNL1        0.0640
     37 C         -30.6167   46.6905  -12.9644 C.ar    1  UNL1        0.0031
     38 C         -30.1708   45.8006  -13.9439 C.ar    1  UNL1       -0.0001
     39 C         -30.1031   46.2040  -15.2770 C.ar    1  UNL1        0.0007
     40 C         -30.4779   47.5001  -15.6354 C.ar    1  UNL1        0.0102
     41 C         -30.9274   48.4043  -14.6622 C.ar    1  UNL1        0.0710
     42 C         -31.2909   49.7359  -15.0836 C.1     1  UNL1        0.1003
     43 N         -31.5836   50.8034  -15.4214 N.1     1  UNL1       -0.1908
@<TRIPOS>BOND
     1    33    34    1
     2    34     1    1
     3     1     2    1
     4     2     3    1
     5     3     4    1
     6     4     5    1
     7     5     6    1
     8     6    35    1
     9    35    36    1
    10    36    37   ar
    11    37    38   ar
    12    38    39   ar
    13    39    40   ar
    14    40    41   ar
    15    41    42    1
    16    42    43    3
    17     6     7    1
    18     7     8    2
    19     7     9    1
    20     9    10    1
    21    10    12    1
    22    12    13    1
    23    13    14    1
    24    14    15    1
    25    15    16   ar
    26    16    17   ar
    27    17    21    1
    28    21    22   ar
    29    22    23   ar
    30    23    24   ar
    31    24    25   ar
    32    25    26   ar
    33    26    27    1
    34    27    28   ar
    35    28    29   ar
    36    29    30   ar
    37    30    31   ar
    38    17    18   ar
    39    18    19   ar
    40    19    20   ar
    41    10     1    1
    42    20    12    1
    43     9     3    1
    44    20    15   ar
    45    41    36   ar
    46    26    21   ar
    47    31    27   ar
    48    31    32    1
    49     2    11    1
@<TRIPOS>MOLECULE
*****
 43 49 0 0 0
SMALL
GASTEIGER

@<TRIPOS>ATOM
      1 C         -30.7909   48.0116  -11.6734 C.3     1  UNL1        0.1158
      2 N         -31.0009   49.2348  -12.2253 N.3     1  UNL1       -0.2851
      3 C         -30.1256   50.0202  -11.5817 C.3     1  UNL1        0.0910
      4 C         -29.9539   51.3850  -11.7472 C.3     1  UNL1        0.1018
      5 C         -29.0052   52.0184  -10.9326 C.3     1  UNL1        0.3136
      6 N         -28.2819   51.3080   -9.9989 N.am    1  UNL1       -0.1293
      7 C         -28.4732   49.9501   -9.8465 C.2     1  UNL1        0.4047
      8 O         -27.8338   49.3113   -8.9696 O.2     1  UNL1       -0.2174
      9 C         -29.4056   49.3039  -10.6764 C.3     1  UNL1        0.2038
     10 N         -29.7891   48.0063  -10.7379 N.3     1  UNL1       -0.2473
     11 H         -31.9584   49.5479  -12.0655 H       1  UNL1        0.1244
     12 C         -29.2880   46.8775   -9.9246 C.3     1  UNL1        0.0817
     13 C         -27.7747   46.6455  -10.1323 C.3     1  UNL1        0.0252
     14 C         -27.1271   46.5936   -8.7340 C.3     1  UNL1        0.0278
     15 C         -28.2316   46.9443   -7.8092 C.ar    1  UNL1       -0.0248
     16 C         -28.1416   47.0973   -6.4248 C.ar    1  UNL1       -0.0045
     17 C         -29.3064   47.4093   -5.6946 C.ar    1  UNL1       -0.0002
     18 C         -30.5323   47.5738   -6.3764 C.ar    1  UNL1       -0.0003
     19 C         -30.5968   47.4124   -7.7677 C.ar    1  UNL1       -0.0033
     20 C         -29.4244   47.1123   -8.4650 C.ar    1  UNL1       -0.0117
     21 C         -29.2407   47.5932   -4.2274 C.ar    1  UNL1        0.0030
     22 C         -30.2004   48.4203   -3.6181 C.ar    1  UNL1        0.0001
     23 C         -30.1397   48.6926   -2.2513 C.ar    1  UNL1        0.0000
     24 C         -29.1212   48.1439   -1.4747 C.ar    1  UNL1        0.0001
     25 C         -28.1665   47.3095   -2.0585 C.ar    1  UNL1        0.0031
     26 C         -28.2153   47.0123   -3.4332 C.ar    1  UNL1        0.0371
     27 C         -27.2270   46.0573   -3.9918 C.ar    1  UNL1        0.1806
     28 N         -27.4394   44.7372   -4.1579 N.ar    1  UNL1       -0.1084
     29 N         -26.3027   44.2635   -4.6482 N.ar    1  UNL1       -0.0229
     30 N         -25.4222   45.2445   -4.7754 N.ar    1  UNL1       -0.0464
     31 N         -25.9753   46.3719   -4.3673 N.ar    1  UNL1       -0.2388
     32 H         -25.5091   47.3057   -4.3670 H       1  UNL1        0.1923
     33 C         -31.1446   46.2550  -13.4547 C.3     1  UNL1        0.0029
     34 C         -31.5840   46.7980  -12.0965 C.3     1  UNL1        0.0326
     35 C         -27.3298   52.0306   -9.1372 C.3     1  UNL1        0.3404
     36 C         -27.4745   51.5859   -7.6965 C.ar    1  UNL1        0.0640
     37 C         -28.7072   51.7923   -7.0510 C.ar    1  UNL1        0.0031
     38 C         -28.8974   51.3816   -5.7300 C.ar    1  UNL1       -0.0001
     39 C         -27.8605   50.7609   -5.0341 C.ar    1  UNL1        0.0007
     40 C         -26.6282   50.5515   -5.6556 C.ar    1  UNL1        0.0102
     41 C         -26.4231   50.9590   -6.9818 C.ar    1  UNL1        0.0710
     42 C         -25.1267   50.7302   -7.5735 C.1     1  UNL1        0.1003
     43 N         -24.0871   50.5480   -8.0481 N.1     1  UNL1       -0.1908
@<TRIPOS>BOND
     1    33    34    1
     2    34     1    1
     3     1     2    1
     4     2     3    1
     5     3     4    1
     6     4     5    1
     7     5     6    1
     8     6    35    1
     9    35    36    1
    10    36    37   ar
    11    37    38   ar
    12    38    39   ar
    13    39    40   ar
    14    40    41   ar
    15    41    42    1
    16    42    43    3
    17     6     7    1
    18     7     8    2
    19     7     9    1
    20     9    10    1
    21    10    12    1
    22    12    13    1
    23    13    14    1
    24    14    15    1
    25    15    16   ar
    26    16    17   ar
    27    17    21    1
    28    21    22   ar
    29    22    23   ar
    30    23    24   ar
    31    24    25   ar
    32    25    26   ar
    33    26    27    1
    34    27    28   ar
    35    28    29   ar
    36    29    30   ar
    37    30    31   ar
    38    17    18   ar
    39    18    19   ar
    40    19    20   ar
    41    10     1    1
    42    20    12    1
    43     9     3    1
    44    20    15   ar
    45    41    36   ar
    46    26    21   ar
    47    31    27   ar
    48    31    32    1
    49     2    11    1
@<TRIPOS>MOLECULE
*****
 43 49 0 0 0
SMALL
GASTEIGER

@<TRIPOS>ATOM
      1 C         -30.4317   48.7094   -6.8976 C.3     1  UNL1        0.1158
      2 N         -31.4053   49.2336   -6.1087 N.3     1  UNL1       -0.2851
      3 C         -30.9083   49.0984   -4.8710 C.3     1  UNL1        0.0910
      4 C         -31.5278   49.4493   -3.6825 C.3     1  UNL1        0.1018
      5 C         -30.8394   49.1767   -2.4922 C.3     1  UNL1        0.3136
      6 N         -29.6000   48.5742   -2.5095 N.am    1  UNL1       -0.1293
      7 C         -29.0037   48.2276   -3.7045 C.2     1  UNL1        0.4047
      8 O         -27.8859   47.6476   -3.7138 O.2     1  UNL1       -0.2174
      9 C         -29.6774   48.5196   -4.9030 C.3     1  UNL1        0.2038
     10 N         -29.3334   48.2900   -6.1928 N.3     1  UNL1       -0.2473
     11 H         -32.2770   48.7139   -6.2108 H       1  UNL1        0.1244
     12 C         -28.0934   47.6624   -6.6983 C.3     1  UNL1        0.0817
     13 C         -28.3610   46.7698   -7.9306 C.3     1  UNL1        0.0252
     14 C         -27.3648   47.1982   -9.0266 C.3     1  UNL1        0.0278
     15 C         -26.6891   48.3890   -8.4576 C.ar    1  UNL1       -0.0248
     16 C         -25.7377   49.1891   -9.0921 C.ar    1  UNL1       -0.0045
     17 C         -25.1772   50.2737   -8.3872 C.ar    1  UNL1       -0.0002
     18 C         -25.5976   50.5363   -7.0647 C.ar    1  UNL1       -0.0003
     19 C         -26.5534   49.7160   -6.4487 C.ar    1  UNL1       -0.0033
     20 C         -27.0973   48.6544   -7.1754 C.ar    1  UNL1       -0.0117
     21 C         -24.1774   51.1500   -9.0378 C.ar    1  UNL1        0.0030
     22 C         -22.9032   51.2523   -8.4527 C.ar    1  UNL1        0.0001
     23 C         -21.9476   52.1229   -8.9772 C.ar    1  UNL1        0.0000
     24 C         -22.2506   52.9026  -10.0916 C.ar    1  UNL1        0.0001
     25 C         -23.5056   52.8056  -10.6949 C.ar    1  UNL1        0.0031
     26 C         -24.4805   51.9257  -10.1893 C.ar    1  UNL1        0.0371
     27 C         -25.7700   51.7988  -10.9119 C.ar    1  UNL1        0.1806
     28 N         -26.9827   52.0240  -10.3700 N.ar    1  UNL1       -0.1084
     29 N         -27.8479   51.7683  -11.3411 N.ar    1  UNL1       -0.0229
     30 N         -27.2014   51.3955  -12.4351 N.ar    1  UNL1       -0.0464
     31 N         -25.9041   51.4026  -12.1893 N.ar    1  UNL1       -0.2388
     32 H         -25.1593   51.1596  -12.8790 H       1  UNL1        0.1923
     33 C         -30.2402   49.9663   -9.0811 C.3     1  UNL1        0.0029
     34 C         -30.5722   48.6403   -8.3997 C.3     1  UNL1        0.0326
     35 C         -28.9399   48.2691   -1.2280 C.3     1  UNL1        0.3404
     36 C         -29.8490   47.4369   -0.3474 C.ar    1  UNL1        0.0640
     37 C         -30.4224   48.0412    0.7861 C.ar    1  UNL1        0.0031
     38 C         -31.2834   47.3225    1.6181 C.ar    1  UNL1       -0.0001
     39 C         -31.5830   45.9909    1.3321 C.ar    1  UNL1        0.0007
     40 C         -31.0201   45.3719    0.2146 C.ar    1  UNL1        0.0102
     41 C         -30.1537   46.0816   -0.6295 C.ar    1  UNL1        0.0710
     42 C         -29.5891   45.3914   -1.7644 C.1     1  UNL1        0.1003
     43 N         -29.1370   44.8370   -2.6740 N.1     1  UNL1       -0.1908
@<TRIPOS>BOND
     1    33    34    1
     2    34     1    1
     3     1     2    1
     4     2     3    1
     5     3     4    1
     6     4     5    1
     7     5     6    1
     8     6    35    1
     9    35    36    1
    10    36    37   ar
    11    37    38   ar
    12    38    39   ar
    13    39    40   ar
    14    40    41   ar
    15    41    42    1
    16    42    43    3
    17     6     7    1
    18     7     8    2
    19     7     9    1
    20     9    10    1
    21    10    12    1
    22    12    13    1
    23    13    14    1
    24    14    15    1
    25    15    16   ar
    26    16    17   ar
    27    17    21    1
    28    21    22   ar
    29    22    23   ar
    30    23    24   ar
    31    24    25   ar
    32    25    26   ar
    33    26    27    1
    34    27    28   ar
    35    28    29   ar
    36    29    30   ar
    37    30    31   ar
    38    17    18   ar
    39    18    19   ar
    40    19    20   ar
    41    10     1    1
    42    20    12    1
    43     9     3    1
    44    20    15   ar
    45    41    36   ar
    46    26    21   ar
    47    31    27   ar
    48    31    32    1
    49     2    11    1
@<TRIPOS>MOLECULE
*****
 43 49 0 0 0
SMALL
GASTEIGER

@<TRIPOS>ATOM
      1 C         -24.9003   51.5018   -9.9904 C.3     1  UNL1        0.1158
      2 N         -25.2408   51.5152  -11.3053 N.3     1  UNL1       -0.2851
      3 C         -26.5502   51.2279  -11.2898 C.3     1  UNL1        0.0910
      4 C         -27.3836   51.0838  -12.3871 C.3     1  UNL1        0.1018
      5 C         -28.7188   50.7355  -12.1406 C.3     1  UNL1        0.3136
      6 N         -29.1762   50.5360  -10.8559 N.am    1  UNL1       -0.1293
      7 C         -28.3274   50.6790   -9.7776 C.2     1  UNL1        0.4047
      8 O         -28.7416   50.4636   -8.6080 O.2     1  UNL1       -0.2174
      9 C         -26.9931   51.0515  -10.0155 C.3     1  UNL1        0.2038
     10 N         -25.9625   51.2541   -9.1602 N.3     1  UNL1       -0.2473
     11 H         -24.7184   50.8098  -11.8248 H       1  UNL1        0.1244
     12 C         -25.9802   51.1514   -7.6851 C.3     1  UNL1        0.0817
     13 C         -26.9689   52.1545   -7.0501 C.3     1  UNL1        0.0252
     14 C         -27.8690   51.3563   -6.0858 C.3     1  UNL1        0.0278
     15 C         -27.4814   49.9434   -6.3131 C.ar    1  UNL1       -0.0248
     16 C         -28.0553   48.8170   -5.7216 C.ar    1  UNL1       -0.0045
     17 C         -27.5404   47.5428   -6.0359 C.ar    1  UNL1       -0.0002
     18 C         -26.4688   47.4309   -6.9491 C.ar    1  UNL1       -0.0003
     19 C         -25.9081   48.5782   -7.5280 C.ar    1  UNL1       -0.0033
     20 C         -26.4454   49.8261   -7.2042 C.ar    1  UNL1       -0.0117
     21 C         -28.1375   46.3280   -5.4371 C.ar    1  UNL1        0.0030
     22 C         -29.2865   45.7867   -6.0396 C.ar    1  UNL1        0.0001
     23 C         -29.9370   44.6903   -5.4733 C.ar    1  UNL1        0.0000
     24 C         -29.4501   44.1199   -4.2989 C.ar    1  UNL1        0.0001
     25 C         -28.3029   44.6346   -3.6926 C.ar    1  UNL1        0.0031
     26 C         -27.6245   45.7328   -4.2530 C.ar    1  UNL1        0.0371
     27 C         -26.3655   46.1931   -3.6173 C.ar    1  UNL1        0.1806
     28 N         -26.2520   47.2814   -2.8313 N.ar    1  UNL1       -0.1084
     29 N         -24.9679   47.3415   -2.5079 N.ar    1  UNL1       -0.0229
     30 N         -24.3128   46.3387   -3.0725 N.ar    1  UNL1       -0.0464
     31 N         -25.1637   45.6119   -3.7735 N.ar    1  UNL1       -0.2388
     32 H         -24.9191   44.7535   -4.3145 H       1  UNL1        0.1923
     33 C         -22.4954   51.8376  -10.6887 C.3     1  UNL1        0.0029
     34 C         -23.4868   51.7667   -9.5291 C.3     1  UNL1        0.0326
     35 C         -30.5775   50.1272  -10.6557 C.3     1  UNL1        0.3404
     36 C         -30.6939   48.6169  -10.6463 C.ar    1  UNL1        0.0640
     37 C         -30.4212   47.9304   -9.4492 C.ar    1  UNL1        0.0031
     38 C         -30.5341   46.5400   -9.3835 C.ar    1  UNL1       -0.0001
     39 C         -30.9189   45.8153  -10.5110 C.ar    1  UNL1        0.0007
     40 C         -31.1892   46.4779  -11.7096 C.ar    1  UNL1        0.0102
     41 C         -31.0797   47.8738  -11.7900 C.ar    1  UNL1        0.0710
     42 C         -31.3581   48.5086  -13.0559 C.1     1  UNL1        0.1003
     43 N         -31.5802   49.0173  -14.0713 N.1     1  UNL1       -0.1908
@<TRIPOS>BOND
     1    33    34    1
     2    34     1    1
     3     1     2    1
     4     2     3    1
     5     3     4    1
     6     4     5    1
     7     5     6    1
     8     6    35    1
     9    35    36    1
    10    36    37   ar
    11    37    38   ar
    12    38    39   ar
    13    39    40   ar
    14    40    41   ar
    15    41    42    1
    16    42    43    3
    17     6     7    1
    18     7     8    2
    19     7     9    1
    20     9    10    1
    21    10    12    1
    22    12    13    1
    23    13    14    1
    24    14    15    1
    25    15    16   ar
    26    16    17   ar
    27    17    21    1
    28    21    22   ar
    29    22    23   ar
    30    23    24   ar
    31    24    25   ar
    32    25    26   ar
    33    26    27    1
    34    27    28   ar
    35    28    29   ar
    36    29    30   ar
    37    30    31   ar
    38    17    18   ar
    39    18    19   ar
    40    19    20   ar
    41    10     1    1
    42    20    12    1
    43     9     3    1
    44    20    15   ar
    45    41    36   ar
    46    26    21   ar
    47    31    27   ar
    48    31    32    1
    49     2    11    1
@<TRIPOS>MOLECULE
*****
 43 49 0 0 0
SMALL
GASTEIGER

@<TRIPOS>ATOM
      1 C         -30.6484   49.5627   -3.9700 C.3     1  UNL1        0.1158
      2 N         -31.4889   50.1593   -3.0852 N.3     1  UNL1       -0.2851
      3 C         -31.0410   49.7330   -1.8958 C.3     1  UNL1        0.0910
      4 C         -31.5762   50.0250   -0.6517 C.3     1  UNL1        0.1018
      5 C         -30.9714   49.4318    0.4652 C.3     1  UNL1        0.3136
      6 N         -29.8933   48.5848    0.3241 N.am    1  UNL1       -0.1293
      7 C         -29.3799   48.3029   -0.9252 C.2     1  UNL1        0.4047
      8 O         -28.4157   47.5028   -1.0518 O.2     1  UNL1       -0.2174
      9 C         -29.9661   48.9128   -2.0477 C.3     1  UNL1        0.2038
     10 N         -29.6727   48.8130   -3.3662 N.3     1  UNL1       -0.2473
     11 H         -32.4524   49.8627   -3.2401 H       1  UNL1        0.1244
     12 C         -28.5967   48.0158   -3.9936 C.3     1  UNL1        0.0817
     13 C         -29.1608   46.8589   -4.8482 C.3     1  UNL1        0.0252
     14 C         -28.4893   46.9481   -6.2332 C.3     1  UNL1        0.0278
     15 C         -27.7075   48.2066   -6.1772 C.ar    1  UNL1       -0.0248
     16 C         -26.9653   48.7727   -7.2148 C.ar    1  UNL1       -0.0045
     17 C         -26.2578   49.9684   -6.9756 C.ar    1  UNL1       -0.0002
     18 C         -26.3251   50.5741   -5.7016 C.ar    1  UNL1       -0.0003
     19 C         -27.0760   49.9841   -4.6750 C.ar    1  UNL1       -0.0033
     20 C         -27.7734   48.8044   -4.9446 C.ar    1  UNL1       -0.0117
     21 C         -25.4742   50.6016   -8.0600 C.ar    1  UNL1        0.0030
     22 C         -24.0927   50.7758   -7.8664 C.ar    1  UNL1        0.0001
     23 C         -23.3187   51.4370   -8.8203 C.ar    1  UNL1        0.0000
     24 C         -23.9125   51.9331   -9.9791 C.ar    1  UNL1        0.0001
     25 C         -25.2804   51.7585  -10.1960 C.ar    1  UNL1        0.0031
     26 C         -26.0778   51.0847   -9.2524 C.ar    1  UNL1        0.0371
     27 C         -27.5097   50.8536   -9.5642 C.ar    1  UNL1        0.1806
     28 N         -27.9882   49.7987  -10.2523 N.ar    1  UNL1       -0.1084
     29 N         -29.2961   50.0003  -10.3283 N.ar    1  UNL1       -0.0229
     30 N         -29.6144   51.1325   -9.7195 N.ar    1  UNL1       -0.0464
     31 N         -28.5151   51.6844   -9.2395 N.ar    1  UNL1       -0.2388
     32 H         -28.4751   52.5796   -8.7044 H       1  UNL1        0.1923
     33 C         -31.3443   51.1316   -5.8242 C.3     1  UNL1        0.0029
     34 C         -30.7915   49.7549   -5.4611 C.3     1  UNL1        0.0326
     35 C         -29.3237   47.9526    1.5269 C.3     1  UNL1        0.3404
     36 C         -30.0186   48.4606    2.7734 C.ar    1  UNL1        0.0640
     37 C         -29.7268   49.7617    3.2213 C.ar    1  UNL1        0.0031
     38 C         -30.3563   50.2836    4.3533 C.ar    1  UNL1       -0.0001
     39 C         -31.2840   49.5145    5.0550 C.ar    1  UNL1        0.0007
     40 C         -31.5835   48.2193    4.6292 C.ar    1  UNL1        0.0102
     41 C         -30.9588   47.6824    3.4942 C.ar    1  UNL1        0.0710
     42 C         -31.2947   46.3341    3.1037 C.1     1  UNL1        0.1003
     43 N         -31.5629   45.2526    2.7911 N.1     1  UNL1       -0.1908
@<TRIPOS>BOND
     1    33    34    1
     2    34     1    1
     3     1     2    1
     4     2     3    1
     5     3     4    1
     6     4     5    1
     7     5     6    1
     8     6    35    1
     9    35    36    1
    10    36    37   ar
    11    37    38   ar
    12    38    39   ar
    13    39    40   ar
    14    40    41   ar
    15    41    42    1
    16    42    43    3
    17     6     7    1
    18     7     8    2
    19     7     9    1
    20     9    10    1
    21    10    12    1
    22    12    13    1
    23    13    14    1
    24    14    15    1
    25    15    16   ar
    26    16    17   ar
    27    17    21    1
    28    21    22   ar
    29    22    23   ar
    30    23    24   ar
    31    24    25   ar
    32    25    26   ar
    33    26    27    1
    34    27    28   ar
    35    28    29   ar
    36    29    30   ar
    37    30    31   ar
    38    17    18   ar
    39    18    19   ar
    40    19    20   ar
    41    10     1    1
    42    20    12    1
    43     9     3    1
    44    20    15   ar
    45    41    36   ar
    46    26    21   ar
    47    31    27   ar
    48    31    32    1
    49     2    11    1
