@<TRIPOS>MOLECULE
*****
 55 62 0 0 0
SMALL
GASTEIGER

@<TRIPOS>ATOM
      1 C          62.3780   83.7111   14.5036 C.ar    1  UNL1        0.0481
      2 C          62.1768   82.3261   14.5773 C.ar    1  UNL1        0.0176
      3 C          62.6832   81.4860   13.5799 C.ar    1  UNL1        0.0382
      4 C          63.3824   82.0168   12.4885 C.ar    1  UNL1        0.1388
      5 C          63.6031   83.4061   12.4289 C.ar    1  UNL1        0.0382
      6 C          63.0926   84.2432   13.4201 C.ar    1  UNL1        0.0176
      7 N          61.9866   87.2185   15.2985 N.pl3   1  UNL1       -0.3041
      8 C          60.7896   86.6433   14.6592 C.3     1  UNL1        0.1122
      9 C          60.5144   85.2283   15.1876 C.3     1  UNL1        0.1122
     10 N          61.7948   84.5808   15.4897 N.pl3   1  UNL1       -0.3041
     11 C          62.6332   85.1855   16.5394 C.3     1  UNL1        0.1122
     12 C          62.4050   86.7061   16.6127 C.3     1  UNL1        0.1122
     13 C          64.5781   89.7941   13.1047 C.ar    1  UNL1        0.0699
     14 C          64.4339   89.9453   14.4931 C.ar    1  UNL1        0.0190
     15 C          63.5523   89.1312   15.2080 C.ar    1  UNL1        0.0160
     16 C          62.8165   88.1302   14.5523 C.ar    1  UNL1        0.0480
     17 C          62.9564   87.9815   13.1641 C.ar    1  UNL1        0.0160
     18 C          63.8168   88.8145   12.4452 C.ar    1  UNL1        0.0190
     19 N          66.5589   91.7816   10.8045 N.ar    1  UNL1       -0.2024
     20 N          67.3352   91.8139   11.8785 N.ar    1  UNL1       -0.1442
     21 C          66.6929   91.1078   12.8340 C.ar    1  UNL1        0.2073
     22 N          65.5189   90.6108   12.3821 N.ar    1  UNL1       -0.2398
     23 C          65.4717   91.0503   11.1093 C.ar    1  UNL1        0.3522
     24 O          64.5241   90.8245   10.3090 O.2     1  UNL1       -0.2444
     25 C          66.8896   92.3773    9.5041 C.3     1  UNL1        0.1099
     26 C          66.4533   93.8474    9.4422 C.3     1  UNL1        0.0265
     27 C          68.7333   90.7858    8.6386 C.3     1  UNL1        0.0021
     28 C          68.3834   92.1791    9.1680 C.3     1  UNL1        0.0245
     29 O          63.8294   81.1357   11.4891 O.3     1  UNL1       -0.4727
     30 C          63.0541   80.6852   10.3753 C.3     1  UNL1        0.2374
     31 C          61.5932   81.1443   10.5047 C.3     1  UNL1        0.1909
     32 C          60.6341   80.2467    9.7720 C.3     1  UNL1        0.1783
     33 O          59.6875   81.0819    9.1787 O.3     1  UNL1       -0.3266
     34 C          60.0925   82.4110    9.4423 C.3     1  UNL1        0.2315
     35 O          61.4125   82.4041    9.9441 O.3     1  UNL1       -0.3254
     36 C          59.1647   83.0702   10.4718 C.ar    1  UNL1        0.0410
     37 C          59.7121   83.4678   11.7136 C.ar    1  UNL1        0.0022
     38 C          58.9326   84.1169   12.6714 C.ar    1  UNL1        0.0113
     39 C          57.5932   84.3960   12.4110 C.ar    1  UNL1        0.0585
     40 CL         56.6192   85.2225   13.6130 Cl      1  UNL1       -0.0822
     41 C          57.0311   84.0282   11.1887 C.ar    1  UNL1        0.0226
     42 C          57.7984   83.3758   10.2148 C.ar    1  UNL1        0.0591
     43 CL         56.9800   82.9935    8.7027 Cl      1  UNL1       -0.0824
     44 C          60.1036   83.2274    8.1240 C.3     1  UNL1        0.1914
     45 N          61.4248   83.7887    7.8193 N.ar    1  UNL1       -0.2079
     46 N          62.3812   83.0858    7.2353 N.ar    1  UNL1       -0.0427
     47 N          63.5070   83.7800    7.2530 N.ar    1  UNL1       -0.0227
     48 N          63.3126   84.9353    7.8693 N.ar    1  UNL1       -0.1081
     49 C          62.0129   84.9408    8.2270 C.ar    1  UNL1        0.1840
     50 C          61.4130   86.0439    9.0169 C.ar    1  UNL1        0.0374
     51 C          61.3795   86.0254   10.4205 C.ar    1  UNL1        0.0031
     52 C          60.7622   87.0585   11.1321 C.ar    1  UNL1        0.0001
     53 C          60.1413   88.1055   10.4487 C.ar    1  UNL1        0.0000
     54 C          60.1293   88.1143    9.0529 C.ar    1  UNL1        0.0001
     55 C          60.7610   87.0908    8.3415 C.ar    1  UNL1        0.0031
@<TRIPOS>BOND
     1    27    28    1
     2    28    25    1
     3    25    26    1
     4    25    19    1
     5    19    20   ar
     6    20    21   ar
     7    21    22   ar
     8    22    13    1
     9    13    14   ar
    10    14    15   ar
    11    15    16   ar
    12    16     7    1
    13     7     8    1
    14     8     9    1
    15     9    10    1
    16    10     1    1
    17     1     2   ar
    18     2     3   ar
    19     3     4   ar
    20     4    29    1
    21    29    30    1
    22    30    31    1
    23    31    32    1
    24    32    33    1
    25    33    34    1
    26    34    44    1
    27    44    45    1
    28    45    46   ar
    29    46    47   ar
    30    47    48   ar
    31    48    49   ar
    32    49    50    1
    33    50    51   ar
    34    51    52   ar
    35    52    53   ar
    36    53    54   ar
    37    54    55   ar
    38    34    36    1
    39    36    37   ar
    40    37    38   ar
    41    38    39   ar
    42    39    40    1
    43    39    41   ar
    44    41    42   ar
    45    42    43    1
    46    34    35    1
    47     4     5   ar
    48     5     6   ar
    49    10    11    1
    50    11    12    1
    51    16    17   ar
    52    17    18   ar
    53    22    23   ar
    54    23    24    2
    55    23    19   ar
    56    18    13   ar
    57    12     7    1
    58     6     1   ar
    59    35    31    1
    60    49    45   ar
    61    55    50   ar
    62    42    36   ar
@<TRIPOS>MOLECULE
*****
 55 62 0 0 0
SMALL
GASTEIGER

@<TRIPOS>ATOM
      1 C          58.2175   81.7071    9.7856 C.ar    1  UNL1        0.0481
      2 C          58.1673   82.3790   11.0146 C.ar    1  UNL1        0.0176
      3 C          58.2725   81.6653   12.2131 C.ar    1  UNL1        0.0382
      4 C          58.4128   80.2717   12.2025 C.ar    1  UNL1        0.1388
      5 C          58.4861   79.6019   10.9662 C.ar    1  UNL1        0.0382
      6 C          58.3748   80.3134    9.7724 C.ar    1  UNL1        0.0176
      7 N          59.4357   84.6183    8.0171 N.pl3   1  UNL1       -0.3041
      8 C          60.0480   83.3655    7.5397 C.3     1  UNL1        0.1122
      9 C          59.0074   82.2384    7.4755 C.3     1  UNL1        0.1122
     10 N          58.0358   82.4319    8.5566 N.pl3   1  UNL1       -0.3041
     11 C          57.2202   83.6584    8.5281 C.3     1  UNL1        0.1122
     12 C          57.9863   84.8086    7.8502 C.3     1  UNL1        0.1122
     13 C          61.8676   87.2034   10.3761 C.ar    1  UNL1        0.0699
     14 C          60.6193   86.7714   10.8519 C.ar    1  UNL1        0.0190
     15 C          59.8011   85.9596   10.0628 C.ar    1  UNL1        0.0160
     16 C          60.2270   85.5407    8.7915 C.ar    1  UNL1        0.0480
     17 C          61.4722   85.9758    8.3131 C.ar    1  UNL1        0.0160
     18 C          62.2778   86.8107    9.0909 C.ar    1  UNL1        0.0190
     19 N          64.0870   89.5851   11.9780 N.ar    1  UNL1       -0.2024
     20 N          63.9099   88.7204   12.9670 N.ar    1  UNL1       -0.1442
     21 C          63.0735   87.7700   12.4965 C.ar    1  UNL1        0.2073
     22 N          62.7216   88.0070   11.2122 N.ar    1  UNL1       -0.2398
     23 C          63.3773   89.1479   10.9222 C.ar    1  UNL1        0.3522
     24 O          63.3208   89.7434    9.8125 O.2     1  UNL1       -0.2444
     25 C          64.9699   90.7571   12.0277 C.3     1  UNL1        0.1099
     26 C          65.6972   90.8447   13.3762 C.3     1  UNL1        0.0265
     27 C          66.3001   92.1765   10.3256 C.3     1  UNL1        0.0021
     28 C          65.9345   90.7752   10.8223 C.3     1  UNL1        0.0245
     29 O          58.4663   79.5964   13.4338 O.3     1  UNL1       -0.4727
     30 C          59.6622   79.2533   14.1386 C.3     1  UNL1        0.2374
     31 C          60.8926   79.8828   13.4666 C.3     1  UNL1        0.1909
     32 C          62.1821   79.2336   13.8887 C.3     1  UNL1        0.1783
     33 O          63.1108   80.2633   14.0396 O.3     1  UNL1       -0.3266
     34 C          62.4156   81.4758   13.8242 C.3     1  UNL1        0.2315
     35 O          61.0266   81.2211   13.8201 O.3     1  UNL1       -0.3254
     36 C          62.8173   82.1044   12.4829 C.ar    1  UNL1        0.0410
     37 C          63.8984   81.5358   11.7703 C.ar    1  UNL1        0.0022
     38 C          64.2802   82.0297   10.5228 C.ar    1  UNL1        0.0113
     39 C          63.5875   83.0937    9.9499 C.ar    1  UNL1        0.0585
     40 CL         64.0630   83.7047    8.3761 Cl      1  UNL1       -0.0822
     41 C          62.5079   83.6641   10.6241 C.ar    1  UNL1        0.0226
     42 C          62.1101   83.1812   11.8777 C.ar    1  UNL1        0.0591
     43 CL         60.7135   83.9662   12.6095 Cl      1  UNL1       -0.0824
     44 C          62.7017   82.4588   14.9888 C.3     1  UNL1        0.1914
     45 N          63.8857   83.2912   14.7464 N.ar    1  UNL1       -0.2079
     46 N          65.0874   82.7790   14.5382 N.ar    1  UNL1       -0.0427
     47 N          65.9829   83.7525   14.5338 N.ar    1  UNL1       -0.0227
     48 N          65.3869   84.9120   14.7632 N.ar    1  UNL1       -0.1081
     49 C          64.0769   84.6250   14.9000 C.ar    1  UNL1        0.1840
     50 C          63.0710   85.6591   15.2460 C.ar    1  UNL1        0.0374
     51 C          61.7163   85.5291   14.9001 C.ar    1  UNL1        0.0031
     52 C          60.8041   86.5457   15.1985 C.ar    1  UNL1        0.0001
     53 C          61.2409   87.7191   15.8158 C.ar    1  UNL1        0.0000
     54 C          62.5923   87.8799   16.1261 C.ar    1  UNL1        0.0001
     55 C          63.5014   86.8569   15.8436 C.ar    1  UNL1        0.0031
@<TRIPOS>BOND
     1    27    28    1
     2    28    25    1
     3    25    26    1
     4    25    19    1
     5    19    20   ar
     6    20    21   ar
     7    21    22   ar
     8    22    13    1
     9    13    14   ar
    10    14    15   ar
    11    15    16   ar
    12    16     7    1
    13     7     8    1
    14     8     9    1
    15     9    10    1
    16    10     1    1
    17     1     2   ar
    18     2     3   ar
    19     3     4   ar
    20     4    29    1
    21    29    30    1
    22    30    31    1
    23    31    32    1
    24    32    33    1
    25    33    34    1
    26    34    44    1
    27    44    45    1
    28    45    46   ar
    29    46    47   ar
    30    47    48   ar
    31    48    49   ar
    32    49    50    1
    33    50    51   ar
    34    51    52   ar
    35    52    53   ar
    36    53    54   ar
    37    54    55   ar
    38    34    36    1
    39    36    37   ar
    40    37    38   ar
    41    38    39   ar
    42    39    40    1
    43    39    41   ar
    44    41    42   ar
    45    42    43    1
    46    34    35    1
    47     4     5   ar
    48     5     6   ar
    49    10    11    1
    50    11    12    1
    51    16    17   ar
    52    17    18   ar
    53    22    23   ar
    54    23    24    2
    55    23    19   ar
    56    18    13   ar
    57    12     7    1
    58     6     1   ar
    59    35    31    1
    60    49    45   ar
    61    55    50   ar
    62    42    36   ar
@<TRIPOS>MOLECULE
*****
 55 62 0 0 0
SMALL
GASTEIGER

@<TRIPOS>ATOM
      1 C          62.2201   83.7724   13.9733 C.ar    1  UNL1        0.0481
      2 C          62.2604   84.2972   12.6744 C.ar    1  UNL1        0.0176
      3 C          62.8790   83.5817   11.6437 C.ar    1  UNL1        0.0382
      4 C          63.4792   82.3419   11.8977 C.ar    1  UNL1        0.1388
      5 C          63.4170   81.8064   13.1984 C.ar    1  UNL1        0.0382
      6 C          62.8058   82.5232   14.2263 C.ar    1  UNL1        0.0176
      7 N          61.8170   87.1863   15.0999 N.pl3   1  UNL1       -0.3041
      8 C          60.6125   86.6622   14.4316 C.3     1  UNL1        0.1122
      9 C          60.3583   85.2014   14.8303 C.3     1  UNL1        0.1122
     10 N          61.6492   84.5406   15.0470 N.pl3   1  UNL1       -0.3041
     11 C          62.5028   85.0525   16.1331 C.3     1  UNL1        0.1122
     12 C          62.2644   86.5574   16.3525 C.3     1  UNL1        0.1122
     13 C          64.3406   89.9744   13.0948 C.ar    1  UNL1        0.0699
     14 C          64.3095   89.9246   14.4975 C.ar    1  UNL1        0.0190
     15 C          63.4512   89.0421   15.1577 C.ar    1  UNL1        0.0160
     16 C          62.6255   88.1715   14.4272 C.ar    1  UNL1        0.0480
     17 C          62.6524   88.2239   13.0253 C.ar    1  UNL1        0.0160
     18 C          63.4900   89.1263   12.3657 C.ar    1  UNL1        0.0190
     19 N          66.4292   91.9474   10.8790 N.ar    1  UNL1       -0.2024
     20 N          66.8592   92.3757   12.0575 N.ar    1  UNL1       -0.1442
     21 C          66.1370   91.7159   12.9889 C.ar    1  UNL1        0.2073
     22 N          65.2573   90.8588   12.4226 N.ar    1  UNL1       -0.2398
     23 C          65.4718   91.0295   11.1034 C.ar    1  UNL1        0.3522
     24 O          64.8453   90.4238   10.1923 O.2     1  UNL1       -0.2444
     25 C          66.9750   92.3586    9.5796 C.3     1  UNL1        0.1099
     26 C          66.7142   93.8478    9.3165 C.3     1  UNL1        0.0265
     27 C          68.7485   90.8063    8.5183 C.3     1  UNL1        0.0021
     28 C          68.4669   91.9795    9.4607 C.3     1  UNL1        0.0245
     29 O          64.1291   81.6851   10.8389 O.3     1  UNL1       -0.4727
     30 C          63.4830   80.9224    9.8164 C.3     1  UNL1        0.2374
     31 C          62.2064   80.2573   10.3548 C.3     1  UNL1        0.1909
     32 C          61.6285   79.2491    9.3999 C.3     1  UNL1        0.1783
     33 O          60.2436   79.4074    9.4500 O.3     1  UNL1       -0.3266
     34 C          59.9884   80.5073   10.3015 C.3     1  UNL1        0.2315
     35 O          61.1972   81.1941   10.5491 O.3     1  UNL1       -0.3254
     36 C          59.3923   80.0379   11.6356 C.ar    1  UNL1        0.0410
     37 C          59.3030   78.6480   11.8807 C.ar    1  UNL1        0.0022
     38 C          58.8172   78.1586   13.0933 C.ar    1  UNL1        0.0113
     39 C          58.4198   79.0411   14.0950 C.ar    1  UNL1        0.0585
     40 CL         57.8203   78.4222   15.6227 Cl      1  UNL1       -0.0822
     41 C          58.5109   80.4171   13.8857 C.ar    1  UNL1        0.0226
     42 C          58.9964   80.9269   12.6744 C.ar    1  UNL1        0.0591
     43 CL         59.0913   82.6810   12.5475 Cl      1  UNL1       -0.0824
     44 C          59.0271   81.5018    9.6004 C.3     1  UNL1        0.1914
     45 N          59.3024   81.6355    8.1651 N.ar    1  UNL1       -0.2079
     46 N          58.9293   80.7265    7.2794 N.ar    1  UNL1       -0.0427
     47 N          59.4652   81.0146    6.1050 N.ar    1  UNL1       -0.0227
     48 N          60.2160   82.0999    6.2080 N.ar    1  UNL1       -0.1081
     49 C          60.1183   82.4870    7.4955 C.ar    1  UNL1        0.1840
     50 C          60.8841   83.6360    8.0379 C.ar    1  UNL1        0.0374
     51 C          60.2729   84.6550    8.7860 C.ar    1  UNL1        0.0031
     52 C          61.0156   85.7489    9.2401 C.ar    1  UNL1        0.0001
     53 C          62.3711   85.8547    8.9233 C.ar    1  UNL1        0.0000
     54 C          62.9816   84.8708    8.1437 C.ar    1  UNL1        0.0001
     55 C          62.2435   83.7687    7.7041 C.ar    1  UNL1        0.0031
@<TRIPOS>BOND
     1    27    28    1
     2    28    25    1
     3    25    26    1
     4    25    19    1
     5    19    20   ar
     6    20    21   ar
     7    21    22   ar
     8    22    13    1
     9    13    14   ar
    10    14    15   ar
    11    15    16   ar
    12    16     7    1
    13     7     8    1
    14     8     9    1
    15     9    10    1
    16    10     1    1
    17     1     2   ar
    18     2     3   ar
    19     3     4   ar
    20     4    29    1
    21    29    30    1
    22    30    31    1
    23    31    32    1
    24    32    33    1
    25    33    34    1
    26    34    44    1
    27    44    45    1
    28    45    46   ar
    29    46    47   ar
    30    47    48   ar
    31    48    49   ar
    32    49    50    1
    33    50    51   ar
    34    51    52   ar
    35    52    53   ar
    36    53    54   ar
    37    54    55   ar
    38    34    36    1
    39    36    37   ar
    40    37    38   ar
    41    38    39   ar
    42    39    40    1
    43    39    41   ar
    44    41    42   ar
    45    42    43    1
    46    34    35    1
    47     4     5   ar
    48     5     6   ar
    49    10    11    1
    50    11    12    1
    51    16    17   ar
    52    17    18   ar
    53    22    23   ar
    54    23    24    2
    55    23    19   ar
    56    18    13   ar
    57    12     7    1
    58     6     1   ar
    59    35    31    1
    60    49    45   ar
    61    55    50   ar
    62    42    36   ar
@<TRIPOS>MOLECULE
*****
 55 62 0 0 0
SMALL
GASTEIGER

@<TRIPOS>ATOM
      1 C          58.9239   85.2501   12.8705 C.ar    1  UNL1        0.0481
      2 C          59.5129   86.1423   11.9641 C.ar    1  UNL1        0.0176
      3 C          59.2691   86.0171   10.5923 C.ar    1  UNL1        0.0382
      4 C          58.4486   84.9918   10.1050 C.ar    1  UNL1        0.1388
      5 C          57.8398   84.1112   11.0196 C.ar    1  UNL1        0.0382
      6 C          58.0884   84.2329   12.3860 C.ar    1  UNL1        0.0176
      7 N          61.0908   86.9904   15.1862 N.pl3   1  UNL1       -0.3041
      8 C          59.7314   87.5582   15.1434 C.3     1  UNL1        0.1122
      9 C          58.6772   86.4458   15.0505 C.3     1  UNL1        0.1122
     10 N          59.2328   85.3338   14.2728 N.pl3   1  UNL1       -0.3041
     11 C          60.4157   84.6453   14.8178 C.3     1  UNL1        0.1122
     12 C          61.2687   85.6095   15.6618 C.3     1  UNL1        0.1122
     13 C          64.2014   89.3015   13.4128 C.ar    1  UNL1        0.0699
     14 C          63.4818   88.3710   12.6464 C.ar    1  UNL1        0.0190
     15 C          62.4915   87.5810   13.2350 C.ar    1  UNL1        0.0160
     16 C          62.1818   87.7252   14.5975 C.ar    1  UNL1        0.0480
     17 C          62.9037   88.6515   15.3654 C.ar    1  UNL1        0.0160
     18 C          63.9133   89.4212   14.7828 C.ar    1  UNL1        0.0190
     19 N          66.4121   91.2651   11.3100 N.ar    1  UNL1       -0.2024
     20 N          66.9704   91.4642   12.4957 N.ar    1  UNL1       -0.1442
     21 C          66.2194   90.7843   13.3890 C.ar    1  UNL1        0.2073
     22 N          65.1927   90.1398   12.7891 N.ar    1  UNL1       -0.2398
     23 C          65.3484   90.4616   11.4900 C.ar    1  UNL1        0.3522
     24 O          64.5869   90.0777   10.5615 O.2     1  UNL1       -0.2444
     25 C          66.9307   91.7758   10.0349 C.3     1  UNL1        0.1099
     26 C          66.6782   93.2834    9.8993 C.3     1  UNL1        0.0265
     27 C          68.7914   90.9909    8.4215 C.3     1  UNL1        0.0021
     28 C          68.4157   91.3961    9.8493 C.3     1  UNL1        0.0245
     29 O          58.2736   84.8799    8.7152 O.3     1  UNL1       -0.4727
     30 C          59.3225   84.6976    7.7607 C.3     1  UNL1        0.2374
     31 C          60.6144   84.2317    8.4503 C.3     1  UNL1        0.1909
     32 C          61.6728   83.8000    7.4727 C.3     1  UNL1        0.1783
     33 O          62.2800   82.6709    8.0222 O.3     1  UNL1       -0.3266
     34 C          61.5764   82.3658    9.2104 C.3     1  UNL1        0.2315
     35 O          60.3818   83.1178    9.2497 O.3     1  UNL1       -0.3254
     36 C          62.4230   82.6982   10.4466 C.ar    1  UNL1        0.0410
     37 C          61.9358   83.6662   11.3553 C.ar    1  UNL1        0.0022
     38 C          62.6339   83.9763   12.5226 C.ar    1  UNL1        0.0113
     39 C          63.8273   83.3221   12.8187 C.ar    1  UNL1        0.0585
     40 CL         64.6964   83.7064   14.2929 Cl      1  UNL1       -0.0822
     41 C          64.3234   82.3525   11.9475 C.ar    1  UNL1        0.0226
     42 C          63.6360   82.0277   10.7706 C.ar    1  UNL1        0.0591
     43 CL         64.3507   80.7650    9.7721 Cl      1  UNL1       -0.0824
     44 C          61.1792   80.8669    9.2148 C.3     1  UNL1        0.1914
     45 N          59.7896   80.6504    8.7955 N.ar    1  UNL1       -0.2079
     46 N          59.3304   81.0417    7.6182 N.ar    1  UNL1       -0.0427
     47 N          58.0175   80.8844    7.5868 N.ar    1  UNL1       -0.0227
     48 N          57.5938   80.4122    8.7485 N.ar    1  UNL1       -0.1081
     49 C          58.6994   80.2689    9.5062 C.ar    1  UNL1        0.1840
     50 C          58.6385   79.8301   10.9221 C.ar    1  UNL1        0.0374
     51 C          58.7158   80.7387   11.9899 C.ar    1  UNL1        0.0031
     52 C          58.7048   80.2862   13.3126 C.ar    1  UNL1        0.0001
     53 C          58.6506   78.9179   13.5839 C.ar    1  UNL1        0.0000
     54 C          58.6172   78.0013   12.5316 C.ar    1  UNL1        0.0001
     55 C          58.6109   78.4540   11.2095 C.ar    1  UNL1        0.0031
@<TRIPOS>BOND
     1    27    28    1
     2    28    25    1
     3    25    26    1
     4    25    19    1
     5    19    20   ar
     6    20    21   ar
     7    21    22   ar
     8    22    13    1
     9    13    14   ar
    10    14    15   ar
    11    15    16   ar
    12    16     7    1
    13     7     8    1
    14     8     9    1
    15     9    10    1
    16    10     1    1
    17     1     2   ar
    18     2     3   ar
    19     3     4   ar
    20     4    29    1
    21    29    30    1
    22    30    31    1
    23    31    32    1
    24    32    33    1
    25    33    34    1
    26    34    44    1
    27    44    45    1
    28    45    46   ar
    29    46    47   ar
    30    47    48   ar
    31    48    49   ar
    32    49    50    1
    33    50    51   ar
    34    51    52   ar
    35    52    53   ar
    36    53    54   ar
    37    54    55   ar
    38    34    36    1
    39    36    37   ar
    40    37    38   ar
    41    38    39   ar
    42    39    40    1
    43    39    41   ar
    44    41    42   ar
    45    42    43    1
    46    34    35    1
    47     4     5   ar
    48     5     6   ar
    49    10    11    1
    50    11    12    1
    51    16    17   ar
    52    17    18   ar
    53    22    23   ar
    54    23    24    2
    55    23    19   ar
    56    18    13   ar
    57    12     7    1
    58     6     1   ar
    59    35    31    1
    60    49    45   ar
    61    55    50   ar
    62    42    36   ar
@<TRIPOS>MOLECULE
*****
 55 62 0 0 0
SMALL
GASTEIGER

@<TRIPOS>ATOM
      1 C          58.2817   81.3166    9.7571 C.ar    1  UNL1        0.0481
      2 C          58.0696   81.8493   11.0360 C.ar    1  UNL1        0.0176
      3 C          58.2107   81.0407   12.1688 C.ar    1  UNL1        0.0382
      4 C          58.5491   79.6875   12.0407 C.ar    1  UNL1        0.1388
      5 C          58.7842   79.1608   10.7562 C.ar    1  UNL1        0.0382
      6 C          58.6372   79.9659    9.6275 C.ar    1  UNL1        0.0176
      7 N          59.5328   84.2841    8.1092 N.pl3   1  UNL1       -0.3041
      8 C          60.0583   83.0408    7.5173 C.3     1  UNL1        0.1122
      9 C          58.9643   81.9661    7.4430 C.3     1  UNL1        0.1122
     10 N          58.0652   82.1286    8.5898 N.pl3   1  UNL1       -0.3041
     11 C          57.3073   83.3881    8.6881 C.3     1  UNL1        0.1122
     12 C          58.0868   84.5470    8.0409 C.3     1  UNL1        0.1122
     13 C          61.9991   86.8856   10.4140 C.ar    1  UNL1        0.0699
     14 C          62.1828   86.7761    9.0264 C.ar    1  UNL1        0.0190
     15 C          61.4052   85.8918    8.2750 C.ar    1  UNL1        0.0160
     16 C          60.4086   85.1182    8.8928 C.ar    1  UNL1        0.0480
     17 C          60.2274   85.2235   10.2802 C.ar    1  UNL1        0.0160
     18 C          61.0244   86.0869   11.0355 C.ar    1  UNL1        0.0190
     19 N          64.0041   89.5760   11.7947 N.ar    1  UNL1       -0.2024
     20 N          63.8883   88.7936   12.8585 N.ar    1  UNL1       -0.1442
     21 C          63.1357   87.7394   12.4756 C.ar    1  UNL1        0.2073
     22 N          62.7777   87.8289   11.1744 N.ar    1  UNL1       -0.2398
     23 C          63.3417   88.9881   10.7822 C.ar    1  UNL1        0.3522
     24 O          63.2475   89.4732    9.6224 O.2     1  UNL1       -0.2444
     25 C          64.7889   90.8155   11.7383 C.3     1  UNL1        0.1099
     26 C          65.7054   90.9459   12.9623 C.3     1  UNL1        0.0265
     27 C          66.5926   92.0497   10.3581 C.3     1  UNL1        0.0021
     28 C          65.5526   90.9269   10.4011 C.3     1  UNL1        0.0245
     29 O          58.6318   78.9065   13.2060 O.3     1  UNL1       -0.4727
     30 C          59.7210   78.9142   14.1323 C.3     1  UNL1        0.2374
     31 C          60.9167   79.6945   13.5637 C.3     1  UNL1        0.1909
     32 C          62.1859   79.4581   14.3354 C.3     1  UNL1        0.1783
     33 O          62.8332   80.6910   14.4169 O.3     1  UNL1       -0.3266
     34 C          61.9731   81.6442   13.8239 C.3     1  UNL1        0.2315
     35 O          60.6988   81.0662   13.6338 O.3     1  UNL1       -0.3254
     36 C          62.5242   82.1079   12.4687 C.ar    1  UNL1        0.0410
     37 C          61.7227   81.9246   11.3180 C.ar    1  UNL1        0.0022
     38 C          62.1457   82.3696   10.0654 C.ar    1  UNL1        0.0113
     39 C          63.3710   83.0179    9.9304 C.ar    1  UNL1        0.0585
     40 CL         63.8944   83.5863    8.3557 Cl      1  UNL1       -0.0822
     41 C          64.1751   83.2252   11.0510 C.ar    1  UNL1        0.0226
     42 C          63.7669   82.7854   12.3170 C.ar    1  UNL1        0.0591
     43 CL         64.8575   83.1363   13.6547 Cl      1  UNL1       -0.0824
     44 C          61.7942   82.8542   14.7770 C.3     1  UNL1        0.1914
     45 N          60.6631   83.7087   14.3975 N.ar    1  UNL1       -0.2079
     46 N          59.6482   83.2684   13.6722 N.ar    1  UNL1       -0.0427
     47 N          58.8785   84.2890   13.3322 N.ar    1  UNL1       -0.0227
     48 N          59.3891   85.4143   13.8070 N.ar    1  UNL1       -0.1081
     49 C          60.5062   85.0538   14.4698 C.ar    1  UNL1        0.1840
     50 C          61.4159   86.0486   15.0893 C.ar    1  UNL1        0.0374
     51 C          60.9976   87.3528   15.3987 C.ar    1  UNL1        0.0031
     52 C          61.8950   88.2800   15.9367 C.ar    1  UNL1        0.0001
     53 C          63.2297   87.9254   16.1404 C.ar    1  UNL1        0.0000
     54 C          63.6694   86.6459   15.7968 C.ar    1  UNL1        0.0001
     55 C          62.7688   85.7134   15.2751 C.ar    1  UNL1        0.0031
@<TRIPOS>BOND
     1    27    28    1
     2    28    25    1
     3    25    26    1
     4    25    19    1
     5    19    20   ar
     6    20    21   ar
     7    21    22   ar
     8    22    13    1
     9    13    14   ar
    10    14    15   ar
    11    15    16   ar
    12    16     7    1
    13     7     8    1
    14     8     9    1
    15     9    10    1
    16    10     1    1
    17     1     2   ar
    18     2     3   ar
    19     3     4   ar
    20     4    29    1
    21    29    30    1
    22    30    31    1
    23    31    32    1
    24    32    33    1
    25    33    34    1
    26    34    44    1
    27    44    45    1
    28    45    46   ar
    29    46    47   ar
    30    47    48   ar
    31    48    49   ar
    32    49    50    1
    33    50    51   ar
    34    51    52   ar
    35    52    53   ar
    36    53    54   ar
    37    54    55   ar
    38    34    36    1
    39    36    37   ar
    40    37    38   ar
    41    38    39   ar
    42    39    40    1
    43    39    41   ar
    44    41    42   ar
    45    42    43    1
    46    34    35    1
    47     4     5   ar
    48     5     6   ar
    49    10    11    1
    50    11    12    1
    51    16    17   ar
    52    17    18   ar
    53    22    23   ar
    54    23    24    2
    55    23    19   ar
    56    18    13   ar
    57    12     7    1
    58     6     1   ar
    59    35    31    1
    60    49    45   ar
    61    55    50   ar
    62    42    36   ar
@<TRIPOS>MOLECULE
*****
 55 62 0 0 0
SMALL
GASTEIGER

@<TRIPOS>ATOM
      1 C          58.2537   81.7450    9.5902 C.ar    1  UNL1        0.0481
      2 C          58.1067   82.3384   10.8513 C.ar    1  UNL1        0.0176
      3 C          58.0752   81.5462   12.0039 C.ar    1  UNL1        0.0382
      4 C          58.1737   80.1519   11.9131 C.ar    1  UNL1        0.1388
      5 C          58.3446   79.5603   10.6469 C.ar    1  UNL1        0.0382
      6 C          58.3694   80.3501    9.4983 C.ar    1  UNL1        0.0176
      7 N          59.8038   84.6517    8.0951 N.pl3   1  UNL1       -0.3041
      8 C          60.3540   83.3853    7.5793 C.3     1  UNL1        0.1122
      9 C          59.2402   82.3485    7.3753 C.3     1  UNL1        0.1122
     10 N          58.2123   82.5529    8.4009 N.pl3   1  UNL1       -0.3041
     11 C          57.4932   83.8387    8.3980 C.3     1  UNL1        0.1122
     12 C          58.3876   84.9638    7.8465 C.3     1  UNL1        0.1122
     13 C          62.0855   87.1974   10.6397 C.ar    1  UNL1        0.0699
     14 C          62.5834   86.8168    9.3832 C.ar    1  UNL1        0.0190
     15 C          61.8573   85.9476    8.5657 C.ar    1  UNL1        0.0160
     16 C          60.6048   85.4624    8.9770 C.ar    1  UNL1        0.0480
     17 C          60.1086   85.8384   10.2344 C.ar    1  UNL1        0.0160
     18 C          60.8479   86.6851   11.0638 C.ar    1  UNL1        0.0190
     19 N          64.1218   89.7855   12.1629 N.ar    1  UNL1       -0.2024
     20 N          63.7139   89.1349   13.2434 N.ar    1  UNL1       -0.1442
     21 C          62.9189   88.1337   12.8076 C.ar    1  UNL1        0.2073
     22 N          62.8221   88.1254   11.4586 N.ar    1  UNL1       -0.2398
     23 C          63.5898   89.1701   11.0915 C.ar    1  UNL1        0.3522
     24 O          63.7735   89.5394    9.9002 O.2     1  UNL1       -0.2444
     25 C          65.0527   90.9207   12.1607 C.3     1  UNL1        0.1099
     26 C          65.9107   90.9347   13.4330 C.3     1  UNL1        0.0265
     27 C          66.4992   92.3090   10.5292 C.3     1  UNL1        0.0021
     28 C          65.8953   90.9433   10.8672 C.3     1  UNL1        0.0245
     29 O          58.0889   79.3979   13.0959 O.3     1  UNL1       -0.4727
     30 C          59.1887   79.0678   13.9480 C.3     1  UNL1        0.2374
     31 C          60.5041   79.6287   13.3850 C.3     1  UNL1        0.1909
     32 C          61.7188   78.9643   13.9726 C.3     1  UNL1        0.1783
     33 O          62.6602   79.9732   14.1763 O.3     1  UNL1       -0.3266
     34 C          62.0329   81.1932   13.8327 C.3     1  UNL1        0.2315
     35 O          60.6444   80.9782   13.6902 O.3     1  UNL1       -0.3254
     36 C          62.5960   81.7444   12.5157 C.ar    1  UNL1        0.0410
     37 C          61.7065   82.3751   11.6152 C.ar    1  UNL1        0.0022
     38 C          62.1647   82.9404   10.4250 C.ar    1  UNL1        0.0113
     39 C          63.5205   82.9016   10.1086 C.ar    1  UNL1        0.0585
     40 CL         64.0945   83.6235    8.6167 Cl      1  UNL1       -0.0822
     41 C          64.4222   82.2988   10.9855 C.ar    1  UNL1        0.0226
     42 C          63.9804   81.7260   12.1854 C.ar    1  UNL1        0.0591
     43 CL         65.2219   81.0250   13.2195 Cl      1  UNL1       -0.0824
     44 C          62.2261   82.2228   14.9759 C.3     1  UNL1        0.1914
     45 N          62.8798   83.4553   14.5205 N.ar    1  UNL1       -0.2079
     46 N          64.1934   83.6111   14.5285 N.ar    1  UNL1       -0.0427
     47 N          64.4863   84.8690   14.2434 N.ar    1  UNL1       -0.0227
     48 N          63.3715   85.5613   14.0690 N.ar    1  UNL1       -0.1081
     49 C          62.3667   84.6801   14.2455 C.ar    1  UNL1        0.1840
     50 C          60.9405   85.0866   14.2076 C.ar    1  UNL1        0.0374
     51 C          59.9485   84.2791   13.6282 C.ar    1  UNL1        0.0031
     52 C          58.6216   84.7150   13.5656 C.ar    1  UNL1        0.0001
     53 C          58.2761   85.9776   14.0508 C.ar    1  UNL1        0.0000
     54 C          59.2597   86.8084   14.5899 C.ar    1  UNL1        0.0001
     55 C          60.5830   86.3661   14.6682 C.ar    1  UNL1        0.0031
@<TRIPOS>BOND
     1    27    28    1
     2    28    25    1
     3    25    26    1
     4    25    19    1
     5    19    20   ar
     6    20    21   ar
     7    21    22   ar
     8    22    13    1
     9    13    14   ar
    10    14    15   ar
    11    15    16   ar
    12    16     7    1
    13     7     8    1
    14     8     9    1
    15     9    10    1
    16    10     1    1
    17     1     2   ar
    18     2     3   ar
    19     3     4   ar
    20     4    29    1
    21    29    30    1
    22    30    31    1
    23    31    32    1
    24    32    33    1
    25    33    34    1
    26    34    44    1
    27    44    45    1
    28    45    46   ar
    29    46    47   ar
    30    47    48   ar
    31    48    49   ar
    32    49    50    1
    33    50    51   ar
    34    51    52   ar
    35    52    53   ar
    36    53    54   ar
    37    54    55   ar
    38    34    36    1
    39    36    37   ar
    40    37    38   ar
    41    38    39   ar
    42    39    40    1
    43    39    41   ar
    44    41    42   ar
    45    42    43    1
    46    34    35    1
    47     4     5   ar
    48     5     6   ar
    49    10    11    1
    50    11    12    1
    51    16    17   ar
    52    17    18   ar
    53    22    23   ar
    54    23    24    2
    55    23    19   ar
    56    18    13   ar
    57    12     7    1
    58     6     1   ar
    59    35    31    1
    60    49    45   ar
    61    55    50   ar
    62    42    36   ar
@<TRIPOS>MOLECULE
*****
 55 62 0 0 0
SMALL
GASTEIGER

@<TRIPOS>ATOM
      1 C          62.8124   88.8803   12.4852 C.ar    1  UNL1        0.0481
      2 C          61.9331   87.8789   12.0512 C.ar    1  UNL1        0.0176
      3 C          61.4742   87.8678   10.7297 C.ar    1  UNL1        0.0382
      4 C          61.8728   88.8633    9.8287 C.ar    1  UNL1        0.1388
      5 C          62.7743   89.8547   10.2609 C.ar    1  UNL1        0.0382
      6 C          63.2261   89.8686   11.5798 C.ar    1  UNL1        0.0176
      7 N          63.6715   86.7262   15.2615 N.pl3   1  UNL1       -0.3041
      8 C          64.8574   87.2632   14.5704 C.3     1  UNL1        0.1122
      9 C          64.6432   88.7323   14.1790 C.3     1  UNL1        0.1122
     10 N          63.2258   88.9337   13.8618 N.pl3   1  UNL1       -0.3041
     11 C          62.2483   88.7171   14.9425 C.3     1  UNL1        0.1122
     12 C          62.7606   87.6618   15.9393 C.3     1  UNL1        0.1122
     13 C          62.6349   82.6414   14.6277 C.ar    1  UNL1        0.0699
     14 C          61.6842   83.5474   15.1244 C.ar    1  UNL1        0.0190
     15 C          62.0332   84.8766   15.3744 C.ar    1  UNL1        0.0160
     16 C          63.3342   85.3337   15.1067 C.ar    1  UNL1        0.0480
     17 C          64.2863   84.4280   14.6147 C.ar    1  UNL1        0.0160
     18 C          63.9446   83.0921   14.3917 C.ar    1  UNL1        0.0190
     19 N          61.1953   79.4747   13.5959 N.ar    1  UNL1       -0.2024
     20 N          62.2349   79.0474   14.2986 N.ar    1  UNL1       -0.1442
     21 C          62.8778   80.1513   14.7370 C.ar    1  UNL1        0.2073
     22 N          62.2557   81.2831   14.3352 N.ar    1  UNL1       -0.2398
     23 C          61.2071   80.8195   13.6273 C.ar    1  UNL1        0.3522
     24 O          60.3549   81.5479   13.0506 O.2     1  UNL1       -0.2444
     25 C          60.1829   78.6121   12.9742 C.3     1  UNL1        0.1099
     26 C          58.8088   78.8132   13.6272 C.3     1  UNL1        0.0265
     27 C          61.1989   77.9849   10.6817 C.3     1  UNL1        0.0021
     28 C          60.1549   78.8063   11.4428 C.3     1  UNL1        0.0245
     29 O          61.3463   88.8348    8.5260 O.3     1  UNL1       -0.4727
     30 C          60.2099   88.0739    8.1088 C.3     1  UNL1        0.2374
     31 C          60.5135   86.5681    8.1543 C.3     1  UNL1        0.1909
     32 C          60.1171   85.8561    6.8901 C.3     1  UNL1        0.1783
     33 O          59.5676   84.6351    7.2810 O.3     1  UNL1       -0.3266
     34 C          59.5336   84.6360    8.6948 C.3     1  UNL1        0.2315
     35 O          59.7926   85.9421    9.1654 O.3     1  UNL1       -0.3254
     36 C          60.5855   83.6758    9.2666 C.ar    1  UNL1        0.0410
     37 C          61.3446   84.0967   10.3831 C.ar    1  UNL1        0.0022
     38 C          62.2805   83.2516   10.9796 C.ar    1  UNL1        0.0113
     39 C          62.4747   81.9636   10.4862 C.ar    1  UNL1        0.0585
     40 CL         63.6442   80.8998   11.2458 Cl      1  UNL1       -0.0822
     41 C          61.7292   81.5173    9.3952 C.ar    1  UNL1        0.0226
     42 C          60.7846   82.3518    8.7834 C.ar    1  UNL1        0.0591
     43 CL         59.8870   81.6588    7.4357 Cl      1  UNL1       -0.0824
     44 C          58.1170   84.2403    9.1860 C.3     1  UNL1        0.1914
     45 N          58.1500   83.2186   10.2388 N.ar    1  UNL1       -0.2079
     46 N          57.9926   81.9294    9.9871 N.ar    1  UNL1       -0.0427
     47 N          57.8847   81.2710   11.1292 N.ar    1  UNL1       -0.0227
     48 N          57.9445   82.1189   12.1439 N.ar    1  UNL1       -0.1081
     49 C          58.1066   83.3367   11.5891 C.ar    1  UNL1        0.1840
     50 C          58.1421   84.5786   12.3999 C.ar    1  UNL1        0.0374
     51 C          59.3485   85.1736   12.8029 C.ar    1  UNL1        0.0031
     52 C          59.3451   86.3164   13.6082 C.ar    1  UNL1        0.0001
     53 C          58.1365   86.8588   14.0486 C.ar    1  UNL1        0.0000
     54 C          56.9311   86.2522   13.6914 C.ar    1  UNL1        0.0001
     55 C          56.9335   85.1200   12.8724 C.ar    1  UNL1        0.0031
@<TRIPOS>BOND
     1    27    28    1
     2    28    25    1
     3    25    26    1
     4    25    19    1
     5    19    20   ar
     6    20    21   ar
     7    21    22   ar
     8    22    13    1
     9    13    14   ar
    10    14    15   ar
    11    15    16   ar
    12    16     7    1
    13     7     8    1
    14     8     9    1
    15     9    10    1
    16    10     1    1
    17     1     2   ar
    18     2     3   ar
    19     3     4   ar
    20     4    29    1
    21    29    30    1
    22    30    31    1
    23    31    32    1
    24    32    33    1
    25    33    34    1
    26    34    44    1
    27    44    45    1
    28    45    46   ar
    29    46    47   ar
    30    47    48   ar
    31    48    49   ar
    32    49    50    1
    33    50    51   ar
    34    51    52   ar
    35    52    53   ar
    36    53    54   ar
    37    54    55   ar
    38    34    36    1
    39    36    37   ar
    40    37    38   ar
    41    38    39   ar
    42    39    40    1
    43    39    41   ar
    44    41    42   ar
    45    42    43    1
    46    34    35    1
    47     4     5   ar
    48     5     6   ar
    49    10    11    1
    50    11    12    1
    51    16    17   ar
    52    17    18   ar
    53    22    23   ar
    54    23    24    2
    55    23    19   ar
    56    18    13   ar
    57    12     7    1
    58     6     1   ar
    59    35    31    1
    60    49    45   ar
    61    55    50   ar
    62    42    36   ar
@<TRIPOS>MOLECULE
*****
 55 62 0 0 0
SMALL
GASTEIGER

@<TRIPOS>ATOM
      1 C          61.3462   80.1225   12.6839 C.ar    1  UNL1        0.0481
      2 C          62.4994   80.6211   12.0627 C.ar    1  UNL1        0.0176
      3 C          63.5143   81.2072   12.8266 C.ar    1  UNL1        0.0382
      4 C          63.3858   81.3183   14.2169 C.ar    1  UNL1        0.1388
      5 C          62.2368   80.7958   14.8407 C.ar    1  UNL1        0.0382
      6 C          61.2230   80.2176   14.0779 C.ar    1  UNL1        0.0176
      7 N          59.3713   80.8505    9.7418 N.pl3   1  UNL1       -0.3041
      8 C          60.4512   79.8832    9.4766 C.3     1  UNL1        0.1122
      9 C          60.5968   78.8938   10.6415 C.3     1  UNL1        0.1122
     10 N          60.2715   79.5868   11.8920 N.pl3   1  UNL1       -0.3041
     11 C          58.9013   80.1052   12.0471 C.3     1  UNL1        0.1122
     12 C          58.3005   80.4794   10.6801 C.3     1  UNL1        0.1122
     13 C          59.7549   84.8698    8.3777 C.ar    1  UNL1        0.0699
     14 C          58.5208   84.3933    8.8482 C.ar    1  UNL1        0.0190
     15 C          58.3813   83.0643    9.2548 C.ar    1  UNL1        0.0160
     16 C          59.4813   82.1912    9.2247 C.ar    1  UNL1        0.0480
     17 C          60.7138   82.6650    8.7503 C.ar    1  UNL1        0.0160
     18 C          60.8458   83.9864    8.3170 C.ar    1  UNL1        0.0190
     19 N          59.5798   88.2701    7.1242 N.ar    1  UNL1       -0.2024
     20 N          60.7481   88.3054    7.7495 N.ar    1  UNL1       -0.1442
     21 C          60.9309   87.0787    8.2843 C.ar    1  UNL1        0.2073
     22 N          59.8996   86.2516    7.9985 N.ar    1  UNL1       -0.2398
     23 C          59.0770   87.0309    7.2695 C.ar    1  UNL1        0.3522
     24 O          57.9688   86.6577    6.7984 O.2     1  UNL1       -0.2444
     25 C          59.0012   89.3758    6.3508 C.3     1  UNL1        0.1099
     26 C          59.9150   89.7715    5.1831 C.3     1  UNL1        0.0265
     27 C          56.8614   90.1705    5.1379 C.3     1  UNL1        0.0021
     28 C          57.5619   89.0435    5.9016 C.3     1  UNL1        0.0245
     29 O          64.4116   81.9579   14.9334 O.3     1  UNL1       -0.4727
     30 C          65.4369   82.7739   14.3611 C.3     1  UNL1        0.2374
     31 C          64.9435   84.2165   14.1683 C.3     1  UNL1        0.1909
     32 C          65.2479   85.0983   15.3482 C.3     1  UNL1        0.1783
     33 O          64.1296   85.9115   15.5315 O.3     1  UNL1       -0.3266
     34 C          63.1597   85.4907   14.5922 C.3     1  UNL1        0.2315
     35 O          63.5604   84.2587   14.0302 O.3     1  UNL1       -0.3254
     36 C          62.9988   86.5277   13.4723 C.ar    1  UNL1        0.0410
     37 C          63.5371   87.8204   13.6697 C.ar    1  UNL1        0.0022
     38 C          63.4675   88.7916   12.6708 C.ar    1  UNL1        0.0113
     39 C          62.8708   88.4954   11.4476 C.ar    1  UNL1        0.0585
     40 CL         62.7953   89.7155   10.1897 Cl      1  UNL1       -0.0822
     41 C          62.3447   87.2239   11.2203 C.ar    1  UNL1        0.0226
     42 C          62.4056   86.2357   12.2117 C.ar    1  UNL1        0.0591
     43 CL         61.7343   84.6632   11.7890 Cl      1  UNL1       -0.0824
     44 C          61.8046   85.2533   15.3076 C.3     1  UNL1        0.1914
     45 N          60.9824   86.4669   15.3754 N.ar    1  UNL1       -0.2079
     46 N          61.2940   87.4980   16.1434 N.ar    1  UNL1       -0.0427
     47 N          60.2916   88.3609   16.1448 N.ar    1  UNL1       -0.0227
     48 N          59.2999   87.8986   15.3998 N.ar    1  UNL1       -0.1081
     49 C          59.7285   86.7135   14.9212 C.ar    1  UNL1        0.1840
     50 C          58.8662   85.8343   14.0940 C.ar    1  UNL1        0.0374
     51 C          59.2813   84.5596   13.6761 C.ar    1  UNL1        0.0031
     52 C          58.4630   83.7772   12.8559 C.ar    1  UNL1        0.0001
     53 C          57.2345   84.2728   12.4156 C.ar    1  UNL1        0.0000
     54 C          56.8286   85.5555   12.7879 C.ar    1  UNL1        0.0001
     55 C          57.6386   86.3311   13.6217 C.ar    1  UNL1        0.0031
@<TRIPOS>BOND
     1    27    28    1
     2    28    25    1
     3    25    26    1
     4    25    19    1
     5    19    20   ar
     6    20    21   ar
     7    21    22   ar
     8    22    13    1
     9    13    14   ar
    10    14    15   ar
    11    15    16   ar
    12    16     7    1
    13     7     8    1
    14     8     9    1
    15     9    10    1
    16    10     1    1
    17     1     2   ar
    18     2     3   ar
    19     3     4   ar
    20     4    29    1
    21    29    30    1
    22    30    31    1
    23    31    32    1
    24    32    33    1
    25    33    34    1
    26    34    44    1
    27    44    45    1
    28    45    46   ar
    29    46    47   ar
    30    47    48   ar
    31    48    49   ar
    32    49    50    1
    33    50    51   ar
    34    51    52   ar
    35    52    53   ar
    36    53    54   ar
    37    54    55   ar
    38    34    36    1
    39    36    37   ar
    40    37    38   ar
    41    38    39   ar
    42    39    40    1
    43    39    41   ar
    44    41    42   ar
    45    42    43    1
    46    34    35    1
    47     4     5   ar
    48     5     6   ar
    49    10    11    1
    50    11    12    1
    51    16    17   ar
    52    17    18   ar
    53    22    23   ar
    54    23    24    2
    55    23    19   ar
    56    18    13   ar
    57    12     7    1
    58     6     1   ar
    59    35    31    1
    60    49    45   ar
    61    55    50   ar
    62    42    36   ar
@<TRIPOS>MOLECULE
*****
 55 62 0 0 0
SMALL
GASTEIGER

@<TRIPOS>ATOM
      1 C          61.7414   82.5707    9.1477 C.ar    1  UNL1        0.0481
      2 C          63.0354   82.6883    9.6731 C.ar    1  UNL1        0.0176
      3 C          63.4858   81.7895   10.6458 C.ar    1  UNL1        0.0382
      4 C          62.6471   80.7722   11.1188 C.ar    1  UNL1        0.1388
      5 C          61.3559   80.6422   10.5727 C.ar    1  UNL1        0.0382
      6 C          60.9057   81.5424    9.6078 C.ar    1  UNL1        0.0176
      7 N          61.7099   86.1319    8.5127 N.pl3   1  UNL1       -0.3041
      8 C          62.7278   85.4217    7.7179 C.3     1  UNL1        0.1122
      9 C          62.1836   84.0802    7.2064 C.3     1  UNL1        0.1122
     10 N          61.2534   83.5385    8.2021 N.pl3   1  UNL1       -0.3041
     11 C          60.0372   84.3173    8.4930 C.3     1  UNL1        0.1122
     12 C          60.2894   85.8218    8.2871 C.3     1  UNL1        0.1122
     13 C          63.1126   88.5400   11.7369 C.ar    1  UNL1        0.0699
     14 C          62.4765   87.3142   11.9895 C.ar    1  UNL1        0.0190
     15 C          61.9768   86.5436   10.9370 C.ar    1  UNL1        0.0160
     16 C          62.1276   86.9710    9.6074 C.ar    1  UNL1        0.0480
     17 C          62.7590   88.1982    9.3542 C.ar    1  UNL1        0.0160
     18 C          63.2333   88.9820   10.4086 C.ar    1  UNL1        0.0190
     19 N          64.9568   90.6018   14.0848 N.ar    1  UNL1       -0.2024
     20 N          63.9418   90.2202   14.8473 N.ar    1  UNL1       -0.1442
     21 C          63.1552   89.4422   14.0726 C.ar    1  UNL1        0.2073
     22 N          63.6601   89.3085   12.8250 N.ar    1  UNL1       -0.2398
     23 C          64.7877   90.0446   12.8722 C.ar    1  UNL1        0.3522
     24 O          65.5760   90.2091   11.9021 O.2     1  UNL1       -0.2444
     25 C          66.0906   91.4194   14.5336 C.3     1  UNL1        0.1099
     26 C          66.0677   91.6083   16.0564 C.3     1  UNL1        0.0265
     27 C          68.6419   91.1943   14.8826 C.3     1  UNL1        0.0021
     28 C          67.4272   90.8423   14.0197 C.3     1  UNL1        0.0245
     29 O          63.1300   79.9248   12.1305 O.3     1  UNL1       -0.4727
     30 C          63.9025   80.3402   13.2597 C.3     1  UNL1        0.2374
     31 C          63.2156   81.5020   13.9947 C.3     1  UNL1        0.1909
     32 C          61.9115   81.1005   14.6274 C.3     1  UNL1        0.1783
     33 O          61.0309   82.1628   14.4238 O.3     1  UNL1       -0.3266
     34 C          61.7139   83.1137   13.6305 C.3     1  UNL1        0.2315
     35 O          62.8918   82.5294   13.1151 O.3     1  UNL1       -0.3254
     36 C          62.0853   84.3505   14.4599 C.ar    1  UNL1        0.0410
     37 C          61.0770   84.9679   15.2358 C.ar    1  UNL1        0.0022
     38 C          61.3622   86.0645   16.0495 C.ar    1  UNL1        0.0113
     39 C          62.6600   86.5652   16.1191 C.ar    1  UNL1        0.0585
     40 CL         63.0173   87.9370   17.1520 Cl      1  UNL1       -0.0822
     41 C          63.6771   85.9664   15.3757 C.ar    1  UNL1        0.0226
     42 C          63.4095   84.8643   14.5532 C.ar    1  UNL1        0.0591
     43 CL         64.7852   84.1805   13.6918 Cl      1  UNL1       -0.0824
     44 C          60.8319   83.5190   12.4213 C.3     1  UNL1        0.1914
     45 N          59.4190   83.6816   12.7831 N.ar    1  UNL1       -0.2079
     46 N          58.9727   84.7230   13.4659 N.ar    1  UNL1       -0.0427
     47 N          57.7106   84.5162   13.8034 N.ar    1  UNL1       -0.0227
     48 N          57.3185   83.3286   13.3698 N.ar    1  UNL1       -0.1081
     49 C          58.3860   82.8042   12.7353 C.ar    1  UNL1        0.1840
     50 C          58.3758   81.4339   12.1670 C.ar    1  UNL1        0.0374
     51 C          57.9496   81.1723   10.8549 C.ar    1  UNL1        0.0031
     52 C          57.9062   79.8626   10.3677 C.ar    1  UNL1        0.0001
     53 C          58.2560   78.7953   11.1968 C.ar    1  UNL1        0.0000
     54 C          58.6400   79.0374   12.5169 C.ar    1  UNL1        0.0001
     55 C          58.6999   80.3476   12.9989 C.ar    1  UNL1        0.0031
@<TRIPOS>BOND
     1    27    28    1
     2    28    25    1
     3    25    26    1
     4    25    19    1
     5    19    20   ar
     6    20    21   ar
     7    21    22   ar
     8    22    13    1
     9    13    14   ar
    10    14    15   ar
    11    15    16   ar
    12    16     7    1
    13     7     8    1
    14     8     9    1
    15     9    10    1
    16    10     1    1
    17     1     2   ar
    18     2     3   ar
    19     3     4   ar
    20     4    29    1
    21    29    30    1
    22    30    31    1
    23    31    32    1
    24    32    33    1
    25    33    34    1
    26    34    44    1
    27    44    45    1
    28    45    46   ar
    29    46    47   ar
    30    47    48   ar
    31    48    49   ar
    32    49    50    1
    33    50    51   ar
    34    51    52   ar
    35    52    53   ar
    36    53    54   ar
    37    54    55   ar
    38    34    36    1
    39    36    37   ar
    40    37    38   ar
    41    38    39   ar
    42    39    40    1
    43    39    41   ar
    44    41    42   ar
    45    42    43    1
    46    34    35    1
    47     4     5   ar
    48     5     6   ar
    49    10    11    1
    50    11    12    1
    51    16    17   ar
    52    17    18   ar
    53    22    23   ar
    54    23    24    2
    55    23    19   ar
    56    18    13   ar
    57    12     7    1
    58     6     1   ar
    59    35    31    1
    60    49    45   ar
    61    55    50   ar
    62    42    36   ar
