@<TRIPOS>MOLECULE
*****
 28 30 0 0 0
SMALL
GASTEIGER

@<TRIPOS>ATOM
      1 C         -16.1670    1.3528  -12.7202 C.ar    1  UNL1        0.2051
      2 N         -15.0221    1.9266  -12.3015 N.ar    1  UNL1       -0.0582
      3 O         -14.1740    1.7132  -13.2607 O.2     1  UNL1       -0.3279
      4 C         -14.7531    1.0297  -14.2171 C.ar    1  UNL1        0.3134
      5 N         -16.0410    0.7639  -13.9273 N.ar    1  UNL1       -0.1854
      6 C         -14.0726    0.5778  -15.4366 C.2     1  UNL1        0.3025
      7 O         -12.8403    0.3167  -15.3948 O.2     1  UNL1       -0.2649
      8 N         -14.8041    0.4224  -16.6615 N.am    1  UNL1       -0.2930
      9 H         -15.8146    0.6865  -16.6936 H       1  UNL1        0.1502
     10 C         -14.1920   -0.1066  -17.8780 C.3     1  UNL1        0.1168
     11 C         -14.6996    0.6355  -19.0844 C.ar    1  UNL1        0.0005
     12 C         -14.7971   -0.0018  -20.3301 C.ar    1  UNL1        0.0181
     13 C         -15.2717    0.7131  -21.4327 C.ar    1  UNL1        0.0986
     14 N         -15.6403    2.0146  -21.2952 N.ar    1  UNL1       -0.2423
     15 C         -15.5592    2.6554  -20.0990 C.ar    1  UNL1        0.0986
     16 C         -15.0868    1.9787  -18.9721 C.ar    1  UNL1        0.0181
     17 C         -17.3815    1.2089  -11.8608 C.3     1  UNL1        0.2245
     18 S         -18.4057    2.6791  -11.9504 S.O2    1  UNL1        0.0162
     19 O         -17.8587    3.7230  -11.0174 O.2     1  UNL1       -0.1682
     20 O         -18.3666    3.2265  -13.3499 O.2     1  UNL1       -0.1682
     21 C         -22.8019    2.0107  -10.8955 C.ar    1  UNL1       -0.0221
     22 C         -22.3195    1.6711  -12.1692 C.ar    1  UNL1       -0.0029
     23 C         -20.9650    1.8268  -12.4748 C.ar    1  UNL1        0.0180
     24 C         -20.0772    2.3226  -11.5111 C.ar    1  UNL1        0.1061
     25 C         -20.5538    2.6504  -10.2343 C.ar    1  UNL1        0.0180
     26 C         -21.9093    2.5015   -9.9296 C.ar    1  UNL1       -0.0029
     27 C         -25.0618    2.7818  -11.5972 C.3     1  UNL1        0.0050
     28 C         -24.2752    1.9357  -10.6011 C.3     1  UNL1        0.0264
@<TRIPOS>BOND
     1    27    28    1
     2    28    21    1
     3    21    22   ar
     4    22    23   ar
     5    23    24   ar
     6    24    18    1
     7    18    19    2
     8    18    20    2
     9    18    17    1
    10    17     1    1
    11     1     2   ar
    12     2     3   ar
    13     3     4   ar
    14     4     6    1
    15     6     7    2
    16     6     8   am
    17     8    10    1
    18    10    11    1
    19    11    12   ar
    20    12    13   ar
    21    13    14   ar
    22    14    15   ar
    23    15    16   ar
    24     4     5   ar
    25    24    25   ar
    26    25    26   ar
    27    26    21   ar
    28     5     1   ar
    29    16    11   ar
    30     8     9    1
@<TRIPOS>MOLECULE
*****
 28 30 0 0 0
SMALL
GASTEIGER

@<TRIPOS>ATOM
      1 C         -21.7964   -6.7268  -11.8654 C.ar    1  UNL1        0.2051
      2 N         -20.5893   -7.0576  -12.3640 N.ar    1  UNL1       -0.0582
      3 O         -20.8492   -7.7277  -13.4450 O.2     1  UNL1       -0.3279
      4 C         -22.1465   -7.8239  -13.6026 C.ar    1  UNL1        0.3134
      5 N         -22.8143   -7.1994  -12.6140 N.ar    1  UNL1       -0.1854
      6 C         -22.7923   -8.5535  -14.7005 C.2     1  UNL1        0.3025
      7 O         -22.8945   -8.0043  -15.8302 O.2     1  UNL1       -0.2649
      8 N         -23.2913   -9.8832  -14.4944 N.am    1  UNL1       -0.2930
      9 H         -23.2418  -10.3087  -13.5413 H       1  UNL1        0.1502
     10 C         -23.8626  -10.6821  -15.5759 C.3     1  UNL1        0.1168
     11 C         -24.3964  -11.9827  -15.0399 C.ar    1  UNL1        0.0005
     12 C         -24.8874  -12.0708  -13.7290 C.ar    1  UNL1        0.0181
     13 C         -25.3765  -13.2922  -13.2587 C.ar    1  UNL1        0.0986
     14 N         -25.3801  -14.3838  -14.0694 N.ar    1  UNL1       -0.2423
     15 C         -24.9134  -14.3254  -15.3449 C.ar    1  UNL1        0.0986
     16 C         -24.4123  -13.1249  -15.8535 C.ar    1  UNL1        0.0181
     17 C         -21.9908   -6.0839  -10.5300 C.3     1  UNL1        0.2245
     18 S         -21.7414   -7.2699   -9.2073 S.O2    1  UNL1        0.0162
     19 O         -20.6001   -6.8152   -8.3413 O.2     1  UNL1       -0.1682
     20 O         -22.9817   -7.3371   -8.3607 O.2     1  UNL1       -0.1682
     21 C         -20.7884  -11.3138  -11.1113 C.ar    1  UNL1       -0.0221
     22 C         -19.7603  -10.5252  -10.5712 C.ar    1  UNL1       -0.0029
     23 C         -20.0574   -9.3131   -9.9430 C.ar    1  UNL1        0.0180
     24 C         -21.3848   -8.8758   -9.8462 C.ar    1  UNL1        0.1061
     25 C         -22.4146   -9.6673  -10.3733 C.ar    1  UNL1        0.0180
     26 C         -22.1182  -10.8763  -11.0078 C.ar    1  UNL1       -0.0029
     27 C         -21.1689  -12.5757  -13.2225 C.3     1  UNL1        0.0050
     28 C         -20.4574  -12.5679  -11.8733 C.3     1  UNL1        0.0264
@<TRIPOS>BOND
     1    27    28    1
     2    28    21    1
     3    21    22   ar
     4    22    23   ar
     5    23    24   ar
     6    24    18    1
     7    18    19    2
     8    18    20    2
     9    18    17    1
    10    17     1    1
    11     1     2   ar
    12     2     3   ar
    13     3     4   ar
    14     4     6    1
    15     6     7    2
    16     6     8   am
    17     8    10    1
    18    10    11    1
    19    11    12   ar
    20    12    13   ar
    21    13    14   ar
    22    14    15   ar
    23    15    16   ar
    24     4     5   ar
    25    24    25   ar
    26    25    26   ar
    27    26    21   ar
    28     5     1   ar
    29    16    11   ar
    30     8     9    1
@<TRIPOS>MOLECULE
*****
 28 30 0 0 0
SMALL
GASTEIGER

@<TRIPOS>ATOM
      1 C         -21.0895   -9.1938   -9.3143 C.ar    1  UNL1        0.2051
      2 N         -22.3139   -9.7239   -9.1273 N.ar    1  UNL1       -0.0582
      3 O         -22.3848  -10.7028   -9.9768 O.2     1  UNL1       -0.3279
      4 C         -21.2728  -10.7689  -10.6669 C.ar    1  UNL1        0.3134
      5 N         -20.3962   -9.8196  -10.2877 N.ar    1  UNL1       -0.1854
      6 C         -21.0270  -11.7342  -11.7450 C.2     1  UNL1        0.3025
      7 O         -20.2654  -12.7157  -11.5326 O.2     1  UNL1       -0.2649
      8 N         -21.6566  -11.5704  -13.0242 N.am    1  UNL1       -0.2930
      9 H         -22.2485  -10.7276  -13.2014 H       1  UNL1        0.1502
     10 C         -21.5130  -12.5489  -14.0994 C.3     1  UNL1        0.1168
     11 C         -22.8252  -13.2381  -14.3583 C.ar    1  UNL1        0.0005
     12 C         -24.0246  -12.7076  -13.8607 C.ar    1  UNL1        0.0181
     13 C         -25.2278  -13.3700  -14.1169 C.ar    1  UNL1        0.0986
     14 N         -25.2336  -14.5166  -14.8475 N.ar    1  UNL1       -0.2423
     15 C         -24.0864  -15.0506  -15.3444 C.ar    1  UNL1        0.0986
     16 C         -22.8614  -14.4223  -15.1086 C.ar    1  UNL1        0.0181
     17 C         -20.6269   -7.9317   -8.6605 C.3     1  UNL1        0.2245
     18 S         -21.3753   -6.4981   -9.4370 S.O2    1  UNL1        0.0162
     19 O         -22.6025   -6.0997   -8.6660 O.2     1  UNL1       -0.1682
     20 O         -20.4027   -5.3523   -9.4056 O.2     1  UNL1       -0.1682
     21 C         -22.5323   -7.6439  -13.7073 C.ar    1  UNL1       -0.0221
     22 C         -23.5252   -7.3711  -12.7533 C.ar    1  UNL1       -0.0029
     23 C         -23.1716   -6.9704  -11.4624 C.ar    1  UNL1        0.0180
     24 C         -21.8222   -6.8367  -11.1103 C.ar    1  UNL1        0.1061
     25 C         -20.8288   -7.0961  -12.0646 C.ar    1  UNL1        0.0180
     26 C         -21.1810   -7.5034  -13.3539 C.ar    1  UNL1       -0.0029
     27 C         -21.6809   -8.2846  -15.9565 C.3     1  UNL1        0.0050
     28 C         -22.9128   -8.1699  -15.0643 C.3     1  UNL1        0.0264
@<TRIPOS>BOND
     1    27    28    1
     2    28    21    1
     3    21    22   ar
     4    22    23   ar
     5    23    24   ar
     6    24    18    1
     7    18    19    2
     8    18    20    2
     9    18    17    1
    10    17     1    1
    11     1     2   ar
    12     2     3   ar
    13     3     4   ar
    14     4     6    1
    15     6     7    2
    16     6     8   am
    17     8    10    1
    18    10    11    1
    19    11    12   ar
    20    12    13   ar
    21    13    14   ar
    22    14    15   ar
    23    15    16   ar
    24     4     5   ar
    25    24    25   ar
    26    25    26   ar
    27    26    21   ar
    28     5     1   ar
    29    16    11   ar
    30     8     9    1
@<TRIPOS>MOLECULE
*****
 28 30 0 0 0
SMALL
GASTEIGER

@<TRIPOS>ATOM
      1 C         -21.0514   -8.9998  -10.4204 C.ar    1  UNL1        0.2051
      2 N         -22.0774   -9.6253   -9.8109 N.ar    1  UNL1       -0.0582
      3 O         -22.1058  -10.8098  -10.3412 O.2     1  UNL1       -0.3279
      4 C         -21.1607  -10.9117  -11.2431 C.ar    1  UNL1        0.3134
      5 N         -20.4456   -9.7751  -11.3433 N.ar    1  UNL1       -0.1854
      6 C         -20.9330  -12.1040  -12.0684 C.2     1  UNL1        0.3025
      7 O         -20.2084  -13.0338  -11.6225 O.2     1  UNL1       -0.2649
      8 N         -21.5386  -12.2167  -13.3646 N.am    1  UNL1       -0.2930
      9 H         -22.0989  -11.4190  -13.7411 H       1  UNL1        0.1502
     10 C         -21.4136  -13.4182  -14.1862 C.3     1  UNL1        0.1168
     11 C         -22.7690  -13.8792  -14.6487 C.ar    1  UNL1        0.0005
     12 C         -22.8932  -14.9186  -15.5823 C.ar    1  UNL1        0.0181
     13 C         -24.1652  -15.3250  -15.9934 C.ar    1  UNL1        0.0986
     14 N         -25.2722  -14.7195  -15.4870 N.ar    1  UNL1       -0.2423
     15 C         -25.1806  -13.7122  -14.5786 C.ar    1  UNL1        0.0986
     16 C         -23.9282  -13.2728  -14.1434 C.ar    1  UNL1        0.0181
     17 C         -20.7450   -7.5478  -10.2409 C.3     1  UNL1        0.2245
     18 S         -21.7100   -6.5462  -11.3740 S.O2    1  UNL1        0.0162
     19 O         -22.9301   -6.0294  -10.6645 O.2     1  UNL1       -0.1682
     20 O         -20.8873   -5.3700  -11.8207 O.2     1  UNL1       -0.1682
     21 C         -22.9045   -9.1867  -14.9079 C.ar    1  UNL1       -0.0221
     22 C         -23.8167   -8.9358  -13.8708 C.ar    1  UNL1       -0.0029
     23 C         -23.4698   -8.0869  -12.8166 C.ar    1  UNL1        0.0180
     24 C         -22.2082   -7.4784  -12.7872 C.ar    1  UNL1        0.1061
     25 C         -21.3001   -7.7170  -13.8279 C.ar    1  UNL1        0.0180
     26 C         -21.6433   -8.5710  -14.8792 C.ar    1  UNL1       -0.0029
     27 C         -21.9723  -10.6933  -16.6558 C.3     1  UNL1        0.0050
     28 C         -23.2431  -10.1771  -15.9883 C.3     1  UNL1        0.0264
@<TRIPOS>BOND
     1    27    28    1
     2    28    21    1
     3    21    22   ar
     4    22    23   ar
     5    23    24   ar
     6    24    18    1
     7    18    19    2
     8    18    20    2
     9    18    17    1
    10    17     1    1
    11     1     2   ar
    12     2     3   ar
    13     3     4   ar
    14     4     6    1
    15     6     7    2
    16     6     8   am
    17     8    10    1
    18    10    11    1
    19    11    12   ar
    20    12    13   ar
    21    13    14   ar
    22    14    15   ar
    23    15    16   ar
    24     4     5   ar
    25    24    25   ar
    26    25    26   ar
    27    26    21   ar
    28     5     1   ar
    29    16    11   ar
    30     8     9    1
@<TRIPOS>MOLECULE
*****
 28 30 0 0 0
SMALL
GASTEIGER

@<TRIPOS>ATOM
      1 C         -25.2993  -12.5476  -13.5381 C.ar    1  UNL1        0.2051
      2 N         -24.6527  -12.5851  -12.3567 N.ar    1  UNL1       -0.0582
      3 O         -24.3661  -11.3462  -12.0959 O.2     1  UNL1       -0.3279
      4 C         -24.7953  -10.5804  -13.0687 C.ar    1  UNL1        0.3134
      5 N         -25.4056  -11.2967  -14.0319 N.ar    1  UNL1       -0.1854
      6 C         -24.6022   -9.1262  -13.1203 C.2     1  UNL1        0.3025
      7 O         -25.5138   -8.3994  -13.5992 O.2     1  UNL1       -0.2649
      8 N         -23.3938   -8.5357  -12.6198 N.am    1  UNL1       -0.2930
      9 H         -22.6274   -9.1531  -12.2684 H       1  UNL1        0.1502
     10 C         -23.1907   -7.0899  -12.5692 C.3     1  UNL1        0.1168
     11 C         -22.5518   -6.6966  -11.2650 C.ar    1  UNL1        0.0005
     12 C         -22.2151   -5.3599  -11.0054 C.ar    1  UNL1        0.0181
     13 C         -21.6225   -5.0248   -9.7852 C.ar    1  UNL1        0.0986
     14 N         -21.3801   -5.9880   -8.8568 N.ar    1  UNL1       -0.2423
     15 C         -21.6994   -7.2902   -9.0811 C.ar    1  UNL1        0.0986
     16 C         -22.2900   -7.6689  -10.2889 C.ar    1  UNL1        0.0181
     17 C         -25.6784  -13.7691  -14.3118 C.3     1  UNL1        0.2245
     18 S         -24.3650  -14.2460  -15.4369 S.O2    1  UNL1        0.0162
     19 O         -23.5531  -15.3471  -14.8142 O.2     1  UNL1       -0.1682
     20 O         -24.9682  -14.7647  -16.7124 O.2     1  UNL1       -0.1682
     21 C         -21.7855  -10.5553  -16.2189 C.ar    1  UNL1       -0.0221
     22 C         -21.4467  -11.4521  -15.1935 C.ar    1  UNL1       -0.0029
     23 C         -22.2052  -12.6073  -14.9879 C.ar    1  UNL1        0.0180
     24 C         -23.3100  -12.8802  -15.8050 C.ar    1  UNL1        0.1061
     25 C         -23.6430  -11.9930  -16.8379 C.ar    1  UNL1        0.0180
     26 C         -22.8893  -10.8340  -17.0402 C.ar    1  UNL1       -0.0029
     27 C         -21.9846   -8.0771  -16.3339 C.3     1  UNL1        0.0050
     28 C         -21.0283   -9.2648  -16.3745 C.3     1  UNL1        0.0264
@<TRIPOS>BOND
     1    27    28    1
     2    28    21    1
     3    21    22   ar
     4    22    23   ar
     5    23    24   ar
     6    24    18    1
     7    18    19    2
     8    18    20    2
     9    18    17    1
    10    17     1    1
    11     1     2   ar
    12     2     3   ar
    13     3     4   ar
    14     4     6    1
    15     6     7    2
    16     6     8   am
    17     8    10    1
    18    10    11    1
    19    11    12   ar
    20    12    13   ar
    21    13    14   ar
    22    14    15   ar
    23    15    16   ar
    24     4     5   ar
    25    24    25   ar
    26    25    26   ar
    27    26    21   ar
    28     5     1   ar
    29    16    11   ar
    30     8     9    1
@<TRIPOS>MOLECULE
*****
 28 30 0 0 0
SMALL
GASTEIGER

@<TRIPOS>ATOM
      1 C         -21.1552   -9.4463  -11.0784 C.ar    1  UNL1        0.2051
      2 N         -20.1509  -10.3063  -10.8194 N.ar    1  UNL1       -0.0582
      3 O         -19.6931   -9.9422   -9.6606 O.2     1  UNL1       -0.3279
      4 C         -20.3636   -8.9026   -9.2286 C.ar    1  UNL1        0.3134
      5 N         -21.3210   -8.5323  -10.1001 N.ar    1  UNL1       -0.1854
      6 C         -20.0821   -8.2050   -7.9682 C.2     1  UNL1        0.3025
      7 O         -20.3348   -6.9737   -7.8747 O.2     1  UNL1       -0.2649
      8 N         -19.5365   -8.9187   -6.8491 N.am    1  UNL1       -0.2930
      9 H         -19.2885   -9.9283   -6.9549 H       1  UNL1        0.1502
     10 C         -19.3205   -8.2897   -5.5483 C.3     1  UNL1        0.1168
     11 C         -17.8496   -8.2169   -5.2401 C.ar    1  UNL1        0.0005
     12 C         -17.1518   -9.3514   -4.8002 C.ar    1  UNL1        0.0181
     13 C         -15.7862   -9.2532   -4.5213 C.ar    1  UNL1        0.0986
     14 N         -15.1404   -8.0674   -4.6810 N.ar    1  UNL1       -0.2423
     15 C         -15.7916   -6.9535   -5.1091 C.ar    1  UNL1        0.0986
     16 C         -17.1577   -7.0070   -5.3956 C.ar    1  UNL1        0.0181
     17 C         -21.8725   -9.3840  -12.3884 C.3     1  UNL1        0.2245
     18 S         -23.4921  -10.1458  -12.2670 S.O2    1  UNL1        0.0162
     19 O         -23.8385  -10.3481  -10.8184 O.2     1  UNL1       -0.1682
     20 O         -24.5177   -9.2312  -12.8766 O.2     1  UNL1       -0.1682
     21 C         -23.6526  -14.0392  -14.6550 C.ar    1  UNL1       -0.0221
     22 C         -22.4378  -13.3534  -14.4990 C.ar    1  UNL1       -0.0029
     23 C         -22.3785  -12.1911  -13.7258 C.ar    1  UNL1        0.0180
     24 C         -23.5318  -11.7016  -13.0989 C.ar    1  UNL1        0.1061
     25 C         -24.7435  -12.3914  -13.2425 C.ar    1  UNL1        0.0180
     26 C         -24.8056  -13.5500  -14.0210 C.ar    1  UNL1       -0.0029
     27 C         -24.9612  -15.1319  -16.4683 C.3     1  UNL1        0.0050
     28 C         -23.7345  -15.2326  -15.5672 C.3     1  UNL1        0.0264
@<TRIPOS>BOND
     1    27    28    1
     2    28    21    1
     3    21    22   ar
     4    22    23   ar
     5    23    24   ar
     6    24    18    1
     7    18    19    2
     8    18    20    2
     9    18    17    1
    10    17     1    1
    11     1     2   ar
    12     2     3   ar
    13     3     4   ar
    14     4     6    1
    15     6     7    2
    16     6     8   am
    17     8    10    1
    18    10    11    1
    19    11    12   ar
    20    12    13   ar
    21    13    14   ar
    22    14    15   ar
    23    15    16   ar
    24     4     5   ar
    25    24    25   ar
    26    25    26   ar
    27    26    21   ar
    28     5     1   ar
    29    16    11   ar
    30     8     9    1
@<TRIPOS>MOLECULE
*****
 28 30 0 0 0
SMALL
GASTEIGER

@<TRIPOS>ATOM
      1 C         -15.3315    0.7581  -13.8656 C.ar    1  UNL1        0.2051
      2 N         -14.3354    1.3866  -13.2114 N.ar    1  UNL1       -0.0582
      3 O         -14.9318    2.1012  -12.3066 O.2     1  UNL1       -0.3279
      4 C         -16.2287    1.9403  -12.4022 C.ar    1  UNL1        0.3134
      5 N         -16.5513    1.0859  -13.3918 N.ar    1  UNL1       -0.1854
      6 C         -17.2103    2.6338  -11.5596 C.2     1  UNL1        0.3025
      7 O         -16.8289    3.5793  -10.8186 O.2     1  UNL1       -0.2649
      8 N         -18.5925    2.2486  -11.5873 N.am    1  UNL1       -0.2930
      9 H         -18.8871    1.4333  -12.1708 H       1  UNL1        0.1502
     10 C         -19.6205    2.9632  -10.8344 C.3     1  UNL1        0.1168
     11 C         -20.9732    2.3557  -11.0895 C.ar    1  UNL1        0.0005
     12 C         -22.0349    2.5688  -10.1979 C.ar    1  UNL1        0.0181
     13 C         -23.2798    1.9914  -10.4609 C.ar    1  UNL1        0.0986
     14 N         -23.4591    1.2340  -11.5756 N.ar    1  UNL1       -0.2423
     15 C         -22.4484    1.0143  -12.4579 C.ar    1  UNL1        0.0986
     16 C         -21.1870    1.5699  -12.2311 C.ar    1  UNL1        0.0181
     17 C         -15.1241   -0.0529  -15.1040 C.3     1  UNL1        0.2245
     18 S         -14.0328    0.7950  -16.2479 S.O2    1  UNL1        0.0162
     19 O         -14.1224    2.2770  -16.0137 O.2     1  UNL1       -0.1682
     20 O         -12.6160    0.3600  -15.9968 O.2     1  UNL1       -0.1682
     21 C         -14.8832   -0.0623  -20.6557 C.ar    1  UNL1       -0.0221
     22 C         -14.4816   -1.0978  -19.7973 C.ar    1  UNL1       -0.0029
     23 C         -14.2719   -0.8462  -18.4390 C.ar    1  UNL1        0.0180
     24 C         -14.4621    0.4422  -17.9228 C.ar    1  UNL1        0.1061
     25 C         -14.8754    1.4753  -18.7752 C.ar    1  UNL1        0.0180
     26 C         -15.0789    1.2266  -20.1350 C.ar    1  UNL1       -0.0029
     27 C         -16.4773   -0.2731  -22.5553 C.3     1  UNL1        0.0050
     28 C         -15.0120   -0.3133  -22.1333 C.3     1  UNL1        0.0264
@<TRIPOS>BOND
     1    27    28    1
     2    28    21    1
     3    21    22   ar
     4    22    23   ar
     5    23    24   ar
     6    24    18    1
     7    18    19    2
     8    18    20    2
     9    18    17    1
    10    17     1    1
    11     1     2   ar
    12     2     3   ar
    13     3     4   ar
    14     4     6    1
    15     6     7    2
    16     6     8   am
    17     8    10    1
    18    10    11    1
    19    11    12   ar
    20    12    13   ar
    21    13    14   ar
    22    14    15   ar
    23    15    16   ar
    24     4     5   ar
    25    24    25   ar
    26    25    26   ar
    27    26    21   ar
    28     5     1   ar
    29    16    11   ar
    30     8     9    1
@<TRIPOS>MOLECULE
*****
 28 30 0 0 0
SMALL
GASTEIGER

@<TRIPOS>ATOM
      1 C         -20.7300   -8.3378  -10.2634 C.ar    1  UNL1        0.2051
      2 N         -21.5871   -7.3937   -9.8283 N.ar    1  UNL1       -0.0582
      3 O         -21.1740   -7.0955   -8.6344 O.2     1  UNL1       -0.3279
      4 C         -20.1275   -7.8251   -8.3351 C.ar    1  UNL1        0.3134
      5 N         -19.7917   -8.6494   -9.3456 N.ar    1  UNL1       -0.1854
      6 C         -19.4298   -7.7767   -7.0446 C.2     1  UNL1        0.3025
      7 O         -18.3978   -7.0628   -6.9275 O.2     1  UNL1       -0.2649
      8 N         -19.9236   -8.5242   -5.9234 N.am    1  UNL1       -0.2930
      9 H         -20.7529   -9.1480   -6.0468 H       1  UNL1        0.1502
     10 C         -19.3163   -8.4410   -4.5974 C.3     1  UNL1        0.1168
     11 C         -17.8950   -8.9329   -4.6410 C.ar    1  UNL1        0.0005
     12 C         -17.5962  -10.2226   -5.1048 C.ar    1  UNL1        0.0181
     13 C         -16.2669  -10.6519   -5.1333 C.ar    1  UNL1        0.0986
     14 N         -15.2725   -9.8223   -4.7192 N.ar    1  UNL1       -0.2423
     15 C         -15.5338   -8.5666   -4.2685 C.ar    1  UNL1        0.0986
     16 C         -16.8491   -8.0990   -4.2200 C.ar    1  UNL1        0.0181
     17 C         -20.9152   -9.0982  -11.5369 C.3     1  UNL1        0.2245
     18 S         -21.2300  -10.8329  -11.2055 S.O2    1  UNL1        0.0162
     19 O         -19.9421  -11.5072  -10.8233 O.2     1  UNL1       -0.1682
     20 O         -22.1878  -10.9521  -10.0530 O.2     1  UNL1       -0.1682
     21 C         -23.0782  -13.1321  -14.6961 C.ar    1  UNL1       -0.0221
     22 C         -23.8464  -12.2081  -13.9705 C.ar    1  UNL1       -0.0029
     23 C         -23.2675  -11.4673  -12.9369 C.ar    1  UNL1        0.0180
     24 C         -21.9145  -11.6405  -12.6173 C.ar    1  UNL1        0.1061
     25 C         -21.1418  -12.5531  -13.3486 C.ar    1  UNL1        0.0180
     26 C         -21.7212  -13.2995  -14.3780 C.ar    1  UNL1       -0.0029
     27 C         -25.0121  -14.6160  -15.1985 C.3     1  UNL1        0.0050
     28 C         -23.7270  -13.9985  -15.7408 C.3     1  UNL1        0.0264
@<TRIPOS>BOND
     1    27    28    1
     2    28    21    1
     3    21    22   ar
     4    22    23   ar
     5    23    24   ar
     6    24    18    1
     7    18    19    2
     8    18    20    2
     9    18    17    1
    10    17     1    1
    11     1     2   ar
    12     2     3   ar
    13     3     4   ar
    14     4     6    1
    15     6     7    2
    16     6     8   am
    17     8    10    1
    18    10    11    1
    19    11    12   ar
    20    12    13   ar
    21    13    14   ar
    22    14    15   ar
    23    15    16   ar
    24     4     5   ar
    25    24    25   ar
    26    25    26   ar
    27    26    21   ar
    28     5     1   ar
    29    16    11   ar
    30     8     9    1
@<TRIPOS>MOLECULE
*****
 28 30 0 0 0
SMALL
GASTEIGER

@<TRIPOS>ATOM
      1 C         -20.5865   -9.6722  -10.6920 C.ar    1  UNL1        0.2051
      2 N         -20.7682  -10.9554  -10.3235 N.ar    1  UNL1       -0.0582
      3 O         -21.2786  -11.5316  -11.3687 O.2     1  UNL1       -0.3279
      4 C         -21.4228  -10.6529  -12.3300 C.ar    1  UNL1        0.3134
      5 N         -20.9958   -9.4322  -11.9548 N.ar    1  UNL1       -0.1854
      6 C         -22.0112  -10.9532  -13.6408 C.2     1  UNL1        0.3025
      7 O         -21.3804  -11.6896  -14.4461 O.2     1  UNL1       -0.2649
      8 N         -23.2967  -10.4248  -13.9983 N.am    1  UNL1       -0.2930
      9 H         -23.7876   -9.7783  -13.3402 H       1  UNL1        0.1502
     10 C         -23.9622  -10.7649  -15.2535 C.3     1  UNL1        0.1168
     11 C         -24.5698  -12.1387  -15.1681 C.ar    1  UNL1        0.0005
     12 C         -24.1971  -13.1453  -16.0711 C.ar    1  UNL1        0.0181
     13 C         -24.7788  -14.4115  -15.9674 C.ar    1  UNL1        0.0986
     14 N         -25.6946  -14.6645  -14.9948 N.ar    1  UNL1       -0.2423
     15 C         -26.0712  -13.7084  -14.1048 C.ar    1  UNL1        0.0986
     16 C         -25.5170  -12.4281  -14.1752 C.ar    1  UNL1        0.0181
     17 C         -20.1675   -8.5925   -9.7470 C.3     1  UNL1        0.2245
     18 S         -21.5956   -7.8309   -8.9732 S.O2    1  UNL1        0.0162
     19 O         -21.8906   -8.5316   -7.6766 O.2     1  UNL1       -0.1682
     20 O         -21.2886   -6.3900   -8.6744 O.2     1  UNL1       -0.1682
     21 C         -25.1218   -8.2188  -11.8546 C.ar    1  UNL1       -0.0221
     22 C         -24.9677   -9.1288  -10.7970 C.ar    1  UNL1       -0.0029
     23 C         -23.9194   -8.9797   -9.8855 C.ar    1  UNL1        0.0180
     24 C         -23.0138   -7.9191  -10.0196 C.ar    1  UNL1        0.1061
     25 C         -23.1727   -7.0015  -11.0672 C.ar    1  UNL1        0.0180
     26 C         -24.2167   -7.1535  -11.9834 C.ar    1  UNL1       -0.0029
     27 C         -26.8106   -7.1084  -13.3069 C.3     1  UNL1        0.0050
     28 C         -26.1904   -8.4383  -12.8903 C.3     1  UNL1        0.0264
@<TRIPOS>BOND
     1    27    28    1
     2    28    21    1
     3    21    22   ar
     4    22    23   ar
     5    23    24   ar
     6    24    18    1
     7    18    19    2
     8    18    20    2
     9    18    17    1
    10    17     1    1
    11     1     2   ar
    12     2     3   ar
    13     3     4   ar
    14     4     6    1
    15     6     7    2
    16     6     8   am
    17     8    10    1
    18    10    11    1
    19    11    12   ar
    20    12    13   ar
    21    13    14   ar
    22    14    15   ar
    23    15    16   ar
    24     4     5   ar
    25    24    25   ar
    26    25    26   ar
    27    26    21   ar
    28     5     1   ar
    29    16    11   ar
    30     8     9    1
