@<TRIPOS>MOLECULE
*****
 60 64 0 0 0
SMALL
GASTEIGER

@<TRIPOS>ATOM
      1 C          51.3976   10.6595  -27.0871 C.ar    1  UNL1        0.0548
      2 C          52.3719   11.5480  -26.6051 C.ar    1  UNL1        0.0077
      3 C          52.0271   12.5475  -25.6958 C.ar    1  UNL1        0.0390
      4 C          50.7075   12.6817  -25.2557 C.ar    1  UNL1        0.1598
      5 C          49.7354   11.7304  -25.6426 C.ar    1  UNL1        0.0993
      6 C          50.0861   10.7478  -26.5879 C.ar    1  UNL1        0.0235
      7 N          52.9188    9.7409  -28.9055 N.am    1  UNL1       -0.3040
      8 C          51.7466    9.6115  -28.0763 C.2     1  UNL1        0.2458
      9 O          50.9903    8.6106  -28.1996 O.2     1  UNL1       -0.2701
     10 H          53.3890   10.6744  -28.9247 H       1  UNL1        0.1496
     11 C          54.8454    9.1259  -30.3034 C.3     1  UNL1        0.0196
     12 C          53.4857    8.6628  -29.7402 C.3     1  UNL1        0.0572
     13 C          53.7148    7.3964  -28.8920 C.3     1  UNL1        0.0196
     14 C          52.5473    8.3534  -30.9232 C.3     1  UNL1        0.0196
     15 N          48.4375   11.7366  -25.0134 N.pl3   1  UNL1       -0.2120
     16 H          48.2460   11.0589  -24.2445 H       1  UNL1        0.1738
     17 S          47.0874   12.7124  -25.5081 S.O2    1  UNL1        0.0745
     18 O          45.8973   12.3931  -24.6470 O.2     1  UNL1       -0.1499
     19 O          47.4532   14.1554  -25.3057 O.2     1  UNL1       -0.1499
     20 C          46.7081   12.4700  -27.2184 C.ar    1  UNL1        0.1356
     21 C          46.8932   11.2079  -27.7965 C.ar    1  UNL1        0.0207
     22 C          46.6407   10.9994  -29.1532 C.ar    1  UNL1       -0.0028
     23 C          46.1987   12.0602  -29.9695 C.ar    1  UNL1       -0.0207
     24 C          46.0212   13.3251  -29.3884 C.ar    1  UNL1        0.0085
     25 C          46.2734   13.5373  -28.0280 C.ar    1  UNL1        0.0762
     26 CL         46.0567   15.1628  -27.3876 Cl      1  UNL1       -0.0809
     27 C          45.9232   11.9217  -31.4569 C.3     1  UNL1        0.0329
     28 C          44.6052   12.5047  -31.9566 C.3     1  UNL1        0.0160
     29 C          45.9231   13.1898  -32.3011 C.3     1  UNL1        0.0482
     30 S          46.4517   12.9193  -34.0214 S.3     1  UNL1       -0.1685
     31 H          45.6637   13.9877  -34.4886 H       1  UNL1        0.1023
     32 O          50.3790   13.7830  -24.4538 O.3     1  UNL1       -0.4513
     33 C          50.7621   13.8859  -23.1079 C.ar    1  UNL1        0.1580
     34 C          52.1086   13.6939  -22.7773 C.ar    1  UNL1        0.0677
     35 C          52.5192   13.6808  -21.4409 C.ar    1  UNL1        0.1398
     36 F          53.8190   13.4184  -21.1524 F       1  UNL1       -0.2044
     37 C          51.5871   13.9134  -20.4143 C.ar    1  UNL1        0.0175
     38 C          50.2505   14.1774  -20.7494 C.ar    1  UNL1        0.0130
     39 C          49.8332   14.1682  -22.0833 C.ar    1  UNL1        0.0919
     40 CL         48.1488   14.5441  -22.4225 Cl      1  UNL1       -0.0791
     41 C          51.9799   13.8183  -18.9637 C.3     1  UNL1        0.1382
     42 C          51.9293   12.3891  -18.5280 C.2     1  UNL1        0.3234
     43 O          52.9184   11.6357  -18.7398 O.2     1  UNL1       -0.2497
     44 O          50.8166   11.9244  -17.8207 O.3     1  UNL1       -0.4215
     45 C          49.6912   11.3259  -18.4584 C.3     1  UNL1        0.3207
     46 O          49.9298   11.2513  -19.8540 O.3     1  UNL1       -0.3070
     47 C          48.8884   10.5333  -20.4943 C.3     1  UNL1        0.2456
     48 C          47.5489   11.2966  -20.3672 C.3     1  UNL1        0.1781
     49 O          46.5021   10.5900  -20.9875 O.3     1  UNL1       -0.3790
     50 C          47.2253   11.5557  -18.8812 C.3     1  UNL1        0.1733
     51 O          46.1295   12.4267  -18.7703 O.3     1  UNL1       -0.3793
     52 C          48.4398   12.1774  -18.1771 C.3     1  UNL1        0.2106
     53 O          48.1932   12.2330  -16.7961 O.3     1  UNL1       -0.3766
     54 H          46.4269    9.7074  -20.5382 H       1  UNL1        0.2106
     55 H          45.3137   11.8838  -18.9303 H       1  UNL1        0.2105
     56 H          48.8113   12.9121  -16.4188 H       1  UNL1        0.2107
     57 C          49.2432   10.3491  -21.9432 C.2     1  UNL1        0.3439
     58 O          50.4355   10.4908  -22.3243 O.2     1  UNL1       -0.2475
     59 O          48.2562   10.0699  -22.8845 O.3     1  UNL1       -0.4785
     60 H          47.2839    9.9761  -22.6162 H       1  UNL1        0.2951
@<TRIPOS>BOND
     1    11    12    1
     2    12    13    1
     3    12    14    1
     4    12     7    1
     5     7     8   am
     6     8     9    2
     7     8     1    1
     8     1     2   ar
     9     2     3   ar
    10     3     4   ar
    11     4    32    1
    12    32    33    1
    13    33    34   ar
    14    34    35   ar
    15    35    36    1
    16    35    37   ar
    17    37    41    1
    18    41    42    1
    19    42    43    2
    20    42    44    1
    21    44    45    1
    22    45    46    1
    23    46    47    1
    24    47    57    1
    25    57    58    2
    26    57    59    1
    27    47    48    1
    28    48    49    1
    29    48    50    1
    30    50    51    1
    31    50    52    1
    32    52    53    1
    33    37    38   ar
    34    38    39   ar
    35    39    40    1
    36     4     5   ar
    37     5    15    1
    38    15    17    1
    39    17    18    2
    40    17    19    2
    41    17    20    1
    42    20    21   ar
    43    21    22   ar
    44    22    23   ar
    45    23    27    1
    46    27    28    1
    47    28    29    1
    48    29    30    1
    49    23    24   ar
    50    24    25   ar
    51    25    26    1
    52     5     6   ar
    53     6     1   ar
    54    39    33   ar
    55    25    20   ar
    56    52    45    1
    57    29    27    1
    58     7    10    1
    59    59    60    1
    60    49    54    1
    61    51    55    1
    62    53    56    1
    63    15    16    1
    64    30    31    1
@<TRIPOS>MOLECULE
*****
 60 64 0 0 0
SMALL
GASTEIGER

@<TRIPOS>ATOM
      1 C          47.8825   14.7427  -25.5454 C.ar    1  UNL1        0.0548
      2 C          46.7041   14.6599  -24.7868 C.ar    1  UNL1        0.0077
      3 C          46.4408   13.5296  -24.0136 C.ar    1  UNL1        0.0390
      4 C          47.3428   12.4625  -23.9869 C.ar    1  UNL1        0.1598
      5 C          48.5844   12.5724  -24.6547 C.ar    1  UNL1        0.0993
      6 C          48.8240   13.7020  -25.4603 C.ar    1  UNL1        0.0235
      7 N          48.2367   17.2457  -25.8170 N.am    1  UNL1       -0.3040
      8 C          48.1593   15.9268  -26.3938 C.2     1  UNL1        0.2458
      9 O          48.3056   15.7686  -27.6359 O.2     1  UNL1       -0.2701
     10 H          47.8975   17.3574  -24.8345 H       1  UNL1        0.1496
     11 C          48.3466   19.6994  -25.7075 C.3     1  UNL1        0.0196
     12 C          48.7371   18.4455  -26.5173 C.3     1  UNL1        0.0572
     13 C          50.2737   18.3958  -26.6286 C.3     1  UNL1        0.0196
     14 C          48.1013   18.5512  -27.9174 C.3     1  UNL1        0.0196
     15 N          49.6026   11.5731  -24.4421 N.pl3   1  UNL1       -0.2120
     16 H          49.3340   10.6625  -24.0110 H       1  UNL1        0.1738
     17 S          51.3013   11.7934  -24.7351 S.O2    1  UNL1        0.0745
     18 O          51.6160   13.2629  -24.7715 O.2     1  UNL1       -0.1499
     19 O          52.0578   11.1684  -23.5975 O.2     1  UNL1       -0.1499
     20 C          51.8048   11.0059  -26.2363 C.ar    1  UNL1        0.1356
     21 C          52.5693   11.7180  -27.1691 C.ar    1  UNL1        0.0207
     22 C          52.9453   11.1340  -28.3797 C.ar    1  UNL1       -0.0028
     23 C          52.5562    9.8148  -28.6884 C.ar    1  UNL1       -0.0207
     24 C          51.7843    9.1069  -27.7546 C.ar    1  UNL1        0.0085
     25 C          51.4059    9.6896  -26.5395 C.ar    1  UNL1        0.0762
     26 CL         50.4095    8.7426  -25.4396 Cl      1  UNL1       -0.0809
     27 C          52.9049    9.1156  -29.9911 C.3     1  UNL1        0.0329
     28 C          53.9193    7.9803  -29.8976 C.3     1  UNL1        0.0160
     29 C          52.4505    7.6723  -30.1672 C.3     1  UNL1        0.0482
     30 S          52.1110    7.2217  -31.8974 S.3     1  UNL1       -0.1685
     31 H          52.4508    5.8750  -31.6701 H       1  UNL1        0.1023
     32 O          46.9737   11.2920  -23.3106 O.3     1  UNL1       -0.4513
     33 C          47.0919   11.1468  -21.9200 C.ar    1  UNL1        0.1580
     34 C          46.2316   11.8792  -21.0937 C.ar    1  UNL1        0.0677
     35 C          46.3818   11.8492  -19.7040 C.ar    1  UNL1        0.1398
     36 F          45.5785   12.6286  -18.9365 F       1  UNL1       -0.2044
     37 C          47.3701   11.0385  -19.1186 C.ar    1  UNL1        0.0175
     38 C          48.1854   10.2489  -19.9434 C.ar    1  UNL1        0.0130
     39 C          48.0525   10.2946  -21.3339 C.ar    1  UNL1        0.0919
     40 CL         49.0880    9.2476  -22.2957 Cl      1  UNL1       -0.0791
     41 C          47.6151   11.0519  -17.6329 C.3     1  UNL1        0.1382
     42 C          48.5548   12.1643  -17.2944 C.2     1  UNL1        0.3234
     43 O          48.1232   13.1865  -16.6946 O.2     1  UNL1       -0.2497
     44 O          49.9167   12.0244  -17.5770 O.3     1  UNL1       -0.4215
     45 C          50.6347   12.9468  -18.3926 C.3     1  UNL1        0.3207
     46 O          49.9497   13.1146  -19.6225 O.3     1  UNL1       -0.3070
     47 C          50.5653   14.1319  -20.3947 C.3     1  UNL1        0.2456
     48 C          51.9975   13.7103  -20.7996 C.3     1  UNL1        0.1781
     49 O          52.6268   14.7156  -21.5565 O.3     1  UNL1       -0.3790
     50 C          52.8270   13.3755  -19.5425 C.3     1  UNL1        0.1733
     51 O          54.0497   12.7923  -19.9120 O.3     1  UNL1       -0.3793
     52 C          52.0525   12.4016  -18.6430 C.3     1  UNL1        0.2106
     53 O          52.7365   12.2557  -17.4257 O.3     1  UNL1       -0.3766
     54 H          52.6663   15.5345  -20.9958 H       1  UNL1        0.2106
     55 H          54.6459   13.5325  -20.1992 H       1  UNL1        0.2105
     56 H          52.4204   11.4086  -17.0158 H       1  UNL1        0.2107
     57 C          49.7337   14.3828  -21.6213 C.2     1  UNL1        0.3439
     58 O          48.4817   14.2532  -21.5728 O.2     1  UNL1       -0.2475
     59 O          50.3378   14.7113  -22.8319 O.3     1  UNL1       -0.4785
     60 H          51.3440   14.7973  -22.9123 H       1  UNL1        0.2951
@<TRIPOS>BOND
     1    11    12    1
     2    12    13    1
     3    12    14    1
     4    12     7    1
     5     7     8   am
     6     8     9    2
     7     8     1    1
     8     1     2   ar
     9     2     3   ar
    10     3     4   ar
    11     4    32    1
    12    32    33    1
    13    33    34   ar
    14    34    35   ar
    15    35    36    1
    16    35    37   ar
    17    37    41    1
    18    41    42    1
    19    42    43    2
    20    42    44    1
    21    44    45    1
    22    45    46    1
    23    46    47    1
    24    47    57    1
    25    57    58    2
    26    57    59    1
    27    47    48    1
    28    48    49    1
    29    48    50    1
    30    50    51    1
    31    50    52    1
    32    52    53    1
    33    37    38   ar
    34    38    39   ar
    35    39    40    1
    36     4     5   ar
    37     5    15    1
    38    15    17    1
    39    17    18    2
    40    17    19    2
    41    17    20    1
    42    20    21   ar
    43    21    22   ar
    44    22    23   ar
    45    23    27    1
    46    27    28    1
    47    28    29    1
    48    29    30    1
    49    23    24   ar
    50    24    25   ar
    51    25    26    1
    52     5     6   ar
    53     6     1   ar
    54    39    33   ar
    55    25    20   ar
    56    52    45    1
    57    29    27    1
    58     7    10    1
    59    59    60    1
    60    49    54    1
    61    51    55    1
    62    53    56    1
    63    15    16    1
    64    30    31    1
@<TRIPOS>MOLECULE
*****
 60 64 0 0 0
SMALL
GASTEIGER

@<TRIPOS>ATOM
      1 C          48.6572   11.7198  -18.5763 C.ar    1  UNL1        0.0548
      2 C          47.3772   11.6327  -19.1462 C.ar    1  UNL1        0.0077
      3 C          47.2134   11.7137  -20.5287 C.ar    1  UNL1        0.0390
      4 C          48.3194   11.8873  -21.3651 C.ar    1  UNL1        0.1598
      5 C          49.6245   11.8664  -20.8211 C.ar    1  UNL1        0.0993
      6 C          49.7759   11.8199  -19.4222 C.ar    1  UNL1        0.0235
      7 N          50.0334   12.1913  -16.4911 N.am    1  UNL1       -0.3040
      8 C          48.8407   11.6643  -17.1060 C.2     1  UNL1        0.2458
      9 O          47.9461   11.1285  -16.3978 O.2     1  UNL1       -0.2701
     10 H          50.8330   12.4240  -17.1229 H       1  UNL1        0.1496
     11 C          51.6334   12.9470  -14.7842 C.3     1  UNL1        0.0196
     12 C          50.2122   12.4037  -15.0408 C.3     1  UNL1        0.0572
     13 C          49.1937   13.4388  -14.5240 C.3     1  UNL1        0.0196
     14 C          50.0547   11.0713  -14.2821 C.3     1  UNL1        0.0196
     15 N          50.7662   11.8177  -21.7013 N.pl3   1  UNL1       -0.2120
     16 H          51.1042   10.8910  -22.0390 H       1  UNL1        0.1738
     17 S          51.7305   13.1852  -22.1701 S.O2    1  UNL1        0.0745
     18 O          52.2331   13.8880  -20.9400 O.2     1  UNL1       -0.1499
     19 O          52.9107   12.6806  -22.9509 O.2     1  UNL1       -0.1499
     20 C          50.8175   14.2964  -23.1993 C.ar    1  UNL1        0.1356
     21 C          51.1112   14.3735  -24.5665 C.ar    1  UNL1        0.0207
     22 C          50.4342   15.2711  -25.3934 C.ar    1  UNL1       -0.0028
     23 C          49.4433   16.1228  -24.8642 C.ar    1  UNL1       -0.0207
     24 C          49.1567   16.0478  -23.4927 C.ar    1  UNL1        0.0085
     25 C          49.8337   15.1485  -22.6608 C.ar    1  UNL1        0.0762
     26 CL         49.4354   15.1430  -20.9460 Cl      1  UNL1       -0.0809
     27 C          48.6774   17.1413  -25.6909 C.3     1  UNL1        0.0329
     28 C          47.1657   16.9514  -25.7648 C.3     1  UNL1        0.0160
     29 C          47.7525   18.1030  -24.9557 C.3     1  UNL1        0.0482
     30 S          47.5857   19.7206  -25.7725 S.3     1  UNL1       -0.1685
     31 H          46.2848   19.9023  -25.2675 H       1  UNL1        0.1023
     32 O          48.0966   12.1041  -22.7315 O.3     1  UNL1       -0.4513
     33 C          48.7311   11.3555  -23.7345 C.ar    1  UNL1        0.1580
     34 C          49.4399   10.2059  -23.3663 C.ar    1  UNL1        0.0677
     35 C          50.1759    9.4886  -24.3142 C.ar    1  UNL1        0.1398
     36 F          50.9111    8.4221  -23.9096 F       1  UNL1       -0.2044
     37 C          50.1684    9.8876  -25.6623 C.ar    1  UNL1        0.0175
     38 C          49.4000   10.9977  -26.0439 C.ar    1  UNL1        0.0130
     39 C          48.6819   11.7301  -25.0945 C.ar    1  UNL1        0.0919
     40 CL         47.7147   13.0864  -25.6588 Cl      1  UNL1       -0.0791
     41 C          51.0198    9.1902  -26.6901 C.3     1  UNL1        0.1382
     42 C          51.9130   10.1878  -27.3549 C.2     1  UNL1        0.3234
     43 O          52.3550   11.1681  -26.6957 O.2     1  UNL1       -0.2497
     44 O          52.3115    9.9799  -28.6787 O.3     1  UNL1       -0.4215
     45 C          53.0296    8.8215  -29.0959 C.3     1  UNL1        0.3207
     46 O          54.3685    9.1827  -29.3906 O.3     1  UNL1       -0.3070
     47 C          55.1402    8.0270  -29.6719 C.3     1  UNL1        0.2456
     48 C          54.6295    7.3368  -30.9586 C.3     1  UNL1        0.1781
     49 O          55.3778    6.1801  -31.2444 O.3     1  UNL1       -0.3790
     50 C          53.1315    6.9951  -30.8182 C.3     1  UNL1        0.1733
     51 O          52.6162    6.5664  -32.0520 O.3     1  UNL1       -0.3793
     52 C          52.3508    8.2294  -30.3444 C.3     1  UNL1        0.2106
     53 O          51.0317    7.8533  -30.0451 O.3     1  UNL1       -0.3766
     54 H          55.2820    5.5612  -30.4735 H       1  UNL1        0.2106
     55 H          52.8972    5.6213  -32.1679 H       1  UNL1        0.2105
     56 H          50.4828    8.6802  -30.0675 H       1  UNL1        0.2107
     57 C          56.5786    8.4303  -29.8374 C.2     1  UNL1        0.3439
     58 O          57.4753    7.5498  -29.9241 O.2     1  UNL1       -0.2475
     59 O          56.9411    9.7745  -29.8472 O.3     1  UNL1       -0.4785
     60 H          56.2484   10.5075  -29.7527 H       1  UNL1        0.2951
@<TRIPOS>BOND
     1    11    12    1
     2    12    13    1
     3    12    14    1
     4    12     7    1
     5     7     8   am
     6     8     9    2
     7     8     1    1
     8     1     2   ar
     9     2     3   ar
    10     3     4   ar
    11     4    32    1
    12    32    33    1
    13    33    34   ar
    14    34    35   ar
    15    35    36    1
    16    35    37   ar
    17    37    41    1
    18    41    42    1
    19    42    43    2
    20    42    44    1
    21    44    45    1
    22    45    46    1
    23    46    47    1
    24    47    57    1
    25    57    58    2
    26    57    59    1
    27    47    48    1
    28    48    49    1
    29    48    50    1
    30    50    51    1
    31    50    52    1
    32    52    53    1
    33    37    38   ar
    34    38    39   ar
    35    39    40    1
    36     4     5   ar
    37     5    15    1
    38    15    17    1
    39    17    18    2
    40    17    19    2
    41    17    20    1
    42    20    21   ar
    43    21    22   ar
    44    22    23   ar
    45    23    27    1
    46    27    28    1
    47    28    29    1
    48    29    30    1
    49    23    24   ar
    50    24    25   ar
    51    25    26    1
    52     5     6   ar
    53     6     1   ar
    54    39    33   ar
    55    25    20   ar
    56    52    45    1
    57    29    27    1
    58     7    10    1
    59    59    60    1
    60    49    54    1
    61    51    55    1
    62    53    56    1
    63    15    16    1
    64    30    31    1
@<TRIPOS>MOLECULE
*****
 60 64 0 0 0
SMALL
GASTEIGER

@<TRIPOS>ATOM
      1 C          48.6656   14.2022  -25.8113 C.ar    1  UNL1        0.0548
      2 C          48.6427   15.4440  -25.1570 C.ar    1  UNL1        0.0077
      3 C          49.6830   15.8115  -24.3040 C.ar    1  UNL1        0.0390
      4 C          50.7594   14.9475  -24.0849 C.ar    1  UNL1        0.1598
      5 C          50.8561   13.7422  -24.8181 C.ar    1  UNL1        0.0993
      6 C          49.7837   13.3653  -25.6488 C.ar    1  UNL1        0.0235
      7 N          47.5827   12.5184  -27.3786 N.am    1  UNL1       -0.3040
      8 C          47.5512   13.7887  -26.6976 C.2     1  UNL1        0.2458
      9 O          46.5802   14.5746  -26.8666 O.2     1  UNL1       -0.2701
     10 H          48.4916   12.0021  -27.3834 H       1  UNL1        0.1496
     11 C          46.9020   10.6072  -28.7672 C.3     1  UNL1        0.0196
     12 C          46.4367   11.9095  -28.0831 C.3     1  UNL1        0.0572
     13 C          45.3186   11.5614  -27.0809 C.3     1  UNL1        0.0196
     14 C          45.9057   12.8676  -29.1675 C.3     1  UNL1        0.0196
     15 N          52.0699   12.9650  -24.7610 N.pl3   1  UNL1       -0.2120
     16 H          52.9693   13.4123  -25.0402 H       1  UNL1        0.1738
     17 S          52.1607   11.2733  -24.3738 S.O2    1  UNL1        0.0745
     18 O          53.5740   10.9206  -24.0021 O.2     1  UNL1       -0.1499
     19 O          51.2740   11.0157  -23.1887 O.2     1  UNL1       -0.1499
     20 C          51.5965   10.2723  -25.7180 C.ar    1  UNL1        0.1356
     21 C          50.6768    9.2439  -25.4770 C.ar    1  UNL1        0.0207
     22 C          50.2464    8.4130  -26.5125 C.ar    1  UNL1       -0.0028
     23 C          50.7355    8.5912  -27.8225 C.ar    1  UNL1       -0.0207
     24 C          51.6622    9.6181  -28.0588 C.ar    1  UNL1        0.0085
     25 C          52.0956   10.4532  -27.0225 C.ar    1  UNL1        0.0762
     26 CL         53.2850   11.6951  -27.3998 Cl      1  UNL1       -0.0809
     27 C          50.3349    7.7174  -28.9986 C.3     1  UNL1        0.0329
     28 C          49.2050    8.2445  -29.8774 C.3     1  UNL1        0.0160
     29 C          50.6370    8.2302  -30.4010 C.3     1  UNL1        0.0482
     30 S          50.9534    6.9056  -31.6082 S.3     1  UNL1       -0.1685
     31 H          50.4699    7.6874  -32.6739 H       1  UNL1        0.1023
     32 O          51.7092   15.2955  -23.1152 O.3     1  UNL1       -0.4513
     33 C          51.7860   14.6649  -21.8640 C.ar    1  UNL1        0.1580
     34 C          53.0081   14.1099  -21.4666 C.ar    1  UNL1        0.0677
     35 C          53.1060   13.3797  -20.2784 C.ar    1  UNL1        0.1398
     36 F          54.2875   12.7927  -19.9601 F       1  UNL1       -0.2044
     37 C          51.9847   13.2398  -19.4419 C.ar    1  UNL1        0.0175
     38 C          50.7781   13.8571  -19.8048 C.ar    1  UNL1        0.0130
     39 C          50.6715   14.5680  -21.0034 C.ar    1  UNL1        0.0919
     40 CL         49.1351   15.3426  -21.3684 Cl      1  UNL1       -0.0791
     41 C          52.0343   12.3869  -18.2019 C.3     1  UNL1        0.1382
     42 C          50.6525   11.9334  -17.8554 C.2     1  UNL1        0.3234
     43 O          49.9526   12.6149  -17.0576 O.2     1  UNL1       -0.2497
     44 O          50.1231   10.8006  -18.4806 O.3     1  UNL1       -0.4215
     45 C          48.8660   10.8061  -19.1523 C.3     1  UNL1        0.3207
     46 O          49.0266   11.3772  -20.4399 O.3     1  UNL1       -0.3070
     47 C          47.8234   11.2664  -21.1818 C.3     1  UNL1        0.2456
     48 C          46.7025   12.1026  -20.5206 C.3     1  UNL1        0.1781
     49 O          45.4976   11.9928  -21.2387 O.3     1  UNL1       -0.3790
     50 C          46.5053   11.6607  -19.0556 C.3     1  UNL1        0.1733
     51 O          45.6455   12.5521  -18.3939 O.3     1  UNL1       -0.3793
     52 C          47.8570   11.6265  -18.3281 C.3     1  UNL1        0.2106
     53 O          47.6836   11.0477  -17.0609 O.3     1  UNL1       -0.3766
     54 H          45.2379   11.0341  -21.2466 H       1  UNL1        0.2106
     55 H          44.7209   12.3159  -18.6676 H       1  UNL1        0.2105
     56 H          48.4561   11.3309  -16.5052 H       1  UNL1        0.2107
     57 C          48.0697   11.7485  -22.5839 C.2     1  UNL1        0.3439
     58 O          47.6747   12.8912  -22.9373 O.2     1  UNL1       -0.2475
     59 O          48.6898   10.9234  -23.5183 O.3     1  UNL1       -0.4785
     60 H          48.9957    9.9888  -23.2749 H       1  UNL1        0.2951
@<TRIPOS>BOND
     1    11    12    1
     2    12    13    1
     3    12    14    1
     4    12     7    1
     5     7     8   am
     6     8     9    2
     7     8     1    1
     8     1     2   ar
     9     2     3   ar
    10     3     4   ar
    11     4    32    1
    12    32    33    1
    13    33    34   ar
    14    34    35   ar
    15    35    36    1
    16    35    37   ar
    17    37    41    1
    18    41    42    1
    19    42    43    2
    20    42    44    1
    21    44    45    1
    22    45    46    1
    23    46    47    1
    24    47    57    1
    25    57    58    2
    26    57    59    1
    27    47    48    1
    28    48    49    1
    29    48    50    1
    30    50    51    1
    31    50    52    1
    32    52    53    1
    33    37    38   ar
    34    38    39   ar
    35    39    40    1
    36     4     5   ar
    37     5    15    1
    38    15    17    1
    39    17    18    2
    40    17    19    2
    41    17    20    1
    42    20    21   ar
    43    21    22   ar
    44    22    23   ar
    45    23    27    1
    46    27    28    1
    47    28    29    1
    48    29    30    1
    49    23    24   ar
    50    24    25   ar
    51    25    26    1
    52     5     6   ar
    53     6     1   ar
    54    39    33   ar
    55    25    20   ar
    56    52    45    1
    57    29    27    1
    58     7    10    1
    59    59    60    1
    60    49    54    1
    61    51    55    1
    62    53    56    1
    63    15    16    1
    64    30    31    1
@<TRIPOS>MOLECULE
*****
 60 64 0 0 0
SMALL
GASTEIGER

@<TRIPOS>ATOM
      1 C          48.3244   12.3323  -18.9622 C.ar    1  UNL1        0.0548
      2 C          49.5213   12.0058  -19.6192 C.ar    1  UNL1        0.0077
      3 C          49.5058   11.6006  -20.9535 C.ar    1  UNL1        0.0390
      4 C          48.2995   11.5093  -21.6532 C.ar    1  UNL1        0.1598
      5 C          47.0976   11.9388  -21.0446 C.ar    1  UNL1        0.0993
      6 C          47.1198   12.3119  -19.6872 C.ar    1  UNL1        0.0235
      7 N          49.1009   12.0071  -16.5631 N.am    1  UNL1       -0.3040
      8 C          48.3255   12.7362  -17.5355 C.2     1  UNL1        0.2458
      9 O          47.6197   13.7172  -17.1769 O.2     1  UNL1       -0.2701
     10 H          49.4912   11.0837  -16.8593 H       1  UNL1        0.1496
     11 C          50.8830   12.6398  -14.9921 C.3     1  UNL1        0.0196
     12 C          49.3626   12.4584  -15.1817 C.3     1  UNL1        0.0572
     13 C          48.6739   13.8131  -14.9240 C.3     1  UNL1        0.0196
     14 C          48.8672   11.4044  -14.1721 C.3     1  UNL1        0.0196
     15 N          45.8973   12.0579  -21.8357 N.pl3   1  UNL1       -0.2120
     16 H          44.9740   11.8934  -21.3801 H       1  UNL1        0.1738
     17 S          45.8495   12.3407  -23.5496 S.O2    1  UNL1        0.0745
     18 O          46.3175   11.1088  -24.2729 O.2     1  UNL1       -0.1499
     19 O          44.4247   12.6144  -23.9396 O.2     1  UNL1       -0.1499
     20 C          46.8280   13.7431  -24.0000 C.ar    1  UNL1        0.1356
     21 C          47.3237   14.5911  -23.0016 C.ar    1  UNL1        0.0207
     22 C          48.0639   15.7273  -23.3316 C.ar    1  UNL1       -0.0028
     23 C          48.3221   16.0456  -24.6804 C.ar    1  UNL1       -0.0207
     24 C          47.8179   15.1976  -25.6782 C.ar    1  UNL1        0.0085
     25 C          47.0753   14.0573  -25.3505 C.ar    1  UNL1        0.0762
     26 CL         46.4522   13.0664  -26.6655 Cl      1  UNL1       -0.0809
     27 C          49.0991   17.2733  -25.1234 C.3     1  UNL1        0.0329
     28 C          50.5114   17.0268  -25.6444 C.3     1  UNL1        0.0160
     29 C          49.4001   17.4264  -26.6089 C.3     1  UNL1        0.0482
     30 S          49.5045   19.1590  -27.1559 S.3     1  UNL1       -0.1685
     31 H          50.4111   18.8368  -28.1830 H       1  UNL1        0.1023
     32 O          48.3152   10.9649  -22.9444 O.3     1  UNL1       -0.4513
     33 C          49.4351   11.0359  -23.7868 C.ar    1  UNL1        0.1580
     34 C          49.7348   12.2567  -24.4027 C.ar    1  UNL1        0.0677
     35 C          50.7752   12.3494  -25.3319 C.ar    1  UNL1        0.1398
     36 F          50.9912   13.5301  -25.9652 F       1  UNL1       -0.2044
     37 C          51.5672   11.2237  -25.6187 C.ar    1  UNL1        0.0175
     38 C          51.3127   10.0181  -24.9478 C.ar    1  UNL1        0.0130
     39 C          50.2586    9.9168  -24.0356 C.ar    1  UNL1        0.0919
     40 CL         50.0279    8.3812  -23.2097 Cl      1  UNL1       -0.0791
     41 C          52.6366   11.2679  -26.6780 C.3     1  UNL1        0.1382
     42 C          52.2038   10.4541  -27.8551 C.2     1  UNL1        0.3234
     43 O          51.0114   10.0503  -27.9313 O.2     1  UNL1       -0.2497
     44 O          53.1058   10.2165  -28.8963 O.3     1  UNL1       -0.4215
     45 C          53.4901    8.9048  -29.3006 C.3     1  UNL1        0.3207
     46 O          54.8801    8.8901  -29.5792 O.3     1  UNL1       -0.3070
     47 C          55.3152    7.5675  -29.8467 C.3     1  UNL1        0.2456
     48 C          54.6523    7.0320  -31.1378 C.3     1  UNL1        0.1781
     49 O          55.0646    5.7146  -31.4102 O.3     1  UNL1       -0.3790
     50 C          53.1161    7.1073  -31.0156 C.3     1  UNL1        0.1733
     51 O          52.5187    6.8252  -32.2546 O.3     1  UNL1       -0.3793
     52 C          52.6914    8.5093  -30.5559 C.3     1  UNL1        0.2106
     53 O          51.3163    8.5043  -30.2725 O.3     1  UNL1       -0.3766
     54 H          54.7967    5.1495  -30.6387 H       1  UNL1        0.2106
     55 H          52.5361    5.8385  -32.3639 H       1  UNL1        0.2105
     56 H          51.0108    9.4483  -30.3045 H       1  UNL1        0.2107
     57 C          56.8108    7.5674  -29.9950 C.2     1  UNL1        0.3439
     58 O          57.4928    8.5126  -29.5172 O.2     1  UNL1       -0.2475
     59 O          57.4528    6.5536  -30.7010 O.3     1  UNL1       -0.4785
     60 H          56.9321    5.7929  -31.1209 H       1  UNL1        0.2951
@<TRIPOS>BOND
     1    11    12    1
     2    12    13    1
     3    12    14    1
     4    12     7    1
     5     7     8   am
     6     8     9    2
     7     8     1    1
     8     1     2   ar
     9     2     3   ar
    10     3     4   ar
    11     4    32    1
    12    32    33    1
    13    33    34   ar
    14    34    35   ar
    15    35    36    1
    16    35    37   ar
    17    37    41    1
    18    41    42    1
    19    42    43    2
    20    42    44    1
    21    44    45    1
    22    45    46    1
    23    46    47    1
    24    47    57    1
    25    57    58    2
    26    57    59    1
    27    47    48    1
    28    48    49    1
    29    48    50    1
    30    50    51    1
    31    50    52    1
    32    52    53    1
    33    37    38   ar
    34    38    39   ar
    35    39    40    1
    36     4     5   ar
    37     5    15    1
    38    15    17    1
    39    17    18    2
    40    17    19    2
    41    17    20    1
    42    20    21   ar
    43    21    22   ar
    44    22    23   ar
    45    23    27    1
    46    27    28    1
    47    28    29    1
    48    29    30    1
    49    23    24   ar
    50    24    25   ar
    51    25    26    1
    52     5     6   ar
    53     6     1   ar
    54    39    33   ar
    55    25    20   ar
    56    52    45    1
    57    29    27    1
    58     7    10    1
    59    59    60    1
    60    49    54    1
    61    51    55    1
    62    53    56    1
    63    15    16    1
    64    30    31    1
@<TRIPOS>MOLECULE
*****
 60 64 0 0 0
SMALL
GASTEIGER

@<TRIPOS>ATOM
      1 C          48.7194   13.9033  -25.6672 C.ar    1  UNL1        0.0548
      2 C          48.7254   15.1978  -25.1240 C.ar    1  UNL1        0.0077
      3 C          49.7517   15.5997  -24.2697 C.ar    1  UNL1        0.0390
      4 C          50.7850   14.7188  -23.9388 C.ar    1  UNL1        0.1598
      5 C          50.8566   13.4510  -24.5610 C.ar    1  UNL1        0.0993
      6 C          49.7971   13.0428  -25.3935 C.ar    1  UNL1        0.0235
      7 N          47.7493   12.2577  -27.3451 N.am    1  UNL1       -0.3040
      8 C          47.6181   13.4553  -26.5533 C.2     1  UNL1        0.2458
      9 O          46.5682   14.1495  -26.6230 O.2     1  UNL1       -0.2701
     10 H          48.7040   11.8392  -27.4228 H       1  UNL1        0.1496
     11 C          47.1708   10.3024  -28.7186 C.3     1  UNL1        0.0196
     12 C          46.6431   11.5974  -28.0667 C.3     1  UNL1        0.0572
     13 C          45.5141   11.2246  -27.0857 C.3     1  UNL1        0.0196
     14 C          46.1047   12.5191  -29.1786 C.3     1  UNL1        0.0196
     15 N          52.0358   12.6372  -24.3940 N.pl3   1  UNL1       -0.2120
     16 H          52.9653   13.1039  -24.3219 H       1  UNL1        0.1738
     17 S          52.0678   10.8999  -24.4211 S.O2    1  UNL1        0.0745
     18 O          53.4265   10.4181  -23.9949 O.2     1  UNL1       -0.1499
     19 O          51.0497   10.3972  -23.4374 O.2     1  UNL1       -0.1499
     20 C          51.6521   10.2715  -26.0210 C.ar    1  UNL1        0.1356
     21 C          50.6146    9.3398  -26.1508 C.ar    1  UNL1        0.0207
     22 C          50.2930    8.7972  -27.3959 C.ar    1  UNL1       -0.0028
     23 C          51.0129    9.1745  -28.5477 C.ar    1  UNL1       -0.0207
     24 C          52.0563   10.1029  -28.4127 C.ar    1  UNL1        0.0085
     25 C          52.3811   10.6490  -27.1655 C.ar    1  UNL1        0.0762
     26 CL         53.7259   11.7819  -27.0803 Cl      1  UNL1       -0.0809
     27 C          50.7406    8.6149  -29.9334 C.3     1  UNL1        0.0329
     28 C          51.6799    7.5129  -30.4130 C.3     1  UNL1        0.0160
     29 C          50.2408    7.1794  -30.0349 C.3     1  UNL1        0.0482
     30 S          49.1647    6.8830  -31.4723 S.3     1  UNL1       -0.1685
     31 H          49.5566    5.5339  -31.5558 H       1  UNL1        0.1023
     32 O          51.7165   15.1150  -22.9697 O.3     1  UNL1       -0.4513
     33 C          51.7934   14.5221  -21.7003 C.ar    1  UNL1        0.1580
     34 C          53.0110   13.9642  -21.2933 C.ar    1  UNL1        0.0677
     35 C          53.1073   13.2696  -20.0838 C.ar    1  UNL1        0.1398
     36 F          54.2834   12.6778  -19.7546 F       1  UNL1       -0.2044
     37 C          51.9896   13.1695  -19.2368 C.ar    1  UNL1        0.0175
     38 C          50.7885   13.7904  -19.6113 C.ar    1  UNL1        0.0130
     39 C          50.6831   14.4656  -20.8305 C.ar    1  UNL1        0.0919
     40 CL         49.1543   15.2479  -21.2101 Cl      1  UNL1       -0.0791
     41 C          52.0364   12.3544  -17.9715 C.3     1  UNL1        0.1382
     42 C          50.6425   12.0566  -17.5206 C.2     1  UNL1        0.3234
     43 O          50.1421   12.7091  -16.5642 O.2     1  UNL1       -0.2497
     44 O          49.8816   11.1119  -18.2154 O.3     1  UNL1       -0.4215
     45 C          49.0520   11.4524  -19.3233 C.3     1  UNL1        0.3207
     46 O          47.7020   11.5134  -18.8948 O.3     1  UNL1       -0.3070
     47 C          46.8732   11.9874  -19.9429 C.3     1  UNL1        0.2456
     48 C          46.8645   10.9838  -21.1201 C.3     1  UNL1        0.1781
     49 O          46.0556   11.4464  -22.1744 O.3     1  UNL1       -0.3790
     50 C          48.3050   10.7293  -21.6105 C.3     1  UNL1        0.1733
     51 O          48.3220    9.6670  -22.5286 O.3     1  UNL1       -0.3793
     52 C          49.2143   10.3861  -20.4218 C.3     1  UNL1        0.2106
     53 O          50.5475   10.3416  -20.8595 O.3     1  UNL1       -0.3766
     54 H          46.4269   12.3155  -22.4798 H       1  UNL1        0.2106
     55 H          48.0116   10.0334  -23.3976 H       1  UNL1        0.2105
     56 H          51.0544    9.8123  -20.1898 H       1  UNL1        0.2107
     57 C          45.4790   12.1761  -19.4139 C.2     1  UNL1        0.3439
     58 O          45.2932   12.7834  -18.3261 O.2     1  UNL1       -0.2475
     59 O          44.3859   11.6421  -20.0909 O.3     1  UNL1       -0.4785
     60 H          44.5023   11.1252  -20.9543 H       1  UNL1        0.2951
@<TRIPOS>BOND
     1    11    12    1
     2    12    13    1
     3    12    14    1
     4    12     7    1
     5     7     8   am
     6     8     9    2
     7     8     1    1
     8     1     2   ar
     9     2     3   ar
    10     3     4   ar
    11     4    32    1
    12    32    33    1
    13    33    34   ar
    14    34    35   ar
    15    35    36    1
    16    35    37   ar
    17    37    41    1
    18    41    42    1
    19    42    43    2
    20    42    44    1
    21    44    45    1
    22    45    46    1
    23    46    47    1
    24    47    57    1
    25    57    58    2
    26    57    59    1
    27    47    48    1
    28    48    49    1
    29    48    50    1
    30    50    51    1
    31    50    52    1
    32    52    53    1
    33    37    38   ar
    34    38    39   ar
    35    39    40    1
    36     4     5   ar
    37     5    15    1
    38    15    17    1
    39    17    18    2
    40    17    19    2
    41    17    20    1
    42    20    21   ar
    43    21    22   ar
    44    22    23   ar
    45    23    27    1
    46    27    28    1
    47    28    29    1
    48    29    30    1
    49    23    24   ar
    50    24    25   ar
    51    25    26    1
    52     5     6   ar
    53     6     1   ar
    54    39    33   ar
    55    25    20   ar
    56    52    45    1
    57    29    27    1
    58     7    10    1
    59    59    60    1
    60    49    54    1
    61    51    55    1
    62    53    56    1
    63    15    16    1
    64    30    31    1
@<TRIPOS>MOLECULE
*****
 60 64 0 0 0
SMALL
GASTEIGER

@<TRIPOS>ATOM
      1 C          50.9836   12.6058  -17.8088 C.ar    1  UNL1        0.0548
      2 C          51.9748   13.2038  -18.6030 C.ar    1  UNL1        0.0077
      3 C          51.8751   13.1784  -19.9938 C.ar    1  UNL1        0.0390
      4 C          50.7907   12.5538  -20.6159 C.ar    1  UNL1        0.1598
      5 C          49.7281   12.0437  -19.8346 C.ar    1  UNL1        0.0993
      6 C          49.8562   12.0430  -18.4326 C.ar    1  UNL1        0.0235
      7 N          49.9176   12.7010  -15.5025 N.am    1  UNL1       -0.3040
      8 C          51.0938   12.6012  -16.3302 C.2     1  UNL1        0.2458
      9 O          52.2363   12.5303  -15.8022 O.2     1  UNL1       -0.2701
     10 H          49.0251   12.9744  -15.9729 H       1  UNL1        0.1496
     11 C          51.0724   13.2125  -13.3932 C.3     1  UNL1        0.0196
     12 C          49.8888   12.4674  -14.0448 C.3     1  UNL1        0.0572
     13 C          48.5786   13.0127  -13.4433 C.3     1  UNL1        0.0196
     14 C          50.0328   10.9630  -13.7416 C.3     1  UNL1        0.0196
     15 N          48.5129   11.6065  -20.4771 N.pl3   1  UNL1       -0.2120
     16 H          47.7031   12.2614  -20.5244 H       1  UNL1        0.1738
     17 S          48.2225   10.0071  -21.0916 S.O2    1  UNL1        0.0745
     18 O          48.6505    8.9928  -20.0681 O.2     1  UNL1       -0.1499
     19 O          46.7465    9.8571  -21.3283 O.2     1  UNL1       -0.1499
     20 C          49.0609    9.7431  -22.6262 C.ar    1  UNL1        0.1356
     21 C          49.9940    8.7045  -22.7356 C.ar    1  UNL1        0.0207
     22 C          50.6996    8.4999  -23.9223 C.ar    1  UNL1       -0.0028
     23 C          50.4888    9.3411  -25.0336 C.ar    1  UNL1       -0.0207
     24 C          49.5583   10.3851  -24.9179 C.ar    1  UNL1        0.0085
     25 C          48.8490   10.5928  -23.7293 C.ar    1  UNL1        0.0762
     26 CL         47.7250   11.9460  -23.6592 Cl      1  UNL1       -0.0809
     27 C          51.2308    9.1995  -26.3514 C.3     1  UNL1        0.0329
     28 C          50.3683    9.1260  -27.6074 C.3     1  UNL1        0.0160
     29 C          51.1928   10.3757  -27.3188 C.3     1  UNL1        0.0482
     30 S          52.6828   10.5152  -28.3544 S.3     1  UNL1       -0.1685
     31 H          51.9630   11.1160  -29.4040 H       1  UNL1        0.1023
     32 O          50.8018   12.4290  -22.0116 O.3     1  UNL1       -0.4513
     33 C          50.5986   13.5165  -22.8747 C.ar    1  UNL1        0.1580
     34 C          49.7568   14.5546  -22.4588 C.ar    1  UNL1        0.0677
     35 C          49.4398   15.6052  -23.3252 C.ar    1  UNL1        0.1398
     36 F          48.5624   16.5561  -22.9159 F       1  UNL1       -0.2044
     37 C          50.0080   15.6557  -24.6102 C.ar    1  UNL1        0.0175
     38 C          50.9082   14.6530  -25.0011 C.ar    1  UNL1        0.0130
     39 C          51.2088   13.5895  -24.1455 C.ar    1  UNL1        0.0919
     40 CL         52.3743   12.3928  -24.6959 Cl      1  UNL1       -0.0791
     41 C          49.6187   16.7244  -25.5971 C.3     1  UNL1        0.1382
     42 C          48.1486   16.6482  -25.8577 C.2     1  UNL1        0.3234
     43 O          47.3712   17.4683  -25.2974 O.2     1  UNL1       -0.2497
     44 O          47.6607   15.7185  -26.7806 O.3     1  UNL1       -0.4215
     45 C          47.1678   14.4369  -26.3984 C.3     1  UNL1        0.3207
     46 O          46.9497   13.6544  -27.5604 O.3     1  UNL1       -0.3070
     47 C          46.5942   12.3294  -27.2028 C.3     1  UNL1        0.2456
     48 C          45.2361   12.3159  -26.4623 C.3     1  UNL1        0.1781
     49 O          44.8752   11.0082  -26.0893 O.3     1  UNL1       -0.3790
     50 C          45.2970   13.2374  -25.2264 C.3     1  UNL1        0.1733
     51 O          44.0142   13.3941  -24.6772 O.3     1  UNL1       -0.3793
     52 C          45.8507   14.6140  -25.6210 C.3     1  UNL1        0.2106
     53 O          46.0726   15.3714  -24.4600 O.3     1  UNL1       -0.3766
     54 H          45.5856   10.6592  -25.4892 H       1  UNL1        0.2106
     55 H          43.8256   12.5746  -24.1494 H       1  UNL1        0.2105
     56 H          46.1045   16.3240  -24.7376 H       1  UNL1        0.2107
     57 C          46.5118   11.4939  -28.4495 C.2     1  UNL1        0.3439
     58 O          46.5588   10.2375  -28.3719 O.2     1  UNL1       -0.2475
     59 O          46.4328   12.0962  -29.7022 O.3     1  UNL1       -0.4785
     60 H          46.4200   13.1042  -29.8022 H       1  UNL1        0.2951
@<TRIPOS>BOND
     1    11    12    1
     2    12    13    1
     3    12    14    1
     4    12     7    1
     5     7     8   am
     6     8     9    2
     7     8     1    1
     8     1     2   ar
     9     2     3   ar
    10     3     4   ar
    11     4    32    1
    12    32    33    1
    13    33    34   ar
    14    34    35   ar
    15    35    36    1
    16    35    37   ar
    17    37    41    1
    18    41    42    1
    19    42    43    2
    20    42    44    1
    21    44    45    1
    22    45    46    1
    23    46    47    1
    24    47    57    1
    25    57    58    2
    26    57    59    1
    27    47    48    1
    28    48    49    1
    29    48    50    1
    30    50    51    1
    31    50    52    1
    32    52    53    1
    33    37    38   ar
    34    38    39   ar
    35    39    40    1
    36     4     5   ar
    37     5    15    1
    38    15    17    1
    39    17    18    2
    40    17    19    2
    41    17    20    1
    42    20    21   ar
    43    21    22   ar
    44    22    23   ar
    45    23    27    1
    46    27    28    1
    47    28    29    1
    48    29    30    1
    49    23    24   ar
    50    24    25   ar
    51    25    26    1
    52     5     6   ar
    53     6     1   ar
    54    39    33   ar
    55    25    20   ar
    56    52    45    1
    57    29    27    1
    58     7    10    1
    59    59    60    1
    60    49    54    1
    61    51    55    1
    62    53    56    1
    63    15    16    1
    64    30    31    1
@<TRIPOS>MOLECULE
*****
 60 64 0 0 0
SMALL
GASTEIGER

@<TRIPOS>ATOM
      1 C          48.3675   11.6071  -19.7816 C.ar    1  UNL1        0.0548
      2 C          46.9648   11.6646  -19.7723 C.ar    1  UNL1        0.0077
      3 C          46.2505   11.6577  -20.9700 C.ar    1  UNL1        0.0390
      4 C          46.9204   11.5984  -22.1951 C.ar    1  UNL1        0.1598
      5 C          48.3239   11.4285  -22.2234 C.ar    1  UNL1        0.0993
      6 C          49.0374   11.4726  -21.0105 C.ar    1  UNL1        0.0235
      7 N          48.8085   12.5876  -17.4776 N.am    1  UNL1       -0.3040
      8 C          49.1386   11.6432  -18.5156 C.2     1  UNL1        0.2458
      9 O          50.1055   10.8485  -18.3655 O.2     1  UNL1       -0.2701
     10 H          48.1520   13.3616  -17.7279 H       1  UNL1        0.1496
     11 C          48.8049   13.7681  -15.3210 C.3     1  UNL1        0.0196
     12 C          49.3449   12.5521  -16.1023 C.3     1  UNL1        0.0572
     13 C          48.8859   11.2679  -15.3840 C.3     1  UNL1        0.0196
     14 C          50.8840   12.6320  -16.1266 C.3     1  UNL1        0.0196
     15 N          48.9852   11.1412  -23.4727 N.pl3   1  UNL1       -0.2120
     16 H          48.4257   11.1440  -24.3524 H       1  UNL1        0.1738
     17 S          50.6470   10.6615  -23.6410 S.O2    1  UNL1        0.0745
     18 O          51.5370   11.7381  -23.0855 O.2     1  UNL1       -0.1499
     19 O          50.8555    9.4064  -22.8421 O.2     1  UNL1       -0.1499
     20 C          51.0525   10.3200  -25.3281 C.ar    1  UNL1        0.1356
     21 C          50.3353    9.3418  -26.0283 C.ar    1  UNL1        0.0207
     22 C          50.6614    9.0238  -27.3476 C.ar    1  UNL1       -0.0028
     23 C          51.7255    9.6799  -27.9990 C.ar    1  UNL1       -0.0207
     24 C          52.4464   10.6543  -27.2920 C.ar    1  UNL1        0.0085
     25 C          52.1216   10.9756  -25.9690 C.ar    1  UNL1        0.0762
     26 CL         53.0986   12.1865  -25.1453 Cl      1  UNL1       -0.0809
     27 C          52.1576    9.3769  -29.4234 C.3     1  UNL1        0.0329
     28 C          53.4987    8.6685  -29.5860 C.3     1  UNL1        0.0160
     29 C          52.1999    7.9176  -29.8585 C.3     1  UNL1        0.0482
     30 S          51.8614    7.6758  -31.6302 S.3     1  UNL1       -0.1685
     31 H          52.6550    6.5146  -31.6788 H       1  UNL1        0.1023
     32 O          46.1732   11.7354  -23.3728 O.3     1  UNL1       -0.4513
     33 C          46.1808   12.9054  -24.1473 C.ar    1  UNL1        0.1580
     34 C          46.5578   14.1091  -23.5403 C.ar    1  UNL1        0.0677
     35 C          46.4783   15.3160  -24.2414 C.ar    1  UNL1        0.1398
     36 F          46.7809   16.4730  -23.5999 F       1  UNL1       -0.2044
     37 C          46.0664   15.3251  -25.5857 C.ar    1  UNL1        0.0175
     38 C          45.7575   14.1101  -26.2157 C.ar    1  UNL1        0.0130
     39 C          45.8139   12.9049  -25.5103 C.ar    1  UNL1        0.0919
     40 CL         45.4466   11.4219  -26.3816 Cl      1  UNL1       -0.0791
     41 C          45.8857   16.6155  -26.3406 C.3     1  UNL1        0.1382
     42 C          46.4819   16.4804  -27.7049 C.2     1  UNL1        0.3234
     43 O          45.8690   15.8273  -28.5930 O.2     1  UNL1       -0.2497
     44 O          47.6745   17.1457  -28.0036 O.3     1  UNL1       -0.4215
     45 C          48.9030   16.8646  -27.3376 C.3     1  UNL1        0.3207
     46 O          48.7322   15.7337  -26.4998 O.3     1  UNL1       -0.3070
     47 C          49.9737   15.3473  -25.9345 C.3     1  UNL1        0.2456
     48 C          50.5061   16.4537  -24.9936 C.3     1  UNL1        0.1781
     49 O          51.7448   16.0902  -24.4339 O.3     1  UNL1       -0.3790
     50 C          50.6250   17.7883  -25.7585 C.3     1  UNL1        0.1733
     51 O          50.9016   18.8346  -24.8639 O.3     1  UNL1       -0.3793
     52 C          49.3153   18.0895  -26.5011 C.3     1  UNL1        0.2106
     53 O          49.5041   19.2032  -27.3348 O.3     1  UNL1       -0.3766
     54 H          52.3841   15.9520  -25.1814 H       1  UNL1        0.2106
     55 H          51.8704   18.7837  -24.6529 H       1  UNL1        0.2105
     56 H          48.6038   19.5704  -27.5353 H       1  UNL1        0.2107
     57 C          49.7836   14.0665  -25.1712 C.2     1  UNL1        0.3439
     58 O          49.2377   13.0760  -25.7257 O.2     1  UNL1       -0.2475
     59 O          50.1616   13.9757  -23.8343 O.3     1  UNL1       -0.4785
     60 H          50.5787   14.7617  -23.3502 H       1  UNL1        0.2951
@<TRIPOS>BOND
     1    11    12    1
     2    12    13    1
     3    12    14    1
     4    12     7    1
     5     7     8   am
     6     8     9    2
     7     8     1    1
     8     1     2   ar
     9     2     3   ar
    10     3     4   ar
    11     4    32    1
    12    32    33    1
    13    33    34   ar
    14    34    35   ar
    15    35    36    1
    16    35    37   ar
    17    37    41    1
    18    41    42    1
    19    42    43    2
    20    42    44    1
    21    44    45    1
    22    45    46    1
    23    46    47    1
    24    47    57    1
    25    57    58    2
    26    57    59    1
    27    47    48    1
    28    48    49    1
    29    48    50    1
    30    50    51    1
    31    50    52    1
    32    52    53    1
    33    37    38   ar
    34    38    39   ar
    35    39    40    1
    36     4     5   ar
    37     5    15    1
    38    15    17    1
    39    17    18    2
    40    17    19    2
    41    17    20    1
    42    20    21   ar
    43    21    22   ar
    44    22    23   ar
    45    23    27    1
    46    27    28    1
    47    28    29    1
    48    29    30    1
    49    23    24   ar
    50    24    25   ar
    51    25    26    1
    52     5     6   ar
    53     6     1   ar
    54    39    33   ar
    55    25    20   ar
    56    52    45    1
    57    29    27    1
    58     7    10    1
    59    59    60    1
    60    49    54    1
    61    51    55    1
    62    53    56    1
    63    15    16    1
    64    30    31    1
@<TRIPOS>MOLECULE
*****
 60 64 0 0 0
SMALL
GASTEIGER

@<TRIPOS>ATOM
      1 C          46.6216   12.9048  -25.6590 C.ar    1  UNL1        0.0548
      2 C          45.7972   12.9720  -24.5247 C.ar    1  UNL1        0.0077
      3 C          46.0331   12.1398  -23.4308 C.ar    1  UNL1        0.0390
      4 C          47.0893   11.2248  -23.4503 C.ar    1  UNL1        0.1598
      5 C          47.9963   11.2185  -24.5351 C.ar    1  UNL1        0.0993
      6 C          47.7281   12.0373  -25.6486 C.ar    1  UNL1        0.0235
      7 N          45.7360   15.0537  -26.6898 N.am    1  UNL1       -0.3040
      8 C          46.3629   13.7641  -26.8394 C.2     1  UNL1        0.2458
      9 O          46.6795   13.3422  -27.9843 O.2     1  UNL1       -0.2701
     10 H          45.2979   15.2668  -25.7649 H       1  UNL1        0.1496
     11 C          45.4818   15.3783  -29.1135 C.3     1  UNL1        0.0196
     12 C          45.6506   16.0788  -27.7491 C.3     1  UNL1        0.0572
     13 C          44.4287   16.9884  -27.5134 C.3     1  UNL1        0.0196
     14 C          46.9435   16.9169  -27.7874 C.3     1  UNL1        0.0196
     15 N          49.2067   10.4386  -24.4517 N.pl3   1  UNL1       -0.2120
     16 H          49.1704    9.4961  -24.0074 H       1  UNL1        0.1738
     17 S          50.7866   10.9842  -24.9274 S.O2    1  UNL1        0.0745
     18 O          50.8137   12.4872  -24.9401 O.2     1  UNL1       -0.1499
     19 O          51.7774   10.4947  -23.9098 O.2     1  UNL1       -0.1499
     20 C          51.2453   10.3345  -26.5069 C.ar    1  UNL1        0.1356
     21 C          50.4472    9.3550  -27.1110 C.ar    1  UNL1        0.0207
     22 C          50.8081    8.7959  -28.3379 C.ar    1  UNL1       -0.0028
     23 C          51.9890    9.2047  -28.9902 C.ar    1  UNL1       -0.0207
     24 C          52.7898   10.1812  -28.3785 C.ar    1  UNL1        0.0085
     25 C          52.4305   10.7439  -27.1484 C.ar    1  UNL1        0.0762
     26 CL         53.5093   11.9387  -26.4356 Cl      1  UNL1       -0.0809
     27 C          52.4630    8.6307  -30.3143 C.3     1  UNL1        0.0329
     28 C          53.4989    7.5139  -30.2339 C.3     1  UNL1        0.0160
     29 C          52.0666    7.1989  -30.6513 C.3     1  UNL1        0.0482
     30 S          51.8828    6.8952  -32.4362 S.3     1  UNL1       -0.1685
     31 H          52.2419    5.5414  -32.2978 H       1  UNL1        0.1023
     32 O          47.2039   10.3136  -22.3918 O.3     1  UNL1       -0.4513
     33 C          47.8871   10.6102  -21.2027 C.ar    1  UNL1        0.1580
     34 C          47.3146   11.5241  -20.3102 C.ar    1  UNL1        0.0677
     35 C          48.0068   11.9312  -19.1658 C.ar    1  UNL1        0.1398
     36 F          47.4544   12.8741  -18.3610 F       1  UNL1       -0.2044
     37 C          49.2683   11.3843  -18.8724 C.ar    1  UNL1        0.0175
     38 C          49.8105   10.4145  -19.7292 C.ar    1  UNL1        0.0130
     39 C          49.1310   10.0229  -20.8860 C.ar    1  UNL1        0.0919
     40 CL         49.8611    8.7757  -21.8885 Cl      1  UNL1       -0.0791
     41 C          50.0767   11.8664  -17.6970 C.3     1  UNL1        0.1382
     42 C          51.3554   12.4669  -18.1863 C.2     1  UNL1        0.3234
     43 O          52.3744   11.7374  -18.3286 O.2     1  UNL1       -0.2497
     44 O          51.3854   13.8150  -18.5554 O.3     1  UNL1       -0.4215
     45 C          51.5865   14.2430  -19.9000 C.3     1  UNL1        0.3207
     46 O          50.3853   14.0648  -20.6317 O.3     1  UNL1       -0.3070
     47 C          50.5150   14.6128  -21.9329 C.3     1  UNL1        0.2456
     48 C          51.5831   13.8385  -22.7408 C.3     1  UNL1        0.1781
     49 O          51.7326   14.3788  -24.0313 O.3     1  UNL1       -0.3790
     50 C          52.9291   13.8492  -21.9868 C.3     1  UNL1        0.1733
     51 O          53.8366   12.9751  -22.6063 O.3     1  UNL1       -0.3793
     52 C          52.7210   13.4140  -20.5292 C.3     1  UNL1        0.2106
     53 O          53.9145   13.6078  -19.8157 O.3     1  UNL1       -0.3766
     54 H          52.0128   15.3263  -23.9305 H       1  UNL1        0.2106
     55 H          54.1938   13.4487  -23.4024 H       1  UNL1        0.2105
     56 H          53.8649   13.0338  -19.0073 H       1  UNL1        0.2107
     57 C          49.1847   14.5365  -22.6282 C.2     1  UNL1        0.3439
     58 O          48.1275   14.4041  -21.9562 O.2     1  UNL1       -0.2475
     59 O          49.1092   14.5614  -24.0182 O.3     1  UNL1       -0.4785
     60 H          49.9420   14.6399  -24.5896 H       1  UNL1        0.2951
@<TRIPOS>BOND
     1    11    12    1
     2    12    13    1
     3    12    14    1
     4    12     7    1
     5     7     8   am
     6     8     9    2
     7     8     1    1
     8     1     2   ar
     9     2     3   ar
    10     3     4   ar
    11     4    32    1
    12    32    33    1
    13    33    34   ar
    14    34    35   ar
    15    35    36    1
    16    35    37   ar
    17    37    41    1
    18    41    42    1
    19    42    43    2
    20    42    44    1
    21    44    45    1
    22    45    46    1
    23    46    47    1
    24    47    57    1
    25    57    58    2
    26    57    59    1
    27    47    48    1
    28    48    49    1
    29    48    50    1
    30    50    51    1
    31    50    52    1
    32    52    53    1
    33    37    38   ar
    34    38    39   ar
    35    39    40    1
    36     4     5   ar
    37     5    15    1
    38    15    17    1
    39    17    18    2
    40    17    19    2
    41    17    20    1
    42    20    21   ar
    43    21    22   ar
    44    22    23   ar
    45    23    27    1
    46    27    28    1
    47    28    29    1
    48    29    30    1
    49    23    24   ar
    50    24    25   ar
    51    25    26    1
    52     5     6   ar
    53     6     1   ar
    54    39    33   ar
    55    25    20   ar
    56    52    45    1
    57    29    27    1
    58     7    10    1
    59    59    60    1
    60    49    54    1
    61    51    55    1
    62    53    56    1
    63    15    16    1
    64    30    31    1
