@<TRIPOS>MOLECULE
*****
 52 58 0 0 0
SMALL
GASTEIGER

@<TRIPOS>ATOM
      1 C          58.3557   83.5397   10.6927 C.ar    1  UNL1        0.0481
      2 C          58.3691   82.2093   10.2460 C.ar    1  UNL1        0.0176
      3 C          58.2447   81.1581   11.1574 C.ar    1  UNL1        0.0382
      4 C          58.1215   81.4104   12.5282 C.ar    1  UNL1        0.1388
      5 C          58.0780   82.7456   12.9746 C.ar    1  UNL1        0.0382
      6 C          58.2033   83.7980   12.0631 C.ar    1  UNL1        0.0176
      7 N          59.3421   86.4968    7.8881 N.pl3   1  UNL1       -0.3041
      8 C          58.9469   85.1661    7.4101 C.3     1  UNL1        0.1122
      9 C          57.9744   84.5199    8.3968 C.3     1  UNL1        0.1122
     10 N          58.5009   84.6289    9.7623 N.pl3   1  UNL1       -0.3041
     11 C          58.8921   85.9602   10.2411 C.3     1  UNL1        0.1122
     12 C          59.8653   86.6073    9.2552 C.3     1  UNL1        0.1122
     13 C          59.8496   89.6959    5.1176 C.ar    1  UNL1        0.0699
     14 C          58.5647   89.2299    5.4457 C.ar    1  UNL1        0.0190
     15 C          58.4016   88.1808    6.3547 C.ar    1  UNL1        0.0160
     16 C          59.5182   87.5747    6.9496 C.ar    1  UNL1        0.0480
     17 C          60.8029   88.0355    6.6202 C.ar    1  UNL1        0.0160
     18 C          60.9670   89.0829    5.7096 C.ar    1  UNL1        0.0190
     19 N          60.8058   92.0950    2.5663 N.ar    1  UNL1       -0.2024
     20 N          59.6890   92.6513    3.0113 N.ar    1  UNL1       -0.1442
     21 C          59.2203   91.8421    3.9860 C.ar    1  UNL1        0.2073
     22 N          60.0259   90.7726    4.1766 N.ar    1  UNL1       -0.2398
     23 C          61.0027   90.9610    3.2672 C.ar    1  UNL1        0.3522
     24 O          61.9575   90.1617    3.0707 O.2     1  UNL1       -0.2444
     25 C          61.6204   92.6560    1.4819 C.3     1  UNL1        0.1099
     26 C          63.0518   92.9116    1.9732 C.3     1  UNL1        0.0265
     27 C          60.1627   91.5546   -0.3071 C.3     1  UNL1        0.0021
     28 C          61.5760   91.7294    0.2488 C.3     1  UNL1        0.0245
     29 O          58.0335   80.3044   13.3894 O.3     1  UNL1       -0.4727
     30 C          59.1183   79.5324   13.9126 C.3     1  UNL1        0.2374
     31 C          60.4788   80.0470   13.4124 C.3     1  UNL1        0.1909
     32 C          61.6607   79.5509   14.1997 C.3     1  UNL1        0.1783
     33 O          62.5461   80.6229   14.3007 O.3     1  UNL1       -0.3271
     34 C          61.9005   81.7386   13.7204 C.3     1  UNL1        0.2232
     35 O          60.5394   81.4360   13.4827 O.3     1  UNL1       -0.3258
     36 C          62.6035   82.1128   12.4088 C.ar    1  UNL1        0.0401
     37 C          61.8415   82.2968   11.2345 C.ar    1  UNL1       -0.0022
     38 C          62.4461   82.6570   10.0200 C.ar    1  UNL1       -0.0114
     39 C          61.6044   82.8308    8.7851 C.3     1  UNL1        0.0319
     40 C          63.8353   82.8617    9.9757 C.ar    1  UNL1        0.0545
     41 CL         64.6515   83.3197    8.4841 Cl      1  UNL1       -0.0825
     42 C          64.5972   82.7170   11.1355 C.ar    1  UNL1        0.0223
     43 C          64.0001   82.3574   12.3478 C.ar    1  UNL1        0.0591
     44 CL         65.0539   82.2605   13.7584 Cl      1  UNL1       -0.0824
     45 C          61.9651   82.9452   14.6815 C.3     1  UNL1        0.1338
     46 N          61.2122   84.1075   14.1483 N.3     1  UNL1       -0.2659
     47 C          62.0850   85.0134   13.3706 C.3     1  UNL1        0.0898
     48 C          62.9469   85.8876   14.2955 C.3     1  UNL1        0.0897
     49 N          62.1492   86.6382   15.2982 N.3     1  UNL1       -0.2691
     50 C          62.7058   86.4919   16.6531 C.3     1  UNL1        0.0897
     51 C          60.7037   86.3301   15.2689 C.3     1  UNL1        0.0897
     52 C          60.4336   84.8148   15.2032 C.3     1  UNL1        0.0898
@<TRIPOS>BOND
     1    27    28    1
     2    28    25    1
     3    25    26    1
     4    25    19    1
     5    19    20   ar
     6    20    21   ar
     7    21    22   ar
     8    22    13    1
     9    13    14   ar
    10    14    15   ar
    11    15    16   ar
    12    16     7    1
    13     7     8    1
    14     8     9    1
    15     9    10    1
    16    10     1    1
    17     1     2   ar
    18     2     3   ar
    19     3     4   ar
    20     4    29    1
    21    29    30    1
    22    30    31    1
    23    31    32    1
    24    32    33    1
    25    33    34    1
    26    34    45    1
    27    45    46    1
    28    46    47    1
    29    47    48    1
    30    48    49    1
    31    49    50    1
    32    49    51    1
    33    51    52    1
    34    34    36    1
    35    36    37   ar
    36    37    38   ar
    37    38    39    1
    38    38    40   ar
    39    40    41    1
    40    40    42   ar
    41    42    43   ar
    42    43    44    1
    43    34    35    1
    44     4     5   ar
    45     5     6   ar
    46    10    11    1
    47    11    12    1
    48    16    17   ar
    49    17    18   ar
    50    22    23   ar
    51    23    24    2
    52    23    19   ar
    53    18    13   ar
    54    12     7    1
    55     6     1   ar
    56    35    31    1
    57    52    46    1
    58    43    36   ar
@<TRIPOS>MOLECULE
*****
 52 58 0 0 0
SMALL
GASTEIGER

@<TRIPOS>ATOM
      1 C          58.6108   83.8772   10.2114 C.ar    1  UNL1        0.0481
      2 C          58.5133   82.5222    9.8593 C.ar    1  UNL1        0.0176
      3 C          58.2267   81.5601   10.8306 C.ar    1  UNL1        0.0382
      4 C          58.0487   81.9258   12.1694 C.ar    1  UNL1        0.1388
      5 C          58.1171   83.2886   12.5189 C.ar    1  UNL1        0.0382
      6 C          58.4045   84.2519   11.5475 C.ar    1  UNL1        0.0176
      7 N          59.0630   87.1013    7.5687 N.pl3   1  UNL1       -0.3041
      8 C          59.6221   87.2066    8.9221 C.3     1  UNL1        0.1122
      9 C          60.0211   85.8231    9.4357 C.3     1  UNL1        0.1122
     10 N          58.9231   84.8736    9.2200 N.pl3   1  UNL1       -0.3041
     11 C          58.3671   84.7658    7.8659 C.3     1  UNL1        0.1122
     12 C          57.9673   86.1490    7.3511 C.3     1  UNL1        0.1122
     13 C          59.9284   90.0993    4.6650 C.ar    1  UNL1        0.0699
     14 C          60.9528   89.2895    5.1853 C.ar    1  UNL1        0.0190
     15 C          60.6657   88.3071    6.1372 C.ar    1  UNL1        0.0160
     16 C          59.3517   88.1180    6.5904 C.ar    1  UNL1        0.0480
     17 C          58.3274   88.9285    6.0756 C.ar    1  UNL1        0.0160
     18 C          58.6139   89.9125    5.1254 C.ar    1  UNL1        0.0190
     19 N          61.2059   92.3711    2.1379 N.ar    1  UNL1       -0.2024
     20 N          60.0052   92.8918    2.3429 N.ar    1  UNL1       -0.1442
     21 C          59.4107   92.1249    3.2826 C.ar    1  UNL1        0.2073
     22 N          60.2176   91.1183    3.6883 N.ar    1  UNL1       -0.2398
     23 C          61.3282   91.3000    2.9466 C.ar    1  UNL1        0.3522
     24 O          62.3371   90.5448    2.9768 O.2     1  UNL1       -0.2444
     25 C          62.1708   92.9030    1.1682 C.3     1  UNL1        0.1099
     26 C          63.5296   93.1309    1.8444 C.3     1  UNL1        0.0265
     27 C          63.7075   91.7693   -0.5324 C.3     1  UNL1        0.0021
     28 C          62.2690   91.9657   -0.0536 C.3     1  UNL1        0.0245
     29 O          57.7957   80.9020   13.0970 O.3     1  UNL1       -0.4727
     30 C          58.7553   80.0246   13.6936 C.3     1  UNL1        0.2374
     31 C          60.1926   80.3845   13.2804 C.3     1  UNL1        0.1909
     32 C          61.2612   79.7716   14.1437 C.3     1  UNL1        0.1783
     33 O          62.2492   80.7427   14.2983 O.3     1  UNL1       -0.3271
     34 C          61.7665   81.9157   13.6743 C.3     1  UNL1        0.2232
     35 O          60.3986   81.7594   13.3504 O.3     1  UNL1       -0.3258
     36 C          62.5880   82.1988   12.4096 C.ar    1  UNL1        0.0401
     37 C          61.9309   82.3617   11.1705 C.ar    1  UNL1       -0.0022
     38 C          62.6460   82.6395    9.9951 C.ar    1  UNL1       -0.0114
     39 C          61.9139   82.7927    8.6897 C.3     1  UNL1        0.0319
     40 C          64.0424   82.7819   10.0552 C.ar    1  UNL1        0.0545
     41 CL         64.9948   83.1354    8.6169 Cl      1  UNL1       -0.0825
     42 C          64.7024   82.6576   11.2782 C.ar    1  UNL1        0.0223
     43 C          63.9950   82.3799   12.4520 C.ar    1  UNL1        0.0591
     44 CL         64.9279   82.3023   13.9463 Cl      1  UNL1       -0.0824
     45 C          61.9001   83.1178   14.6339 C.3     1  UNL1        0.1338
     46 N          61.1314   84.2907   14.1485 N.3     1  UNL1       -0.2659
     47 C          61.9723   85.1964   13.3361 C.3     1  UNL1        0.0898
     48 C          62.8862   86.0556   14.2246 C.3     1  UNL1        0.0897
     49 N          62.1452   86.8037   15.2718 N.3     1  UNL1       -0.2691
     50 C          62.7670   86.6410   16.5962 C.3     1  UNL1        0.0897
     51 C          60.6975   86.5073   15.3115 C.3     1  UNL1        0.0897
     52 C          60.4119   84.9948   15.2466 C.3     1  UNL1        0.0898
@<TRIPOS>BOND
     1    27    28    1
     2    28    25    1
     3    25    26    1
     4    25    19    1
     5    19    20   ar
     6    20    21   ar
     7    21    22   ar
     8    22    13    1
     9    13    14   ar
    10    14    15   ar
    11    15    16   ar
    12    16     7    1
    13     7     8    1
    14     8     9    1
    15     9    10    1
    16    10     1    1
    17     1     2   ar
    18     2     3   ar
    19     3     4   ar
    20     4    29    1
    21    29    30    1
    22    30    31    1
    23    31    32    1
    24    32    33    1
    25    33    34    1
    26    34    45    1
    27    45    46    1
    28    46    47    1
    29    47    48    1
    30    48    49    1
    31    49    50    1
    32    49    51    1
    33    51    52    1
    34    34    36    1
    35    36    37   ar
    36    37    38   ar
    37    38    39    1
    38    38    40   ar
    39    40    41    1
    40    40    42   ar
    41    42    43   ar
    42    43    44    1
    43    34    35    1
    44     4     5   ar
    45     5     6   ar
    46    10    11    1
    47    11    12    1
    48    16    17   ar
    49    17    18   ar
    50    22    23   ar
    51    23    24    2
    52    23    19   ar
    53    18    13   ar
    54    12     7    1
    55     6     1   ar
    56    35    31    1
    57    52    46    1
    58    43    36   ar
@<TRIPOS>MOLECULE
*****
 52 58 0 0 0
SMALL
GASTEIGER

@<TRIPOS>ATOM
      1 C          60.8033   84.8523    9.6636 C.ar    1  UNL1        0.0481
      2 C          61.9891   84.6717   10.3922 C.ar    1  UNL1        0.0176
      3 C          62.0436   83.7387   11.4304 C.ar    1  UNL1        0.0382
      4 C          60.9174   82.9822   11.7725 C.ar    1  UNL1        0.1388
      5 C          59.7356   83.1413   11.0227 C.ar    1  UNL1        0.0382
      6 C          59.6801   84.0753    9.9841 C.ar    1  UNL1        0.0176
      7 N          60.1682   87.9539    6.9140 N.pl3   1  UNL1       -0.3041
      8 C          61.0033   88.2090    8.0942 C.3     1  UNL1        0.1122
      9 C          61.7036   86.9223    8.5314 C.3     1  UNL1        0.1122
     10 N          60.7328   85.8240    8.6034 N.pl3   1  UNL1       -0.3041
     11 C          59.9009   85.5668    7.4218 C.3     1  UNL1        0.1122
     12 C          59.1996   86.8531    6.9838 C.3     1  UNL1        0.1122
     13 C          59.8839   90.8930    3.8402 C.ar    1  UNL1        0.0699
     14 C          58.7845   90.6181    4.6719 C.ar    1  UNL1        0.0190
     15 C          58.8810   89.6539    5.6791 C.ar    1  UNL1        0.0160
     16 C          60.0751   88.9433    5.8717 C.ar    1  UNL1        0.0480
     17 C          61.1732   89.2129    5.0395 C.ar    1  UNL1        0.0160
     18 C          61.0769   90.1753    4.0307 C.ar    1  UNL1        0.0190
     19 N          59.5858   92.8910    0.8238 N.ar    1  UNL1       -0.2024
     20 N          59.6954   93.8470    1.7342 N.ar    1  UNL1       -0.1442
     21 C          59.8162   93.2266    2.9280 C.ar    1  UNL1        0.2073
     22 N          59.7900   91.8810    2.7956 N.ar    1  UNL1       -0.2398
     23 C          59.6381   91.7083    1.4676 C.ar    1  UNL1        0.3522
     24 O          59.5223   90.5871    0.9032 O.2     1  UNL1       -0.2444
     25 C          59.4147   93.1472   -0.6112 C.3     1  UNL1        0.1099
     26 C          60.6702   92.7129   -1.3797 C.3     1  UNL1        0.0265
     27 C          56.9208   93.3794   -1.1263 C.3     1  UNL1        0.0021
     28 C          58.1368   92.4530   -1.1271 C.3     1  UNL1        0.0245
     29 O          61.0354   82.0868   12.8481 O.3     1  UNL1       -0.4727
     30 C          62.0319   82.1010   13.8744 C.3     1  UNL1        0.2374
     31 C          62.3145   83.5272   14.3764 C.3     1  UNL1        0.1909
     32 C          62.0368   83.7395   15.8395 C.3     1  UNL1        0.1783
     33 O          61.4694   85.0076   15.9539 O.3     1  UNL1       -0.3271
     34 C          61.2968   85.4952   14.6382 C.3     1  UNL1        0.2232
     35 O          61.5208   84.4544   13.7070 O.3     1  UNL1       -0.3258
     36 C          62.2696   86.6555   14.3897 C.ar    1  UNL1        0.0401
     37 C          62.3959   87.1967   13.0918 C.ar    1  UNL1       -0.0022
     38 C          63.2615   88.2698   12.8285 C.ar    1  UNL1       -0.0114
     39 C          63.3812   88.8119   11.4302 C.3     1  UNL1        0.0319
     40 C          64.0008   88.8334   13.8819 C.ar    1  UNL1        0.0545
     41 CL         65.0991   90.1840   13.6167 Cl      1  UNL1       -0.0825
     42 C          63.8611   88.3318   15.1763 C.ar    1  UNL1        0.0223
     43 C          63.0010   87.2621   15.4439 C.ar    1  UNL1        0.0591
     44 CL         62.8628   86.7510   17.1259 Cl      1  UNL1       -0.0824
     45 C          59.8526   86.0076   14.4500 C.3     1  UNL1        0.1338
     46 N          59.2347   85.4556   13.2189 N.3     1  UNL1       -0.2659
     47 C          58.9305   86.5187   12.2367 C.3     1  UNL1        0.0898
     48 C          57.6621   87.2936   12.6283 C.3     1  UNL1        0.0897
     49 N          56.4867   86.4136   12.8505 N.3     1  UNL1       -0.2691
     50 C          55.8050   86.7293   14.1165 C.3     1  UNL1        0.0897
     51 C          56.7871   84.9703   12.7409 C.3     1  UNL1        0.0897
     52 C          58.0637   84.5823   13.5111 C.3     1  UNL1        0.0898
@<TRIPOS>BOND
     1    27    28    1
     2    28    25    1
     3    25    26    1
     4    25    19    1
     5    19    20   ar
     6    20    21   ar
     7    21    22   ar
     8    22    13    1
     9    13    14   ar
    10    14    15   ar
    11    15    16   ar
    12    16     7    1
    13     7     8    1
    14     8     9    1
    15     9    10    1
    16    10     1    1
    17     1     2   ar
    18     2     3   ar
    19     3     4   ar
    20     4    29    1
    21    29    30    1
    22    30    31    1
    23    31    32    1
    24    32    33    1
    25    33    34    1
    26    34    45    1
    27    45    46    1
    28    46    47    1
    29    47    48    1
    30    48    49    1
    31    49    50    1
    32    49    51    1
    33    51    52    1
    34    34    36    1
    35    36    37   ar
    36    37    38   ar
    37    38    39    1
    38    38    40   ar
    39    40    41    1
    40    40    42   ar
    41    42    43   ar
    42    43    44    1
    43    34    35    1
    44     4     5   ar
    45     5     6   ar
    46    10    11    1
    47    11    12    1
    48    16    17   ar
    49    17    18   ar
    50    22    23   ar
    51    23    24    2
    52    23    19   ar
    53    18    13   ar
    54    12     7    1
    55     6     1   ar
    56    35    31    1
    57    52    46    1
    58    43    36   ar
@<TRIPOS>MOLECULE
*****
 52 58 0 0 0
SMALL
GASTEIGER

@<TRIPOS>ATOM
      1 C          60.6377   87.2482   11.2804 C.ar    1  UNL1        0.0481
      2 C          59.5131   86.7168   11.9304 C.ar    1  UNL1        0.0176
      3 C          59.6535   86.0462   13.1476 C.ar    1  UNL1        0.0382
      4 C          60.9143   85.8782   13.7307 C.ar    1  UNL1        0.1388
      5 C          62.0398   86.4368   13.0943 C.ar    1  UNL1        0.0382
      6 C          61.9001   87.1074   11.8757 C.ar    1  UNL1        0.0176
      7 N          60.4910   88.7165    7.3553 N.pl3   1  UNL1       -0.3041
      8 C          59.4503   87.7841    7.8057 C.3     1  UNL1        0.1122
      9 C          59.2191   87.9396    9.3089 C.3     1  UNL1        0.1122
     10 N          60.5045   87.9257   10.0168 N.pl3   1  UNL1       -0.3041
     11 C          61.5433   88.8609    9.5687 C.3     1  UNL1        0.1122
     12 C          61.7757   88.7059    8.0654 C.3     1  UNL1        0.1122
     13 C          60.1407   90.6271    3.5613 C.ar    1  UNL1        0.0699
     14 C          61.3718   90.0976    3.9854 C.ar    1  UNL1        0.0190
     15 C          61.4833   89.4715    5.2300 C.ar    1  UNL1        0.0160
     16 C          60.3693   89.3663    6.0759 C.ar    1  UNL1        0.0480
     17 C          59.1395   89.8983    5.6565 C.ar    1  UNL1        0.0160
     18 C          59.0276   90.5265    4.4131 C.ar    1  UNL1        0.0190
     19 N          60.3858   92.0009    0.2099 N.ar    1  UNL1       -0.2024
     20 N          59.2149   92.4934    0.5853 N.ar    1  UNL1       -0.1442
     21 C          58.9982   92.0494    1.8425 C.ar    1  UNL1        0.2073
     22 N          60.0194   91.2796    2.2824 N.ar    1  UNL1       -0.2398
     23 C          60.8650   91.2662    1.2330 C.ar    1  UNL1        0.3522
     24 O          61.9469   90.6201    1.1975 O.2     1  UNL1       -0.2444
     25 C          60.9831   92.2338   -1.1105 C.3     1  UNL1        0.1099
     26 C          60.1521   93.2594   -1.8936 C.3     1  UNL1        0.0265
     27 C          63.4201   91.7303   -1.6986 C.3     1  UNL1        0.0021
     28 C          62.4582   92.6607   -0.9595 C.3     1  UNL1        0.0245
     29 O          60.9843   85.1652   14.9388 O.3     1  UNL1       -0.4727
     30 C          61.8446   84.0622   15.2386 C.3     1  UNL1        0.2374
     31 C          61.6830   82.9192   14.2221 C.3     1  UNL1        0.1909
     32 C          62.9642   82.4834   13.5653 C.3     1  UNL1        0.1783
     33 O          62.6550   82.2210   12.2316 O.3     1  UNL1       -0.3271
     34 C          61.3017   82.5865   12.0493 C.3     1  UNL1        0.2232
     35 O          60.8394   83.2973   13.1814 O.3     1  UNL1       -0.3258
     36 C          60.4558   81.3261   11.8254 C.ar    1  UNL1        0.0401
     37 C          61.0885   80.1099   11.4875 C.ar    1  UNL1       -0.0022
     38 C          60.3507   78.9318   11.2924 C.ar    1  UNL1       -0.0114
     39 C          61.0571   77.6569   10.9192 C.3     1  UNL1        0.0319
     40 C          58.9559   78.9565   11.4595 C.ar    1  UNL1        0.0545
     41 CL         57.9758   77.5110   11.2341 Cl      1  UNL1       -0.0825
     42 C          58.3200   80.1428   11.8267 C.ar    1  UNL1        0.0223
     43 C          59.0502   81.3195   12.0212 C.ar    1  UNL1        0.0591
     44 CL         58.1468   82.7425   12.5395 Cl      1  UNL1       -0.0824
     45 C          61.1639   83.5039   10.8151 C.3     1  UNL1        0.1338
     46 N          61.6241   82.8258    9.5780 N.3     1  UNL1       -0.2659
     47 C          62.4238   83.7308    8.7243 C.3     1  UNL1        0.0898
     48 C          61.5243   84.7110    7.9544 C.3     1  UNL1        0.0897
     49 N          60.4599   84.0334    7.1714 N.3     1  UNL1       -0.2691
     50 C          59.1417   84.6454    7.4059 C.3     1  UNL1        0.0897
     51 C          60.4185   82.5674    7.3566 C.3     1  UNL1        0.0897
     52 C          60.5097   82.1663    8.8413 C.3     1  UNL1        0.0898
@<TRIPOS>BOND
     1    27    28    1
     2    28    25    1
     3    25    26    1
     4    25    19    1
     5    19    20   ar
     6    20    21   ar
     7    21    22   ar
     8    22    13    1
     9    13    14   ar
    10    14    15   ar
    11    15    16   ar
    12    16     7    1
    13     7     8    1
    14     8     9    1
    15     9    10    1
    16    10     1    1
    17     1     2   ar
    18     2     3   ar
    19     3     4   ar
    20     4    29    1
    21    29    30    1
    22    30    31    1
    23    31    32    1
    24    32    33    1
    25    33    34    1
    26    34    45    1
    27    45    46    1
    28    46    47    1
    29    47    48    1
    30    48    49    1
    31    49    50    1
    32    49    51    1
    33    51    52    1
    34    34    36    1
    35    36    37   ar
    36    37    38   ar
    37    38    39    1
    38    38    40   ar
    39    40    41    1
    40    40    42   ar
    41    42    43   ar
    42    43    44    1
    43    34    35    1
    44     4     5   ar
    45     5     6   ar
    46    10    11    1
    47    11    12    1
    48    16    17   ar
    49    17    18   ar
    50    22    23   ar
    51    23    24    2
    52    23    19   ar
    53    18    13   ar
    54    12     7    1
    55     6     1   ar
    56    35    31    1
    57    52    46    1
    58    43    36   ar
