@<TRIPOS>MOLECULE
*****
 43 48 0 0 0
SMALL
GASTEIGER

@<TRIPOS>ATOM
      1 N          -8.5350  -18.6087   22.0854 N.ar    1  UNL1       -0.2357
      2 N          -8.0586  -19.0833   20.9368 N.ar    1  UNL1       -0.1663
      3 C          -6.7710  -18.6741   20.8058 C.ar    1  UNL1        0.1260
      4 C          -6.4466  -17.9078   21.9080 C.ar    1  UNL1        0.0880
      5 C          -5.3290  -17.1727   22.2905 C.ar    1  UNL1        0.1380
      6 N          -5.4297  -16.4279   23.4328 N.ar    1  UNL1       -0.2117
      7 C          -6.5763  -16.4064   24.1909 C.ar    1  UNL1        0.1653
      8 N          -7.6638  -17.1406   23.7974 N.ar    1  UNL1       -0.2079
      9 C          -7.5687  -17.8805   22.6672 C.ar    1  UNL1        0.1652
     10 C         -13.5595  -18.5087   24.6366 C.2     1  UNL1        0.4050
     11 O         -13.6875  -18.9955   25.7941 O.2     1  UNL1       -0.2262
     12 N         -12.2497  -18.2733   24.0863 N.am    1  UNL1       -0.2459
     13 C         -11.0361  -18.5689   24.8646 C.3     1  UNL1        0.0987
     14 C          -9.9686  -19.2567   23.9953 C.3     1  UNL1        0.0461
     15 C          -9.9241  -18.7450   22.5336 C.3     1  UNL1        0.1102
     16 C         -10.6818  -17.4202   22.3547 C.3     1  UNL1        0.0461
     17 C         -12.1424  -17.5926   22.7867 C.3     1  UNL1        0.0987
     18 C         -16.0023  -18.6220   24.2466 C.3     1  UNL1        0.2573
     19 O         -14.6957  -18.1938   23.8824 O.3     1  UNL1       -0.4304
     20 N          -4.1239  -17.1541   21.5102 N.pl3   1  UNL1       -0.2879
     21 C          -2.8218  -17.1333   22.1818 C.3     1  UNL1        0.1242
     22 C          -1.7532  -17.6959   21.2406 C.3     1  UNL1        0.1636
     23 O          -1.7747  -17.0196   19.9971 O.3     1  UNL1       -0.3501
     24 C          -3.0027  -17.2660   19.3369 C.3     1  UNL1        0.1636
     25 C          -4.1759  -16.6768   20.1272 C.3     1  UNL1        0.1242
     26 C          -6.6400  -15.5821   25.4227 C.ar    1  UNL1        0.0360
     27 C          -7.7975  -15.5765   26.2221 C.ar    1  UNL1        0.0043
     28 C          -7.8555  -14.8000   27.3828 C.ar    1  UNL1        0.0148
     29 C          -6.7563  -14.0262   27.7786 C.ar    1  UNL1        0.0516
     30 C          -5.6065  -14.0104   26.9711 C.ar    1  UNL1        0.0148
     31 C          -5.5466  -14.7853   25.8092 C.ar    1  UNL1        0.0043
     32 N          -6.8520  -13.2200   28.9656 N.am    1  UNL1       -0.2681
     33 C          -6.3538  -11.8775   29.0701 C.2     1  UNL1        0.3082
     34 O          -5.5701  -11.4214   28.1933 O.2     1  UNL1       -0.2522
     35 N          -6.6871  -11.0878   30.2221 N.am    1  UNL1       -0.2681
     36 H          -7.2403  -13.6620   29.8294 H       1  UNL1        0.1564
     37 H          -7.0796  -11.5844   31.0537 H       1  UNL1        0.1564
     38 C          -6.4208   -9.6795   30.3400 C.ar    1  UNL1        0.0516
     39 C          -5.4315   -9.2387   31.2335 C.ar    1  UNL1        0.0147
     40 C          -5.1693   -7.8733   31.3823 C.ar    1  UNL1        0.0013
     41 C          -5.9031   -6.9356   30.6515 C.ar    1  UNL1        0.0001
     42 C          -6.9059   -7.3619   29.7770 C.ar    1  UNL1        0.0013
     43 C          -7.1707   -8.7267   29.6246 C.ar    1  UNL1        0.0147
@<TRIPOS>BOND
     1    18    19    1
     2    19    10    1
     3    10    11    2
     4    10    12   am
     5    12    13    1
     6    13    14    1
     7    14    15    1
     8    15     1    1
     9     1     2   ar
    10     2     3   ar
    11     3     4   ar
    12     4     5   ar
    13     5    20    1
    14    20    21    1
    15    21    22    1
    16    22    23    1
    17    23    24    1
    18    24    25    1
    19     5     6   ar
    20     6     7   ar
    21     7    26    1
    22    26    27   ar
    23    27    28   ar
    24    28    29   ar
    25    29    32    1
    26    32    33   am
    27    33    34    2
    28    33    35   am
    29    35    38    1
    30    38    39   ar
    31    39    40   ar
    32    40    41   ar
    33    41    42   ar
    34    42    43   ar
    35    29    30   ar
    36    30    31   ar
    37     7     8   ar
    38     8     9   ar
    39    15    16    1
    40    16    17    1
    41    17    12    1
    42     9     1   ar
    43     9     4   ar
    44    25    20    1
    45    31    26   ar
    46    43    38   ar
    47    32    36    1
    48    35    37    1
@<TRIPOS>MOLECULE
*****
 43 48 0 0 0
SMALL
GASTEIGER

@<TRIPOS>ATOM
      1 N          -9.0526  -18.7658   22.2888 N.ar    1  UNL1       -0.2357
      2 N          -8.5770  -19.2958   21.1643 N.ar    1  UNL1       -0.1663
      3 C          -7.2761  -18.9305   21.0356 C.ar    1  UNL1        0.1260
      4 C          -6.9418  -18.1348   22.1138 C.ar    1  UNL1        0.0880
      5 C          -5.8070  -17.4202   22.4843 C.ar    1  UNL1        0.1380
      6 N          -5.8986  -16.6318   23.5976 N.ar    1  UNL1       -0.2117
      7 C          -7.0531  -16.5484   24.3394 C.ar    1  UNL1        0.1653
      8 N          -8.1576  -17.2634   23.9582 N.ar    1  UNL1       -0.2079
      9 C          -8.0716  -18.0463   22.8567 C.ar    1  UNL1        0.1652
     10 C         -14.0853  -18.4884   24.8104 C.2     1  UNL1        0.4050
     11 O         -14.2480  -19.0068   25.9497 O.2     1  UNL1       -0.2262
     12 N         -12.7606  -18.3036   24.2767 N.am    1  UNL1       -0.2459
     13 C         -11.5705  -18.6890   25.0520 C.3     1  UNL1        0.0987
     14 C         -10.5335  -19.4021   24.1662 C.3     1  UNL1        0.0461
     15 C         -10.4504  -18.8440   22.7233 C.3     1  UNL1        0.1102
     16 C         -11.1362  -17.4758   22.5854 C.3     1  UNL1        0.0461
     17 C         -12.6074  -17.5858   23.0020 C.3     1  UNL1        0.0987
     18 C         -16.3208  -18.9334   23.8425 C.3     1  UNL1        0.2573
     19 O         -15.1974  -18.0887   24.0604 O.3     1  UNL1       -0.4304
     20 N          -4.5926  -17.4661   21.7196 N.pl3   1  UNL1       -0.2879
     21 C          -3.3446  -17.8901   22.3599 C.3     1  UNL1        0.1242
     22 C          -2.3783  -18.4164   21.2953 C.3     1  UNL1        0.1636
     23 O          -2.2050  -17.4647   20.2616 O.3     1  UNL1       -0.3501
     24 C          -3.4283  -17.2727   19.5750 C.3     1  UNL1        0.1636
     25 C          -4.4848  -16.6614   20.5014 C.3     1  UNL1        0.1242
     26 C          -7.1065  -15.6784   25.5398 C.ar    1  UNL1        0.0360
     27 C          -8.2621  -15.6324   26.3407 C.ar    1  UNL1        0.0043
     28 C          -8.3103  -14.8128   27.4719 C.ar    1  UNL1        0.0148
     29 C          -7.2032  -14.0351   27.8366 C.ar    1  UNL1        0.0516
     30 C          -6.0551  -14.0599   27.0269 C.ar    1  UNL1        0.0148
     31 C          -6.0049  -14.8780   25.8944 C.ar    1  UNL1        0.0043
     32 N          -7.2888  -13.1846   28.9931 N.am    1  UNL1       -0.2681
     33 C          -8.5191  -12.6729   29.5276 C.2     1  UNL1        0.3082
     34 O          -9.5811  -12.7381   28.8502 O.2     1  UNL1       -0.2522
     35 N          -8.5149  -12.0119   30.8023 N.am    1  UNL1       -0.2681
     36 H          -6.3970  -12.8566   29.4284 H       1  UNL1        0.1564
     37 H          -7.5919  -11.7140   31.1913 H       1  UNL1        0.1564
     38 C          -9.7027  -11.6450   31.5253 C.ar    1  UNL1        0.0516
     39 C         -10.4146  -12.6321   32.2253 C.ar    1  UNL1        0.0147
     40 C         -11.5845  -12.3047   32.9177 C.ar    1  UNL1        0.0013
     41 C         -12.0618  -10.9918   32.9043 C.ar    1  UNL1        0.0001
     42 C         -11.3742  -10.0062   32.1917 C.ar    1  UNL1        0.0013
     43 C         -10.2032  -10.3294   31.4986 C.ar    1  UNL1        0.0147
@<TRIPOS>BOND
     1    18    19    1
     2    19    10    1
     3    10    11    2
     4    10    12   am
     5    12    13    1
     6    13    14    1
     7    14    15    1
     8    15     1    1
     9     1     2   ar
    10     2     3   ar
    11     3     4   ar
    12     4     5   ar
    13     5    20    1
    14    20    21    1
    15    21    22    1
    16    22    23    1
    17    23    24    1
    18    24    25    1
    19     5     6   ar
    20     6     7   ar
    21     7    26    1
    22    26    27   ar
    23    27    28   ar
    24    28    29   ar
    25    29    32    1
    26    32    33   am
    27    33    34    2
    28    33    35   am
    29    35    38    1
    30    38    39   ar
    31    39    40   ar
    32    40    41   ar
    33    41    42   ar
    34    42    43   ar
    35    29    30   ar
    36    30    31   ar
    37     7     8   ar
    38     8     9   ar
    39    15    16    1
    40    16    17    1
    41    17    12    1
    42     9     1   ar
    43     9     4   ar
    44    25    20    1
    45    31    26   ar
    46    43    38   ar
    47    32    36    1
    48    35    37    1
@<TRIPOS>MOLECULE
*****
 43 48 0 0 0
SMALL
GASTEIGER

@<TRIPOS>ATOM
      1 N         -11.4669   -9.7905   31.5275 N.ar    1  UNL1       -0.2357
      2 N         -12.5003   -9.8549   32.3640 N.ar    1  UNL1       -0.1663
      3 C         -12.7072  -11.1564   32.6892 C.ar    1  UNL1        0.1260
      4 C         -11.7755  -11.9233   32.0176 C.ar    1  UNL1        0.0880
      5 C         -11.5428  -13.2894   31.8943 C.ar    1  UNL1        0.1380
      6 N         -10.5681  -13.6827   31.0197 N.ar    1  UNL1       -0.2117
      7 C          -9.8300  -12.7773   30.2948 C.ar    1  UNL1        0.1653
      8 N         -10.0737  -11.4366   30.4344 N.ar    1  UNL1       -0.2079
      9 C         -11.0375  -11.0421   31.3000 C.ar    1  UNL1        0.1652
     10 C         -10.0489   -4.5920   29.8756 C.2     1  UNL1        0.4050
     11 O         -10.9446   -3.7187   29.7076 O.2     1  UNL1       -0.2262
     12 N         -10.3521   -5.8247   30.5555 N.am    1  UNL1       -0.2459
     13 C         -11.6986   -6.0843   31.0900 C.3     1  UNL1        0.0987
     14 C         -12.1477   -7.5267   30.7965 C.3     1  UNL1        0.0461
     15 C         -11.0022   -8.5675   30.8663 C.3     1  UNL1        0.1102
     16 C          -9.7525   -8.0150   31.5692 C.3     1  UNL1        0.0461
     17 C          -9.2548   -6.7623   30.8392 C.3     1  UNL1        0.0987
     18 C          -7.5903   -4.6661   30.1622 C.3     1  UNL1        0.2573
     19 O          -8.7526   -4.3625   29.4005 O.3     1  UNL1       -0.4304
     20 N         -12.3104  -14.2630   32.6186 N.pl3   1  UNL1       -0.2879
     21 C         -12.0413  -14.4910   34.0407 C.3     1  UNL1        0.1242
     22 C         -13.2881  -15.0779   34.7081 C.3     1  UNL1        0.1636
     23 O         -13.7355  -16.2264   34.0116 O.3     1  UNL1       -0.3501
     24 C         -14.1597  -15.8644   32.7101 C.3     1  UNL1        0.1636
     25 C         -12.9859  -15.3321   31.8811 C.3     1  UNL1        0.1242
     26 C          -8.7830  -13.2505   29.3564 C.ar    1  UNL1        0.0360
     27 C          -7.5324  -12.6091   29.2952 C.ar    1  UNL1        0.0043
     28 C          -6.5468  -13.0568   28.4111 C.ar    1  UNL1        0.0148
     29 C          -6.7815  -14.1618   27.5820 C.ar    1  UNL1        0.0516
     30 C          -8.0370  -14.7914   27.6228 C.ar    1  UNL1        0.0148
     31 C          -9.0247  -14.3446   28.5054 C.ar    1  UNL1        0.0043
     32 N          -5.7571  -14.5870   26.6665 N.am    1  UNL1       -0.2681
     33 C          -6.0132  -15.2872   25.4395 C.2     1  UNL1        0.3082
     34 O          -7.1473  -15.7953   25.2236 O.2     1  UNL1       -0.2522
     35 N          -4.9456  -15.4770   24.4983 N.am    1  UNL1       -0.2681
     36 H          -4.7599  -14.4450   26.9451 H       1  UNL1        0.1564
     37 H          -3.9692  -15.3122   24.8324 H       1  UNL1        0.1564
     38 C          -5.1270  -15.9756   23.1616 C.ar    1  UNL1        0.0516
     39 C          -5.1473  -17.3620   22.9412 C.ar    1  UNL1        0.0147
     40 C          -5.3001  -17.8714   21.6479 C.ar    1  UNL1        0.0013
     41 C          -5.4188  -17.0005   20.5619 C.ar    1  UNL1        0.0001
     42 C          -5.3764  -15.6191   20.7670 C.ar    1  UNL1        0.0013
     43 C          -5.2245  -15.1057   22.0590 C.ar    1  UNL1        0.0147
@<TRIPOS>BOND
     1    18    19    1
     2    19    10    1
     3    10    11    2
     4    10    12   am
     5    12    13    1
     6    13    14    1
     7    14    15    1
     8    15     1    1
     9     1     2   ar
    10     2     3   ar
    11     3     4   ar
    12     4     5   ar
    13     5    20    1
    14    20    21    1
    15    21    22    1
    16    22    23    1
    17    23    24    1
    18    24    25    1
    19     5     6   ar
    20     6     7   ar
    21     7    26    1
    22    26    27   ar
    23    27    28   ar
    24    28    29   ar
    25    29    32    1
    26    32    33   am
    27    33    34    2
    28    33    35   am
    29    35    38    1
    30    38    39   ar
    31    39    40   ar
    32    40    41   ar
    33    41    42   ar
    34    42    43   ar
    35    29    30   ar
    36    30    31   ar
    37     7     8   ar
    38     8     9   ar
    39    15    16    1
    40    16    17    1
    41    17    12    1
    42     9     1   ar
    43     9     4   ar
    44    25    20    1
    45    31    26   ar
    46    43    38   ar
    47    32    36    1
    48    35    37    1
@<TRIPOS>MOLECULE
*****
 43 48 0 0 0
SMALL
GASTEIGER

@<TRIPOS>ATOM
      1 N          -9.8687  -11.2660   32.0589 N.ar    1  UNL1       -0.2357
      2 N          -9.8914  -10.1153   32.7274 N.ar    1  UNL1       -0.1663
      3 C          -8.9595   -9.2886   32.1882 C.ar    1  UNL1        0.1260
      4 C          -8.3302   -9.9598   31.1583 C.ar    1  UNL1        0.0880
      5 C          -7.2688   -9.6671   30.3078 C.ar    1  UNL1        0.1380
      6 N          -6.8455  -10.6604   29.4689 N.ar    1  UNL1       -0.2117
      7 C          -7.4425  -11.8985   29.4448 C.ar    1  UNL1        0.1653
      8 N          -8.4884  -12.1641   30.2887 N.ar    1  UNL1       -0.2079
      9 C          -8.9118  -11.1831   31.1208 C.ar    1  UNL1        0.1652
     10 C         -13.3773  -15.1654   34.1201 C.2     1  UNL1        0.4050
     11 O         -13.3088  -15.4936   35.3370 O.2     1  UNL1       -0.2262
     12 N         -12.6933  -13.9915   33.6428 N.am    1  UNL1       -0.2459
     13 C         -11.9231  -13.1370   34.5609 C.3     1  UNL1        0.0987
     14 C         -10.5827  -12.7116   33.9360 C.3     1  UNL1        0.0461
     15 C         -10.6554  -12.4520   32.4103 C.3     1  UNL1        0.1102
     16 C         -12.1012  -12.3088   31.9100 C.3     1  UNL1        0.0461
     17 C         -12.8972  -13.5748   32.2469 C.3     1  UNL1        0.0987
     18 C         -13.5210  -16.8412   32.3027 C.3     1  UNL1        0.2573
     19 O         -14.1231  -15.9445   33.2281 O.3     1  UNL1       -0.4304
     20 N          -6.6075   -8.3926   30.3230 N.pl3   1  UNL1       -0.2879
     21 C          -7.1967   -7.2581   29.6070 C.3     1  UNL1        0.1242
     22 C          -6.6903   -5.9495   30.2198 C.3     1  UNL1        0.1636
     23 O          -5.2755   -5.9332   30.2674 O.3     1  UNL1       -0.3501
     24 C          -4.8122   -6.9446   31.1432 C.3     1  UNL1        0.1636
     25 C          -5.1734   -8.3356   30.6113 C.3     1  UNL1        0.1242
     26 C          -6.9482  -12.9464   28.5182 C.ar    1  UNL1        0.0360
     27 C          -7.6737  -14.1368   28.3301 C.ar    1  UNL1        0.0043
     28 C          -7.2070  -15.1226   27.4561 C.ar    1  UNL1        0.0148
     29 C          -6.0170  -14.9355   26.7403 C.ar    1  UNL1        0.0516
     30 C          -5.2769  -13.7583   26.9423 C.ar    1  UNL1        0.0148
     31 C          -5.7411  -12.7714   27.8168 C.ar    1  UNL1        0.0043
     32 N          -5.5495  -15.9760   25.8645 N.am    1  UNL1       -0.2681
     33 C          -5.2245  -15.7782   24.4801 C.2     1  UNL1        0.3082
     34 O          -5.5795  -14.7217   23.8896 O.2     1  UNL1       -0.2522
     35 N          -4.5671  -16.8267   23.7519 N.am    1  UNL1       -0.2681
     36 H          -5.5146  -16.9521   26.2365 H       1  UNL1        0.1564
     37 H          -4.5573  -17.7809   24.1780 H       1  UNL1        0.1564
     38 C          -4.0136  -16.6698   22.4339 C.ar    1  UNL1        0.0516
     39 C          -4.8783  -16.5500   21.3342 C.ar    1  UNL1        0.0147
     40 C          -4.3647  -16.4186   20.0404 C.ar    1  UNL1        0.0013
     41 C          -2.9832  -16.4211   19.8319 C.ar    1  UNL1        0.0001
     42 C          -2.1138  -16.5632   20.9163 C.ar    1  UNL1        0.0013
     43 C          -2.6236  -16.6940   22.2121 C.ar    1  UNL1        0.0147
@<TRIPOS>BOND
     1    18    19    1
     2    19    10    1
     3    10    11    2
     4    10    12   am
     5    12    13    1
     6    13    14    1
     7    14    15    1
     8    15     1    1
     9     1     2   ar
    10     2     3   ar
    11     3     4   ar
    12     4     5   ar
    13     5    20    1
    14    20    21    1
    15    21    22    1
    16    22    23    1
    17    23    24    1
    18    24    25    1
    19     5     6   ar
    20     6     7   ar
    21     7    26    1
    22    26    27   ar
    23    27    28   ar
    24    28    29   ar
    25    29    32    1
    26    32    33   am
    27    33    34    2
    28    33    35   am
    29    35    38    1
    30    38    39   ar
    31    39    40   ar
    32    40    41   ar
    33    41    42   ar
    34    42    43   ar
    35    29    30   ar
    36    30    31   ar
    37     7     8   ar
    38     8     9   ar
    39    15    16    1
    40    16    17    1
    41    17    12    1
    42     9     1   ar
    43     9     4   ar
    44    25    20    1
    45    31    26   ar
    46    43    38   ar
    47    32    36    1
    48    35    37    1
@<TRIPOS>MOLECULE
*****
 43 48 0 0 0
SMALL
GASTEIGER

@<TRIPOS>ATOM
      1 N         -10.6511  -11.3308   32.1421 N.ar    1  UNL1       -0.2357
      2 N         -10.5164  -10.2554   32.9147 N.ar    1  UNL1       -0.1663
      3 C          -9.4022   -9.5853   32.5250 C.ar    1  UNL1        0.1260
      4 C          -8.8217  -10.2809   31.4826 C.ar    1  UNL1        0.0880
      5 C          -7.6535  -10.1328   30.7417 C.ar    1  UNL1        0.1380
      6 N          -7.3517  -11.1186   29.8435 N.ar    1  UNL1       -0.2117
      7 C          -8.1659  -12.2107   29.6583 C.ar    1  UNL1        0.1653
      8 N          -9.3133  -12.3347   30.3963 N.ar    1  UNL1       -0.2079
      9 C          -9.6168  -11.3605   31.2866 C.ar    1  UNL1        0.1652
     10 C         -13.7404  -15.9639   33.0114 C.2     1  UNL1        0.4050
     11 O         -13.6183  -16.9557   32.2403 O.2     1  UNL1       -0.2262
     12 N         -12.7775  -14.8935   32.9793 N.am    1  UNL1       -0.2459
     13 C         -11.6210  -14.9413   32.0704 C.3     1  UNL1        0.0987
     14 C         -11.3795  -13.5766   31.4013 C.3     1  UNL1        0.0461
     15 C         -11.6742  -12.3654   32.3213 C.3     1  UNL1        0.1102
     16 C         -11.7824  -12.7675   33.8004 C.3     1  UNL1        0.0461
     17 C         -12.8858  -13.8170   33.9759 C.3     1  UNL1        0.0987
     18 C         -16.1483  -15.6323   33.4853 C.3     1  UNL1        0.2573
     19 O         -14.8162  -15.9026   33.9046 O.3     1  UNL1       -0.4304
     20 N          -6.7689   -9.0169   30.9261 N.pl3   1  UNL1       -0.2879
     21 C          -6.6584   -7.9950   29.8819 C.3     1  UNL1        0.1242
     22 C          -6.1674   -6.6837   30.5014 C.3     1  UNL1        0.1636
     23 O          -4.9756   -6.8923   31.2364 O.3     1  UNL1       -0.3501
     24 C          -5.2342   -7.7386   32.3416 C.3     1  UNL1        0.1636
     25 C          -5.6588   -9.1346   31.8733 C.3     1  UNL1        0.1242
     26 C          -7.7973  -13.2566   28.6728 C.ar    1  UNL1        0.0360
     27 C          -6.4873  -13.3336   28.1658 C.ar    1  UNL1        0.0043
     28 C          -6.1415  -14.3201   27.2380 C.ar    1  UNL1        0.0148
     29 C          -7.0892  -15.2590   26.8091 C.ar    1  UNL1        0.0516
     30 C          -8.4047  -15.1719   27.2949 C.ar    1  UNL1        0.0148
     31 C          -8.7532  -14.1854   28.2220 C.ar    1  UNL1        0.0043
     32 N          -6.7111  -16.2494   25.8373 N.am    1  UNL1       -0.2681
     33 C          -5.9054  -15.9768   24.6806 C.2     1  UNL1        0.3082
     34 O          -5.6970  -14.7867   24.3185 O.2     1  UNL1       -0.2522
     35 N          -5.4090  -17.0692   23.8919 N.am    1  UNL1       -0.2681
     36 H          -7.1078  -17.2112   25.9366 H       1  UNL1        0.1564
     37 H          -5.8389  -18.0100   24.0410 H       1  UNL1        0.1564
     38 C          -4.4342  -16.9305   22.8437 C.ar    1  UNL1        0.0516
     39 C          -4.8388  -16.4548   21.5862 C.ar    1  UNL1        0.0147
     40 C          -3.9143  -16.3320   20.5444 C.ar    1  UNL1        0.0013
     41 C          -2.5809  -16.6976   20.7449 C.ar    1  UNL1        0.0001
     42 C          -2.1721  -17.1943   21.9852 C.ar    1  UNL1        0.0013
     43 C          -3.0935  -17.3178   23.0300 C.ar    1  UNL1        0.0147
@<TRIPOS>BOND
     1    18    19    1
     2    19    10    1
     3    10    11    2
     4    10    12   am
     5    12    13    1
     6    13    14    1
     7    14    15    1
     8    15     1    1
     9     1     2   ar
    10     2     3   ar
    11     3     4   ar
    12     4     5   ar
    13     5    20    1
    14    20    21    1
    15    21    22    1
    16    22    23    1
    17    23    24    1
    18    24    25    1
    19     5     6   ar
    20     6     7   ar
    21     7    26    1
    22    26    27   ar
    23    27    28   ar
    24    28    29   ar
    25    29    32    1
    26    32    33   am
    27    33    34    2
    28    33    35   am
    29    35    38    1
    30    38    39   ar
    31    39    40   ar
    32    40    41   ar
    33    41    42   ar
    34    42    43   ar
    35    29    30   ar
    36    30    31   ar
    37     7     8   ar
    38     8     9   ar
    39    15    16    1
    40    16    17    1
    41    17    12    1
    42     9     1   ar
    43     9     4   ar
    44    25    20    1
    45    31    26   ar
    46    43    38   ar
    47    32    36    1
    48    35    37    1
@<TRIPOS>MOLECULE
*****
 43 48 0 0 0
SMALL
GASTEIGER

@<TRIPOS>ATOM
      1 N          -7.7835  -18.0462   22.1190 N.ar    1  UNL1       -0.2357
      2 N          -7.2192  -18.6689   21.0869 N.ar    1  UNL1       -0.1663
      3 C          -5.8751  -18.4966   21.1659 C.ar    1  UNL1        0.1260
      4 C          -5.6025  -17.7279   22.2804 C.ar    1  UNL1        0.0880
      5 C          -4.4485  -17.1729   22.8243 C.ar    1  UNL1        0.1380
      6 N          -4.5986  -16.3496   23.9057 N.ar    1  UNL1       -0.2117
      7 C          -5.8309  -16.0822   24.4535 C.ar    1  UNL1        0.1653
      8 N          -6.9537  -16.6422   23.9038 N.ar    1  UNL1       -0.2079
      9 C          -6.8101  -17.4590   22.8333 C.ar    1  UNL1        0.1652
     10 C         -13.4157  -17.9737   21.9258 C.2     1  UNL1        0.4050
     11 O         -14.0065  -17.2921   21.0428 O.2     1  UNL1       -0.2262
     12 N         -12.0020  -18.2283   21.8243 N.am    1  UNL1       -0.2459
     13 C         -11.2210  -17.7246   20.6831 C.3     1  UNL1        0.0987
     14 C          -9.8710  -17.1457   21.1420 C.3     1  UNL1        0.0461
     15 C          -9.2287  -17.9122   22.3253 C.3     1  UNL1        0.1102
     16 C          -9.8725  -19.2896   22.5478 C.3     1  UNL1        0.0461
     17 C         -11.3749  -19.1273   22.8052 C.3     1  UNL1        0.0987
     18 C         -14.0148  -17.9689   24.3285 C.3     1  UNL1        0.2573
     19 O         -14.1371  -18.4873   23.0096 O.3     1  UNL1       -0.4304
     20 N          -3.1487  -17.4124   22.2634 N.pl3   1  UNL1       -0.2879
     21 C          -2.4192  -18.6344   22.6120 C.3     1  UNL1        0.1242
     22 C          -1.4064  -18.9559   21.5096 C.3     1  UNL1        0.1636
     23 O          -0.5758  -17.8389   21.2512 O.3     1  UNL1       -0.3501
     24 C          -1.3501  -16.7742   20.7302 C.3     1  UNL1        0.1636
     25 C          -2.3660  -16.2798   21.7654 C.3     1  UNL1        0.1242
     26 C          -5.9454  -15.1813   25.6265 C.ar    1  UNL1        0.0360
     27 C          -5.0699  -14.0911   25.7810 C.ar    1  UNL1        0.0043
     28 C          -5.1798  -13.2428   26.8864 C.ar    1  UNL1        0.0148
     29 C          -6.1737  -13.4542   27.8513 C.ar    1  UNL1        0.0516
     30 C          -7.0356  -14.5553   27.7136 C.ar    1  UNL1        0.0148
     31 C          -6.9268  -15.4058   26.6095 C.ar    1  UNL1        0.0043
     32 N          -6.2495  -12.5785   28.9895 N.am    1  UNL1       -0.2681
     33 C          -7.4769  -12.1779   29.6176 C.2     1  UNL1        0.3082
     34 O          -8.5798  -12.3745   29.0381 O.2     1  UNL1       -0.2522
     35 N          -7.4338  -11.4774   30.8703 N.am    1  UNL1       -0.2681
     36 H          -5.3633  -12.1463   29.3364 H       1  UNL1        0.1564
     37 H          -6.5174  -11.0735   31.1690 H       1  UNL1        0.1564
     38 C          -8.5877  -11.2101   31.6859 C.ar    1  UNL1        0.0516
     39 C          -9.5857  -10.3478   31.2045 C.ar    1  UNL1        0.0147
     40 C         -10.7065  -10.0547   31.9875 C.ar    1  UNL1        0.0013
     41 C         -10.8329  -10.6083   33.2640 C.ar    1  UNL1        0.0001
     42 C          -9.8345  -11.4491   33.7624 C.ar    1  UNL1        0.0013
     43 C          -8.7124  -11.7454   32.9820 C.ar    1  UNL1        0.0147
@<TRIPOS>BOND
     1    18    19    1
     2    19    10    1
     3    10    11    2
     4    10    12   am
     5    12    13    1
     6    13    14    1
     7    14    15    1
     8    15     1    1
     9     1     2   ar
    10     2     3   ar
    11     3     4   ar
    12     4     5   ar
    13     5    20    1
    14    20    21    1
    15    21    22    1
    16    22    23    1
    17    23    24    1
    18    24    25    1
    19     5     6   ar
    20     6     7   ar
    21     7    26    1
    22    26    27   ar
    23    27    28   ar
    24    28    29   ar
    25    29    32    1
    26    32    33   am
    27    33    34    2
    28    33    35   am
    29    35    38    1
    30    38    39   ar
    31    39    40   ar
    32    40    41   ar
    33    41    42   ar
    34    42    43   ar
    35    29    30   ar
    36    30    31   ar
    37     7     8   ar
    38     8     9   ar
    39    15    16    1
    40    16    17    1
    41    17    12    1
    42     9     1   ar
    43     9     4   ar
    44    25    20    1
    45    31    26   ar
    46    43    38   ar
    47    32    36    1
    48    35    37    1
