@<TRIPOS>MOLECULE
*****
 25 28 0 0 0
SMALL
GASTEIGER

@<TRIPOS>ATOM
      1 C          48.9173   13.6752  -22.9824 C.3     1  UNL1        0.1432
      2 O          50.1852   13.2348  -22.5570 O.3     1  UNL1       -0.3752
      3 C          48.8620   15.2308  -22.9579 C.3     1  UNL1        0.0557
      4 C          48.0112   15.6856  -24.1690 C.3     1  UNL1        0.0833
      5 CL         48.9478   16.7259  -25.2919 Cl      1  UNL1       -0.1149
      6 C          47.5270   14.3711  -24.7878 C.3     1  UNL1        0.0186
      7 C          47.0569   14.2600  -26.2437 C.3     1  UNL1        0.0057
      8 C          46.1075   15.3622  -26.7425 C.3     1  UNL1        0.0050
      9 C          45.6700   15.1043  -28.2158 C.3     1  UNL1        0.0261
     10 C          45.9223   13.6940  -28.7558 C.ar    1  UNL1       -0.0231
     11 C          45.8203   13.4755  -30.1380 C.ar    1  UNL1        0.0320
     12 C          46.1106   12.2232  -30.6845 C.ar    1  UNL1        0.1333
     13 O          46.0061   12.0335  -32.0607 O.3     1  UNL1       -0.5055
     14 C          46.5114   11.1749  -29.8495 C.ar    1  UNL1        0.0363
     15 C          46.6061   11.3672  -28.4693 C.ar    1  UNL1       -0.0015
     16 C          46.2895   12.6174  -27.9044 C.ar    1  UNL1       -0.0263
     17 C          46.3139   12.9072  -26.4205 C.3     1  UNL1        0.0221
     18 C          46.7019   11.7814  -25.3962 C.3     1  UNL1        0.0045
     19 C          48.1184   11.8659  -24.7853 C.3     1  UNL1        0.0036
     20 C          48.6248   13.3223  -24.4758 C.3     1  UNL1        0.0345
     21 C          49.9394   13.5264  -25.3046 C.3     1  UNL1        0.0034
     22 H          50.1999   12.2448  -22.6399 H       1  UNL1        0.2114
     23 H          46.2120   11.1387  -32.4893 H       1  UNL1        0.2922
     24 C          47.0488   12.6977  -21.3110 C.1     1  UNL1       -0.0119
     25 C          47.8849   13.1362  -22.0608 C.1     1  UNL1       -0.0525
@<TRIPOS>BOND
     1    24    25    3
     2     1    25    1
     3     1     2    1
     4     1     3    1
     5     3     4    1
     6     4     5    1
     7     4     6    1
     8     6     7    1
     9     7     8    1
    10     8     9    1
    11     9    10    1
    12    10    11   ar
    13    11    12   ar
    14    12    13    1
    15    12    14   ar
    16    14    15   ar
    17    15    16   ar
    18    16    17    1
    19    17    18    1
    20    18    19    1
    21    19    20    1
    22    20    21    1
    23    20     1    1
    24    20     6    1
    25    17     7    1
    26    16    10   ar
    27     2    22    1
    28    13    23    1
@<TRIPOS>MOLECULE
*****
 25 28 0 0 0
SMALL
GASTEIGER

@<TRIPOS>ATOM
      1 C          49.7630   11.1524  -22.8136 C.3     1  UNL1        0.1432
      2 O          50.2639   11.0890  -21.4993 O.3     1  UNL1       -0.3752
      3 C          48.2636   10.7339  -22.8291 C.3     1  UNL1        0.0557
      4 C          47.5443   11.6176  -23.8774 C.3     1  UNL1        0.0833
      5 CL         46.2361   12.6001  -23.1401 Cl      1  UNL1       -0.1149
      6 C          48.6763   12.4430  -24.4959 C.3     1  UNL1        0.0186
      7 C          48.4353   13.7695  -25.2275 C.3     1  UNL1        0.0057
      8 C          47.2675   13.7973  -26.2278 C.3     1  UNL1        0.0050
      9 C          47.1636   15.1826  -26.9339 C.3     1  UNL1        0.0261
     10 C          48.3900   16.0916  -26.8163 C.ar    1  UNL1       -0.0231
     11 C          48.2622   17.4421  -27.1750 C.ar    1  UNL1        0.0320
     12 C          49.3330   18.3252  -27.0177 C.ar    1  UNL1        0.1333
     13 O          49.1790   19.6622  -27.3772 O.3     1  UNL1       -0.5055
     14 C          50.5452   17.8637  -26.4938 C.ar    1  UNL1        0.0363
     15 C          50.6979   16.5203  -26.1432 C.ar    1  UNL1       -0.0015
     16 C          49.6344   15.6154  -26.3230 C.ar    1  UNL1       -0.0263
     17 C          49.7201   14.1364  -26.0202 C.3     1  UNL1        0.0221
     18 C          51.0544   13.5117  -25.4758 C.3     1  UNL1        0.0045
     19 C          51.0891   13.1690  -23.9697 C.3     1  UNL1        0.0036
     20 C          49.7426   12.6070  -23.3830 C.3     1  UNL1        0.0345
     21 C          49.3080   13.5858  -22.2386 C.3     1  UNL1        0.0034
     22 H          51.2020   11.4157  -21.5219 H       1  UNL1        0.2114
     23 H          49.9347   20.3293  -27.2733 H       1  UNL1        0.2922
     24 C          51.1652    9.4612  -24.3675 C.1     1  UNL1       -0.0119
     25 C          50.5381   10.2198  -23.6710 C.1     1  UNL1       -0.0525
@<TRIPOS>BOND
     1    24    25    3
     2     1    25    1
     3     1     2    1
     4     1     3    1
     5     3     4    1
     6     4     5    1
     7     4     6    1
     8     6     7    1
     9     7     8    1
    10     8     9    1
    11     9    10    1
    12    10    11   ar
    13    11    12   ar
    14    12    13    1
    15    12    14   ar
    16    14    15   ar
    17    15    16   ar
    18    16    17    1
    19    17    18    1
    20    18    19    1
    21    19    20    1
    22    20    21    1
    23    20     1    1
    24    20     6    1
    25    17     7    1
    26    16    10   ar
    27     2    22    1
    28    13    23    1
@<TRIPOS>MOLECULE
*****
 25 28 0 0 0
SMALL
GASTEIGER

@<TRIPOS>ATOM
      1 C          46.9072   12.4973  -22.8175 C.3     1  UNL1        0.1432
      2 O          45.5645   12.0994  -22.6717 O.3     1  UNL1       -0.3752
      3 C          47.7007   11.4068  -23.5952 C.3     1  UNL1        0.0557
      4 C          48.7230   12.1334  -24.5031 C.3     1  UNL1        0.0833
      5 CL         48.4560   11.7660  -26.2392 Cl      1  UNL1       -0.1149
      6 C          48.5467   13.6107  -24.1400 C.3     1  UNL1        0.0186
      7 C          48.9759   14.7531  -25.0693 C.3     1  UNL1        0.0057
      8 C          50.3606   14.6189  -25.7248 C.3     1  UNL1        0.0050
      9 C          50.6918   15.8639  -26.6015 C.3     1  UNL1        0.0261
     10 C          49.8205   17.1013  -26.3697 C.ar    1  UNL1       -0.0231
     11 C          49.8721   18.1446  -27.3065 C.ar    1  UNL1        0.0320
     12 C          49.0436   19.2615  -27.1751 C.ar    1  UNL1        0.1333
     13 O          49.1110   20.2817  -28.1214 O.3     1  UNL1       -0.5055
     14 C          48.1491   19.3428  -26.1027 C.ar    1  UNL1        0.0363
     15 C          48.0914   18.3218  -25.1514 C.ar    1  UNL1       -0.0015
     16 C          48.9410   17.2043  -25.2585 C.ar    1  UNL1       -0.0263
     17 C          48.9866   16.0752  -24.2536 C.3     1  UNL1        0.0221
     18 C          48.0570   16.0987  -22.9878 C.3     1  UNL1        0.0045
     19 C          46.8268   15.1645  -23.0205 C.3     1  UNL1        0.0036
     20 C          47.0667   13.7707  -23.7082 C.3     1  UNL1        0.0345
     21 C          46.0531   13.6774  -24.9000 C.3     1  UNL1        0.0034
     22 H          45.0807   12.8421  -22.2228 H       1  UNL1        0.2114
     23 H          48.5221   21.1039  -28.0570 H       1  UNL1        0.2922
     24 C          47.9984   12.8081  -20.3775 C.1     1  UNL1       -0.0119
     25 C          47.5084   12.6698  -21.4705 C.1     1  UNL1       -0.0525
@<TRIPOS>BOND
     1    24    25    3
     2     1    25    1
     3     1     2    1
     4     1     3    1
     5     3     4    1
     6     4     5    1
     7     4     6    1
     8     6     7    1
     9     7     8    1
    10     8     9    1
    11     9    10    1
    12    10    11   ar
    13    11    12   ar
    14    12    13    1
    15    12    14   ar
    16    14    15   ar
    17    15    16   ar
    18    16    17    1
    19    17    18    1
    20    18    19    1
    21    19    20    1
    22    20    21    1
    23    20     1    1
    24    20     6    1
    25    17     7    1
    26    16    10   ar
    27     2    22    1
    28    13    23    1
@<TRIPOS>MOLECULE
*****
 25 28 0 0 0
SMALL
GASTEIGER

@<TRIPOS>ATOM
      1 C          46.9843   16.2183  -26.1229 C.3     1  UNL1        0.1432
      2 O          46.3378   17.3890  -25.6824 O.3     1  UNL1       -0.3752
      3 C          48.4394   16.5518  -26.5645 C.3     1  UNL1        0.0557
      4 C          49.3363   15.3591  -26.1516 C.3     1  UNL1        0.0833
      5 CL         50.6268   15.8564  -25.0083 Cl      1  UNL1       -0.1149
      6 C          48.3466   14.3415  -25.5768 C.3     1  UNL1        0.0186
      7 C          48.7686   13.2184  -24.6210 C.3     1  UNL1        0.0057
      8 C          50.0385   12.4381  -24.9998 C.3     1  UNL1        0.0050
      9 C          50.3265   11.2994  -23.9756 C.3     1  UNL1        0.0261
     10 C          49.1684   10.9189  -23.0492 C.ar    1  UNL1       -0.0231
     11 C          49.4389   10.1166  -21.9302 C.ar    1  UNL1        0.0320
     12 C          48.4286    9.8025  -21.0181 C.ar    1  UNL1        0.1333
     13 O          48.7242    9.0077  -19.9128 O.3     1  UNL1       -0.5055
     14 C          47.1340   10.2939  -21.2162 C.ar    1  UNL1        0.0363
     15 C          46.8403   11.0828  -22.3307 C.ar    1  UNL1       -0.0015
     16 C          47.8441   11.3831  -23.2711 C.ar    1  UNL1       -0.0263
     17 C          47.6116   12.1857  -24.5315 C.3     1  UNL1        0.0221
     18 C          46.1810   12.7390  -24.8698 C.3     1  UNL1        0.0045
     19 C          45.9537   14.2487  -24.6328 C.3     1  UNL1        0.0036
     20 C          47.1797   15.1699  -24.9814 C.3     1  UNL1        0.0345
     21 C          47.5595   15.9298  -23.6642 C.3     1  UNL1        0.0034
     22 H          45.4360   17.1271  -25.3578 H       1  UNL1        0.2114
     23 H          48.0154    8.7636  -19.2310 H       1  UNL1        0.2922
     24 C          45.6338   15.2129  -28.2219 C.1     1  UNL1       -0.0119
     25 C          46.2390   15.6620  -27.2808 C.1     1  UNL1       -0.0525
@<TRIPOS>BOND
     1    24    25    3
     2     1    25    1
     3     1     2    1
     4     1     3    1
     5     3     4    1
     6     4     5    1
     7     4     6    1
     8     6     7    1
     9     7     8    1
    10     8     9    1
    11     9    10    1
    12    10    11   ar
    13    11    12   ar
    14    12    13    1
    15    12    14   ar
    16    14    15   ar
    17    15    16   ar
    18    16    17    1
    19    17    18    1
    20    18    19    1
    21    19    20    1
    22    20    21    1
    23    20     1    1
    24    20     6    1
    25    17     7    1
    26    16    10   ar
    27     2    22    1
    28    13    23    1
@<TRIPOS>MOLECULE
*****
 25 28 0 0 0
SMALL
GASTEIGER

@<TRIPOS>ATOM
      1 C          49.4764   10.6047  -21.7551 C.3     1  UNL1        0.1432
      2 O          50.5807   10.9343  -20.9461 O.3     1  UNL1       -0.3752
      3 C          48.2273   10.3422  -20.8637 C.3     1  UNL1        0.0557
      4 C          46.9924   10.8911  -21.6194 C.3     1  UNL1        0.0833
      5 CL         46.1546   12.1762  -20.6883 Cl      1  UNL1       -0.1149
      6 C          47.5648   11.3596  -22.9604 C.3     1  UNL1        0.0186
      7 C          46.8573   12.3858  -23.8544 C.3     1  UNL1        0.0057
      8 C          45.3464   12.1870  -24.0614 C.3     1  UNL1        0.0050
      9 C          44.7633   13.2645  -25.0244 C.3     1  UNL1        0.0261
     10 C          45.7835   14.0464  -25.8564 C.ar    1  UNL1       -0.0231
     11 C          45.3606   15.2081  -26.5199 C.ar    1  UNL1        0.0320
     12 C          46.2705   15.9928  -27.2322 C.ar    1  UNL1        0.1333
     13 O          45.8259   17.1440  -27.8786 O.3     1  UNL1       -0.5055
     14 C          47.6186   15.6227  -27.2837 C.ar    1  UNL1        0.0363
     15 C          48.0580   14.4627  -26.6418 C.ar    1  UNL1       -0.0015
     16 C          47.1450   13.6494  -25.9438 C.ar    1  UNL1       -0.0263
     17 C          47.5159   12.3522  -25.2610 C.3     1  UNL1        0.0221
     18 C          48.9946   11.8245  -25.3049 C.3     1  UNL1        0.0045
     19 C          49.8252   11.9972  -24.0137 C.3     1  UNL1        0.0036
     20 C          49.0277   11.7849  -22.6750 C.3     1  UNL1        0.0345
     21 C          49.1445   13.1221  -21.8657 C.3     1  UNL1        0.0034
     22 H          51.3394   11.1487  -21.5507 H       1  UNL1        0.2114
     23 H          46.4603   17.7367  -28.4014 H       1  UNL1        0.2922
     24 C          50.0501    8.3783  -23.1531 C.1     1  UNL1       -0.0119
     25 C          49.7924    9.3751  -22.5256 C.1     1  UNL1       -0.0525
@<TRIPOS>BOND
     1    24    25    3
     2     1    25    1
     3     1     2    1
     4     1     3    1
     5     3     4    1
     6     4     5    1
     7     4     6    1
     8     6     7    1
     9     7     8    1
    10     8     9    1
    11     9    10    1
    12    10    11   ar
    13    11    12   ar
    14    12    13    1
    15    12    14   ar
    16    14    15   ar
    17    15    16   ar
    18    16    17    1
    19    17    18    1
    20    18    19    1
    21    19    20    1
    22    20    21    1
    23    20     1    1
    24    20     6    1
    25    17     7    1
    26    16    10   ar
    27     2    22    1
    28    13    23    1
@<TRIPOS>MOLECULE
*****
 25 28 0 0 0
SMALL
GASTEIGER

@<TRIPOS>ATOM
      1 C          48.6853   17.4439  -26.5115 C.3     1  UNL1        0.1432
      2 O          49.9236   17.7502  -27.1075 O.3     1  UNL1       -0.3752
      3 C          47.6532   17.0499  -27.6084 C.3     1  UNL1        0.0557
      4 C          46.7625   15.9248  -27.0270 C.3     1  UNL1        0.0833
      5 CL         46.8738   14.4165  -27.9929 Cl      1  UNL1       -0.1149
      6 C          47.2519   15.7826  -25.5828 C.3     1  UNL1        0.0186
      7 C          47.0251   14.5160  -24.7480 C.3     1  UNL1        0.0057
      8 C          45.6151   13.9041  -24.8015 C.3     1  UNL1        0.0050
      9 C          45.5074   12.6557  -23.8752 C.3     1  UNL1        0.0261
     10 C          46.6220   12.4883  -22.8389 C.ar    1  UNL1       -0.0231
     11 C          46.7439   11.2577  -22.1760 C.ar    1  UNL1        0.0320
     12 C          47.7877   11.0344  -21.2750 C.ar    1  UNL1        0.1333
     13 O          47.8891    9.8021  -20.6332 O.3     1  UNL1       -0.5055
     14 C          48.7254   12.0435  -21.0315 C.ar    1  UNL1        0.0363
     15 C          48.6146   13.2805  -21.6703 C.ar    1  UNL1       -0.0015
     16 C          47.5510   13.5264  -22.5596 C.ar    1  UNL1       -0.0263
     17 C          47.3195   14.8469  -23.2590 C.3     1  UNL1        0.0221
     18 C          48.2881   16.0585  -23.0123 C.3     1  UNL1        0.0045
     19 C          49.2992   16.3710  -24.1379 C.3     1  UNL1        0.0036
     20 C          48.7507   16.1776  -25.5990 C.3     1  UNL1        0.0345
     21 C          49.6715   15.1123  -26.2873 C.3     1  UNL1        0.0034
     22 H          50.5676   17.9408  -26.3753 H       1  UNL1        0.2114
     23 H          48.6355    9.6066  -19.9763 H       1  UNL1        0.2922
     24 C          47.7890   19.6136  -25.1961 C.1     1  UNL1       -0.0119
     25 C          48.1906   18.6406  -25.7842 C.1     1  UNL1       -0.0525
@<TRIPOS>BOND
     1    24    25    3
     2     1    25    1
     3     1     2    1
     4     1     3    1
     5     3     4    1
     6     4     5    1
     7     4     6    1
     8     6     7    1
     9     7     8    1
    10     8     9    1
    11     9    10    1
    12    10    11   ar
    13    11    12   ar
    14    12    13    1
    15    12    14   ar
    16    14    15   ar
    17    15    16   ar
    18    16    17    1
    19    17    18    1
    20    18    19    1
    21    19    20    1
    22    20    21    1
    23    20     1    1
    24    20     6    1
    25    17     7    1
    26    16    10   ar
    27     2    22    1
    28    13    23    1
@<TRIPOS>MOLECULE
*****
 25 28 0 0 0
SMALL
GASTEIGER

@<TRIPOS>ATOM
      1 C          48.7996   12.2254  -20.8819 C.3     1  UNL1        0.1432
      2 O          49.6715   11.1713  -20.5486 O.3     1  UNL1       -0.3752
      3 C          49.4890   13.5920  -20.5982 C.3     1  UNL1        0.0557
      4 C          49.0457   14.5765  -21.7081 C.3     1  UNL1        0.0833
      5 CL         50.4416   15.1942  -22.6515 Cl      1  UNL1       -0.1149
      6 C          48.0402   13.7670  -22.5322 C.3     1  UNL1        0.0186
      7 C          47.6791   14.1165  -23.9815 C.3     1  UNL1        0.0057
      8 C          47.4063   15.6002  -24.2803 C.3     1  UNL1        0.0050
      9 C          47.0052   15.8099  -25.7714 C.3     1  UNL1        0.0261
     10 C          46.5944   14.5518  -26.5412 C.ar    1  UNL1       -0.0231
     11 C          46.4998   14.6204  -27.9395 C.ar    1  UNL1        0.0320
     12 C          46.1978   13.4815  -28.6897 C.ar    1  UNL1        0.1333
     13 O          46.1142   13.5754  -30.0771 O.3     1  UNL1       -0.5055
     14 C          45.9912   12.2574  -28.0450 C.ar    1  UNL1        0.0363
     15 C          46.0671   12.1700  -26.6531 C.ar    1  UNL1       -0.0015
     16 C          46.3437   13.3169  -25.8847 C.ar    1  UNL1       -0.0263
     17 C          46.3970   13.3318  -24.3736 C.3     1  UNL1        0.0221
     18 C          46.1288   12.0184  -23.5550 C.3     1  UNL1        0.0045
     19 C          47.3674   11.3183  -22.9528 C.3     1  UNL1        0.0036
     20 C          48.4818   12.2863  -22.4103 C.3     1  UNL1        0.0345
     21 C          49.7907   11.9556  -23.2066 C.3     1  UNL1        0.0034
     22 H          49.2196   10.3215  -20.7953 H       1  UNL1        0.2114
     23 H          45.8999   12.7680  -30.6509 H       1  UNL1        0.2922
     24 C          46.5774   12.0282  -19.3773 C.1     1  UNL1       -0.0119
     25 C          47.5723   12.1171  -20.0526 C.1     1  UNL1       -0.0525
@<TRIPOS>BOND
     1    24    25    3
     2     1    25    1
     3     1     2    1
     4     1     3    1
     5     3     4    1
     6     4     5    1
     7     4     6    1
     8     6     7    1
     9     7     8    1
    10     8     9    1
    11     9    10    1
    12    10    11   ar
    13    11    12   ar
    14    12    13    1
    15    12    14   ar
    16    14    15   ar
    17    15    16   ar
    18    16    17    1
    19    17    18    1
    20    18    19    1
    21    19    20    1
    22    20    21    1
    23    20     1    1
    24    20     6    1
    25    17     7    1
    26    16    10   ar
    27     2    22    1
    28    13    23    1
@<TRIPOS>MOLECULE
*****
 25 28 0 0 0
SMALL
GASTEIGER

@<TRIPOS>ATOM
      1 C          46.9364   15.3800  -26.4582 C.3     1  UNL1        0.1432
      2 O          46.1610   16.5366  -26.6665 O.3     1  UNL1       -0.3752
      3 C          48.4448   15.7121  -26.6532 C.3     1  UNL1        0.0557
      4 C          49.2420   14.8819  -25.6175 C.3     1  UNL1        0.0833
      5 CL         50.1767   15.9277  -24.4982 Cl      1  UNL1       -0.1149
      6 C          48.1705   14.0291  -24.9321 C.3     1  UNL1        0.0186
      7 C          48.3668   13.4019  -23.5461 C.3     1  UNL1        0.0057
      8 C          49.7157   12.7078  -23.2936 C.3     1  UNL1        0.0050
      9 C          49.7653   12.0741  -21.8708 C.3     1  UNL1        0.0261
     10 C          48.4200   11.9156  -21.1573 C.ar    1  UNL1       -0.0231
     11 C          48.4175   11.6242  -19.7848 C.ar    1  UNL1        0.0320
     12 C          47.2165   11.5406  -19.0765 C.ar    1  UNL1        0.1333
     13 O          47.2415   11.2544  -17.7133 O.3     1  UNL1       -0.5055
     14 C          46.0020   11.7530  -19.7374 C.ar    1  UNL1        0.0363
     15 C          45.9812   12.0307  -21.1061 C.ar    1  UNL1       -0.0015
     16 C          47.1839   12.0903  -21.8357 C.ar    1  UNL1       -0.0263
     17 C          47.2595   12.3347  -23.3260 C.3     1  UNL1        0.0221
     18 C          45.9481   12.5348  -24.1670 C.3     1  UNL1        0.0045
     19 C          45.6192   13.9827  -24.5942 C.3     1  UNL1        0.0036
     20 C          46.8635   14.8606  -24.9867 C.3     1  UNL1        0.0345
     21 C          46.8655   16.0945  -24.0202 C.3     1  UNL1        0.0034
     22 H          45.2148   16.2987  -26.4787 H       1  UNL1        0.2114
     23 H          46.3887   11.1894  -17.1698 H       1  UNL1        0.2922
     24 C          46.2096   13.5043  -28.2454 C.1     1  UNL1       -0.0119
     25 C          46.5338   14.3450  -27.4443 C.1     1  UNL1       -0.0525
@<TRIPOS>BOND
     1    24    25    3
     2     1    25    1
     3     1     2    1
     4     1     3    1
     5     3     4    1
     6     4     5    1
     7     4     6    1
     8     6     7    1
     9     7     8    1
    10     8     9    1
    11     9    10    1
    12    10    11   ar
    13    11    12   ar
    14    12    13    1
    15    12    14   ar
    16    14    15   ar
    17    15    16   ar
    18    16    17    1
    19    17    18    1
    20    18    19    1
    21    19    20    1
    22    20    21    1
    23    20     1    1
    24    20     6    1
    25    17     7    1
    26    16    10   ar
    27     2    22    1
    28    13    23    1
@<TRIPOS>MOLECULE
*****
 25 28 0 0 0
SMALL
GASTEIGER

@<TRIPOS>ATOM
      1 C          49.5643   18.6372  -26.5464 C.3     1  UNL1        0.1432
      2 O          49.8224   19.2708  -27.7769 O.3     1  UNL1       -0.3752
      3 C          48.6544   19.5427  -25.6656 C.3     1  UNL1        0.0557
      4 C          47.6886   18.6159  -24.8874 C.3     1  UNL1        0.0833
      5 CL         45.9709   18.9642  -25.2728 Cl      1  UNL1       -0.1149
      6 C          48.1453   17.2065  -25.2751 C.3     1  UNL1        0.0186
      7 C          47.2396   15.9747  -25.1515 C.3     1  UNL1        0.0057
      8 C          46.4427   15.8393  -23.8431 C.3     1  UNL1        0.0050
      9 C          45.6045   14.5258  -23.8275 C.3     1  UNL1        0.0261
     10 C          45.9876   13.4705  -24.8686 C.ar    1  UNL1       -0.0231
     11 C          45.1069   12.4027  -25.0985 C.ar    1  UNL1        0.0320
     12 C          45.3795   11.4549  -26.0877 C.ar    1  UNL1        0.1333
     13 O          44.4866   10.4067  -26.2992 O.3     1  UNL1       -0.5055
     14 C          46.5389   11.5701  -26.8620 C.ar    1  UNL1        0.0363
     15 C          47.4357   12.6176  -26.6403 C.ar    1  UNL1       -0.0015
     16 C          47.1850   13.5631  -25.6277 C.ar    1  UNL1       -0.0263
     17 C          48.1191   14.7005  -25.2805 C.3     1  UNL1        0.0221
     18 C          49.4710   14.8856  -26.0584 C.3     1  UNL1        0.0045
     19 C          49.5120   16.0206  -27.1058 C.3     1  UNL1        0.0036
     20 C          48.7309   17.3255  -26.7053 C.3     1  UNL1        0.0345
     21 C          47.6432   17.5549  -27.8101 C.3     1  UNL1        0.0034
     22 H          50.3562   18.6412  -28.3300 H       1  UNL1        0.2114
     23 H          44.6531    9.7041  -27.0103 H       1  UNL1        0.2922
     24 C          51.8965   18.2243  -25.2692 C.1     1  UNL1       -0.0119
     25 C          50.8517   18.4080  -25.8422 C.1     1  UNL1       -0.0525
@<TRIPOS>BOND
     1    24    25    3
     2     1    25    1
     3     1     2    1
     4     1     3    1
     5     3     4    1
     6     4     5    1
     7     4     6    1
     8     6     7    1
     9     7     8    1
    10     8     9    1
    11     9    10    1
    12    10    11   ar
    13    11    12   ar
    14    12    13    1
    15    12    14   ar
    16    14    15   ar
    17    15    16   ar
    18    16    17    1
    19    17    18    1
    20    18    19    1
    21    19    20    1
    22    20    21    1
    23    20     1    1
    24    20     6    1
    25    17     7    1
    26    16    10   ar
    27     2    22    1
    28    13    23    1
