@<TRIPOS>MOLECULE
*****
 45 50 0 0 0
SMALL
GASTEIGER

@<TRIPOS>ATOM
      1 C         -63.6933  -51.3205  -24.3090 C.ar    1  UNL1        0.0702
      2 C         -62.5720  -51.5400  -23.4955 C.ar    1  UNL1        0.0191
      3 C         -61.6889  -50.4950  -23.2187 C.ar    1  UNL1        0.0356
      4 C         -61.9332  -49.2135  -23.7492 C.ar    1  UNL1        0.1323
      5 N         -63.0433  -49.0276  -24.5191 N.ar    1  UNL1       -0.2279
      6 C         -63.9164  -50.0297  -24.8011 C.ar    1  UNL1        0.1149
      7 N         -61.0401  -48.0993  -23.4936 N.pl3   1  UNL1       -0.2861
      8 C         -60.2681  -47.5121  -24.6052 C.3     1  UNL1        0.0930
      9 C         -59.5155  -46.2458  -24.1924 C.3     1  UNL1        0.0253
     10 C         -58.7452  -46.5022  -22.8939 C.3     1  UNL1        0.0479
     11 C         -59.6943  -46.8972  -21.7352 C.3     1  UNL1        0.0344
     12 C         -61.0740  -47.4389  -22.1734 C.3     1  UNL1        0.1270
     13 I         -62.5651  -45.8893  -22.1770 I       1  UNL1       -0.0531
     14 C         -57.8872  -45.2759  -22.5257 C.3     1  UNL1        0.2054
     15 O         -58.3709  -44.0971  -23.1724 O.3     1  UNL1       -0.4755
     16 C         -59.4576  -43.3169  -22.7446 C.ar    1  UNL1        0.1388
     17 C         -59.5495  -42.7866  -21.4442 C.ar    1  UNL1        0.0369
     18 C         -60.6539  -42.0154  -21.0776 C.ar    1  UNL1        0.0033
     19 C         -61.6760  -41.7655  -21.9958 C.ar    1  UNL1        0.0066
     20 C         -61.6058  -42.2904  -23.2980 C.ar    1  UNL1        0.0785
     21 C         -60.4829  -43.0565  -23.6623 C.ar    1  UNL1        0.0433
     22 C         -62.6783  -42.0302  -24.2894 C.2     1  UNL1        0.3381
     23 O         -63.8027  -41.6166  -23.8994 O.2     1  UNL1       -0.2451
     24 O         -62.4762  -42.2158  -25.6565 O.3     1  UNL1       -0.4771
     25 H         -61.5723  -42.4455  -26.0484 H       1  UNL1        0.2954
     26 C         -65.1211  -53.2956  -23.6139 C.2     1  UNL1        0.2839
     27 O         -64.4203  -53.5634  -22.6011 O.2     1  UNL1       -0.2665
     28 N         -64.6378  -52.3663  -24.5954 N.am    1  UNL1       -0.2766
     29 H         -64.9044  -52.5285  -25.5921 H       1  UNL1        0.1553
     30 C         -67.7240  -53.2394  -21.6948 C.3     1  UNL1        0.0345
     31 C         -67.5248  -53.9846  -22.9801 C.ar    1  UNL1        0.0202
     32 C         -66.3934  -54.0138  -23.8053 C.ar    1  UNL1        0.1946
     33 O         -66.6046  -54.8178  -24.8327 O.2     1  UNL1       -0.4492
     34 C         -67.8213  -55.2937  -24.7286 C.ar    1  UNL1        0.1452
     35 C         -68.4634  -56.1701  -25.5964 C.ar    1  UNL1        0.0375
     36 C         -69.7826  -56.5506  -25.2933 C.ar    1  UNL1        0.0031
     37 C         -70.4366  -56.0525  -24.1339 C.ar    1  UNL1        0.0002
     38 C         -69.7455  -55.1635  -23.2759 C.ar    1  UNL1        0.0028
     39 C         -68.4379  -54.8082  -23.6077 C.ar    1  UNL1        0.0337
     40 C         -71.8306  -56.4602  -23.8244 C.ar    1  UNL1        0.0000
     41 C         -72.2971  -56.4645  -22.4961 C.ar    1  UNL1        0.0000
     42 C         -73.6098  -56.8500  -22.2076 C.ar    1  UNL1        0.0000
     43 C         -74.4703  -57.2340  -23.2384 C.ar    1  UNL1        0.0000
     44 C         -74.0197  -57.2338  -24.5603 C.ar    1  UNL1        0.0000
     45 C         -72.7077  -56.8501  -24.8546 C.ar    1  UNL1        0.0000
@<TRIPOS>BOND
     1    30    31    1
     2    31    32   ar
     3    32    26    1
     4    26    27    2
     5    26    28   am
     6    28     1    1
     7     1     2   ar
     8     2     3   ar
     9     3     4   ar
    10     4     7    1
    11     7     8    1
    12     8     9    1
    13     9    10    1
    14    10    14    1
    15    14    15    1
    16    15    16    1
    17    16    17   ar
    18    17    18   ar
    19    18    19   ar
    20    19    20   ar
    21    20    22    1
    22    22    23    2
    23    22    24    1
    24    20    21   ar
    25    10    11    1
    26    11    12    1
    27    12    13    1
    28     4     5   ar
    29     5     6   ar
    30    32    33   ar
    31    33    34   ar
    32    34    35   ar
    33    35    36   ar
    34    36    37   ar
    35    37    40    1
    36    40    41   ar
    37    41    42   ar
    38    42    43   ar
    39    43    44   ar
    40    44    45   ar
    41    37    38   ar
    42    38    39   ar
    43    39    31   ar
    44     6     1   ar
    45    39    34   ar
    46    12     7    1
    47    45    40   ar
    48    21    16   ar
    49    28    29    1
    50    24    25    1
@<TRIPOS>MOLECULE
*****
 45 50 0 0 0
SMALL
GASTEIGER

@<TRIPOS>ATOM
      1 C         -62.5481  -40.8214  -20.1055 C.ar    1  UNL1        0.0702
      2 C         -61.1662  -41.0605  -20.1253 C.ar    1  UNL1        0.0191
      3 C         -60.6590  -42.2013  -20.7495 C.ar    1  UNL1        0.0356
      4 C         -61.5388  -43.1081  -21.3716 C.ar    1  UNL1        0.1323
      5 N         -62.8751  -42.8364  -21.3532 N.ar    1  UNL1       -0.2279
      6 C         -63.3907  -41.7324  -20.7523 C.ar    1  UNL1        0.1149
      7 N         -61.0579  -44.3096  -22.0269 N.pl3   1  UNL1       -0.2861
      8 C         -61.8071  -45.5719  -21.8793 C.3     1  UNL1        0.0930
      9 C         -61.2584  -46.6877  -22.7704 C.3     1  UNL1        0.0253
     10 C         -59.7384  -46.7792  -22.6076 C.3     1  UNL1        0.0479
     11 C         -59.0403  -45.4559  -23.0085 C.3     1  UNL1        0.0344
     12 C         -59.9486  -44.2053  -22.9957 C.3     1  UNL1        0.1270
     13 I         -60.7334  -43.7803  -24.9523 I       1  UNL1       -0.0531
     14 C         -59.1822  -47.9739  -23.4069 C.3     1  UNL1        0.2054
     15 O         -59.5227  -49.2133  -22.7828 O.3     1  UNL1       -0.4755
     16 C         -60.6645  -49.9825  -23.0609 C.ar    1  UNL1        0.1388
     17 C         -60.8445  -51.2864  -22.5631 C.ar    1  UNL1        0.0369
     18 C         -62.0030  -52.0015  -22.8716 C.ar    1  UNL1        0.0033
     19 C         -62.9908  -51.4307  -23.6770 C.ar    1  UNL1        0.0066
     20 C         -62.8280  -50.1314  -24.1886 C.ar    1  UNL1        0.0785
     21 C         -61.6624  -49.4137  -23.8622 C.ar    1  UNL1        0.0433
     22 C         -63.8692  -49.5057  -25.0401 C.2     1  UNL1        0.3381
     23 O         -65.0334  -49.3438  -24.5863 O.2     1  UNL1       -0.2451
     24 O         -63.5952  -49.0716  -26.3366 O.3     1  UNL1       -0.4771
     25 H         -62.6622  -49.0752  -26.7275 H       1  UNL1        0.2954
     26 C         -63.1759  -38.3663  -20.1424 C.2     1  UNL1        0.2839
     27 O         -62.3549  -38.0755  -21.0534 O.2     1  UNL1       -0.2665
     28 N         -63.1047  -39.6449  -19.4940 N.am    1  UNL1       -0.2766
     29 H         -63.3724  -39.6949  -18.4857 H       1  UNL1        0.1553
     30 C         -66.3866  -38.3989  -20.5315 C.3     1  UNL1        0.0345
     31 C         -65.5348  -37.3594  -19.8676 C.ar    1  UNL1        0.0202
     32 C         -64.1435  -37.3436  -19.7076 C.ar    1  UNL1        0.1946
     33 O         -63.7720  -36.2330  -19.0951 O.2     1  UNL1       -0.4492
     34 C         -64.8515  -35.5387  -18.8298 C.ar    1  UNL1        0.1452
     35 C         -64.9286  -34.3090  -18.1853 C.ar    1  UNL1        0.0375
     36 C         -66.2008  -33.7402  -17.9991 C.ar    1  UNL1        0.0031
     37 C         -67.3705  -34.4051  -18.4574 C.ar    1  UNL1        0.0002
     38 C         -67.2468  -35.6550  -19.1105 C.ar    1  UNL1        0.0028
     39 C         -65.9689  -36.1888  -19.2781 C.ar    1  UNL1        0.0337
     40 C         -68.7092  -33.7955  -18.2541 C.ar    1  UNL1        0.0000
     41 C         -69.8414  -34.3207  -18.9056 C.ar    1  UNL1        0.0000
     42 C         -71.1006  -33.7439  -18.7132 C.ar    1  UNL1        0.0000
     43 C         -71.2444  -32.6398  -17.8701 C.ar    1  UNL1        0.0000
     44 C         -70.1291  -32.1097  -17.2178 C.ar    1  UNL1        0.0000
     45 C         -68.8674  -32.6818  -17.4072 C.ar    1  UNL1        0.0000
@<TRIPOS>BOND
     1    30    31    1
     2    31    32   ar
     3    32    26    1
     4    26    27    2
     5    26    28   am
     6    28     1    1
     7     1     2   ar
     8     2     3   ar
     9     3     4   ar
    10     4     7    1
    11     7     8    1
    12     8     9    1
    13     9    10    1
    14    10    14    1
    15    14    15    1
    16    15    16    1
    17    16    17   ar
    18    17    18   ar
    19    18    19   ar
    20    19    20   ar
    21    20    22    1
    22    22    23    2
    23    22    24    1
    24    20    21   ar
    25    10    11    1
    26    11    12    1
    27    12    13    1
    28     4     5   ar
    29     5     6   ar
    30    32    33   ar
    31    33    34   ar
    32    34    35   ar
    33    35    36   ar
    34    36    37   ar
    35    37    40    1
    36    40    41   ar
    37    41    42   ar
    38    42    43   ar
    39    43    44   ar
    40    44    45   ar
    41    37    38   ar
    42    38    39   ar
    43    39    31   ar
    44     6     1   ar
    45    39    34   ar
    46    12     7    1
    47    45    40   ar
    48    21    16   ar
    49    28    29    1
    50    24    25    1
