@<TRIPOS>MOLECULE
*****
 37 42 0 0 0
SMALL
GASTEIGER

@<TRIPOS>ATOM
      1 C         -24.5221   -7.3736  -14.1933 C.ar    1  UNL1        0.1095
      2 N         -25.2176   -6.3232  -14.6977 N.ar    1  UNL1       -0.1677
      3 N         -26.3578   -6.2189  -14.0251 N.ar    1  UNL1       -0.2319
      4 C         -27.3252   -5.1464  -14.2137 C.3     1  UNL1        0.1554
      5 C         -26.3747   -7.1637  -13.0730 C.ar    1  UNL1        0.1654
      6 N         -27.3015   -7.3264  -12.0985 N.ar    1  UNL1       -0.2050
      7 C         -27.1076   -8.3252  -11.1878 C.ar    1  UNL1        0.2014
      8 N         -26.0195   -9.1525  -11.2848 N.ar    1  UNL1       -0.2089
      9 C         -25.0818   -8.9958  -12.2671 C.ar    1  UNL1        0.1379
     10 C         -25.2565   -7.9337  -13.1568 C.ar    1  UNL1        0.0865
     11 C         -22.5312   -7.7203  -15.7716 C.ar    1  UNL1        0.0809
     12 C         -23.1129   -7.6246  -14.5224 C.ar    1  UNL1        0.0577
     13 C         -22.0724   -7.7960  -13.6281 C.ar    1  UNL1        0.1231
     14 N         -20.9254   -7.9859  -14.3101 N.ar    1  UNL1       -0.1676
     15 N         -21.2102   -7.9403  -15.6031 N.ar    1  UNL1       -0.2488
     16 C         -20.2172   -8.1400  -16.6528 C.3     1  UNL1        0.1537
     17 C         -25.2760   -7.8253  -20.8604 C.3     1  UNL1        0.0310
     18 C         -24.5427   -7.7950  -19.5526 C.ar    1  UNL1       -0.0218
     19 C         -23.9938   -8.9728  -19.0221 C.ar    1  UNL1       -0.0042
     20 C         -23.3397   -8.9514  -17.7867 C.ar    1  UNL1        0.0012
     21 C         -23.2383   -7.7554  -17.0634 C.ar    1  UNL1        0.0174
     22 C         -23.8062   -6.5830  -17.5811 C.ar    1  UNL1        0.0012
     23 C         -24.4590   -6.6031  -18.8165 C.ar    1  UNL1       -0.0042
     24 N         -24.0605   -9.9896  -12.4424 N.pl3   1  UNL1       -0.2933
     25 C         -23.1089  -10.3074  -11.3904 C.3     1  UNL1        0.0936
     26 C         -22.1586  -11.3289  -12.0028 C.3     1  UNL1        0.0391
     27 C         -22.9976  -12.0125  -13.0954 C.3     1  UNL1        0.0773
     28 C         -23.9990  -10.9341  -13.5618 C.3     1  UNL1        0.0887
     29 N         -22.2407  -12.6292  -14.2202 N.3     1  UNL1       -0.2724
     30 C         -22.7329  -13.9442  -14.6856 C.3     1  UNL1        0.0721
     31 C         -21.7002  -14.5776  -15.6207 C.3     1  UNL1        0.0174
     32 C         -21.4397  -13.6590  -16.8189 C.3     1  UNL1        0.0029
     33 C         -21.0626  -12.2484  -16.3540 C.3     1  UNL1        0.0174
     34 C         -22.0970  -11.7025  -15.3615 C.3     1  UNL1        0.0721
     35 C         -25.4024  -11.4843  -13.9682 C.3     1  UNL1        0.0195
     36 C         -25.7066  -12.9006  -13.4458 C.3     1  UNL1        0.0017
     37 C         -25.6077  -11.4228  -15.4880 C.3     1  UNL1        0.0017
@<TRIPOS>BOND
     1    17    18    1
     2    18    19   ar
     3    19    20   ar
     4    20    21   ar
     5    21    11    1
     6    11    12   ar
     7    12     1    1
     8     1     2   ar
     9     2     3   ar
    10     3     4    1
    11     3     5   ar
    12     5     6   ar
    13     6     7   ar
    14     7     8   ar
    15     8     9   ar
    16     9    24    1
    17    24    25    1
    18    25    26    1
    19    26    27    1
    20    27    29    1
    21    29    30    1
    22    30    31    1
    23    31    32    1
    24    32    33    1
    25    33    34    1
    26    27    28    1
    27    28    35    1
    28    35    36    1
    29    35    37    1
    30     9    10   ar
    31    12    13   ar
    32    13    14   ar
    33    14    15   ar
    34    15    16    1
    35    21    22   ar
    36    22    23   ar
    37    23    18   ar
    38    15    11   ar
    39    10     1   ar
    40    10     5   ar
    41    28    24    1
    42    34    29    1
@<TRIPOS>MOLECULE
*****
 37 42 0 0 0
SMALL
GASTEIGER

@<TRIPOS>ATOM
      1 C         -25.0998   -8.2205  -13.9224 C.ar    1  UNL1        0.1095
      2 N         -26.3360   -8.3288  -14.4715 N.ar    1  UNL1       -0.1677
      3 N         -27.1300   -7.4406  -13.8851 N.ar    1  UNL1       -0.2319
      4 C         -28.5098   -7.1893  -14.2785 C.3     1  UNL1        0.1554
      5 C         -26.4021   -6.7420  -13.0010 C.ar    1  UNL1        0.1654
      6 N         -26.8025   -5.6677  -12.2794 N.ar    1  UNL1       -0.2050
      7 C         -25.8869   -5.0620  -11.4673 C.ar    1  UNL1        0.2014
      8 N         -24.6116   -5.5540  -11.3695 N.ar    1  UNL1       -0.2089
      9 C         -24.2017   -6.6393  -12.0927 C.ar    1  UNL1        0.1379
     10 C         -25.1271   -7.2144  -12.9662 C.ar    1  UNL1        0.0865
     11 C         -23.6318  -10.2161  -14.5838 C.ar    1  UNL1        0.0809
     12 C         -23.9144   -8.8666  -14.5009 C.ar    1  UNL1        0.0577
     13 C         -22.8413   -8.2376  -15.1045 C.ar    1  UNL1        0.1231
     14 N         -21.9602   -9.1664  -15.5265 N.ar    1  UNL1       -0.1676
     15 N         -22.4433  -10.3579  -15.2076 N.ar    1  UNL1       -0.2488
     16 C         -21.7425  -11.6084  -15.4781 C.3     1  UNL1        0.1537
     17 C         -26.6016  -14.5337  -12.1384 C.3     1  UNL1        0.0310
     18 C         -25.8121  -13.4292  -12.7756 C.ar    1  UNL1       -0.0218
     19 C         -24.9591  -12.6303  -11.9985 C.ar    1  UNL1       -0.0042
     20 C         -24.2490  -11.5790  -12.5859 C.ar    1  UNL1        0.0012
     21 C         -24.3936  -11.3079  -13.9532 C.ar    1  UNL1        0.0174
     22 C         -25.2629  -12.0904  -14.7260 C.ar    1  UNL1        0.0012
     23 C         -25.9720  -13.1423  -14.1400 C.ar    1  UNL1       -0.0042
     24 N         -22.9208   -7.2305  -11.8263 N.pl3   1  UNL1       -0.2933
     25 C         -21.6786   -6.5717  -12.1955 C.3     1  UNL1        0.0936
     26 C         -20.5760   -7.5557  -11.8249 C.3     1  UNL1        0.0391
     27 C         -21.1876   -8.3927  -10.6890 C.3     1  UNL1        0.0773
     28 C         -22.7045   -8.4042  -10.9749 C.3     1  UNL1        0.0887
     29 N         -20.6215   -9.7568  -10.4953 N.3     1  UNL1       -0.2724
     30 C         -20.8560  -10.7156  -11.5970 C.3     1  UNL1        0.0721
     31 C         -20.4868  -12.1276  -11.1363 C.3     1  UNL1        0.0174
     32 C         -19.0183  -12.1738  -10.7018 C.3     1  UNL1        0.0029
     33 C         -18.7230  -11.0912   -9.6584 C.3     1  UNL1        0.0174
     34 C         -19.1860   -9.7139  -10.1499 C.3     1  UNL1        0.0721
     35 C         -23.6053   -8.4020   -9.6997 C.3     1  UNL1        0.0195
     36 C         -22.8427   -8.6295   -8.3813 C.3     1  UNL1        0.0017
     37 C         -24.7573   -9.4081   -9.8279 C.3     1  UNL1        0.0017
@<TRIPOS>BOND
     1    17    18    1
     2    18    19   ar
     3    19    20   ar
     4    20    21   ar
     5    21    11    1
     6    11    12   ar
     7    12     1    1
     8     1     2   ar
     9     2     3   ar
    10     3     4    1
    11     3     5   ar
    12     5     6   ar
    13     6     7   ar
    14     7     8   ar
    15     8     9   ar
    16     9    24    1
    17    24    25    1
    18    25    26    1
    19    26    27    1
    20    27    29    1
    21    29    30    1
    22    30    31    1
    23    31    32    1
    24    32    33    1
    25    33    34    1
    26    27    28    1
    27    28    35    1
    28    35    36    1
    29    35    37    1
    30     9    10   ar
    31    12    13   ar
    32    13    14   ar
    33    14    15   ar
    34    15    16    1
    35    21    22   ar
    36    22    23   ar
    37    23    18   ar
    38    15    11   ar
    39    10     1   ar
    40    10     5   ar
    41    28    24    1
    42    34    29    1
@<TRIPOS>MOLECULE
*****
 37 42 0 0 0
SMALL
GASTEIGER

@<TRIPOS>ATOM
      1 C         -21.7257   -7.0430  -12.0900 C.ar    1  UNL1        0.1095
      2 N         -21.7317   -5.7019  -11.8833 N.ar    1  UNL1       -0.1677
      3 N         -21.5056   -5.4796  -10.5939 N.ar    1  UNL1       -0.2319
      4 C         -21.3401   -4.1566  -10.0071 C.3     1  UNL1        0.1554
      5 C         -21.3145   -6.6613   -9.9885 C.ar    1  UNL1        0.1654
      6 N         -20.9427   -6.8710   -8.7029 N.ar    1  UNL1       -0.2050
      7 C         -20.7493   -8.1588   -8.2921 C.ar    1  UNL1        0.2014
      8 N         -20.9584   -9.2025   -9.1551 N.ar    1  UNL1       -0.2089
      9 C         -21.3363   -8.9982  -10.4529 C.ar    1  UNL1        0.1379
     10 C         -21.4719   -7.6759  -10.8807 C.ar    1  UNL1        0.0865
     11 C         -22.7493   -7.9184  -14.2720 C.ar    1  UNL1        0.0809
     12 C         -21.6890   -7.6397  -13.4316 C.ar    1  UNL1        0.0577
     13 C         -20.5629   -8.0258  -14.1347 C.ar    1  UNL1        0.1231
     14 N         -20.9327   -8.5125  -15.3361 N.ar    1  UNL1       -0.1676
     15 N         -22.2536   -8.4458  -15.4113 N.ar    1  UNL1       -0.2488
     16 C         -23.0185   -8.9178  -16.5603 C.3     1  UNL1        0.1537
     17 C         -28.3577   -7.5922  -12.9010 C.3     1  UNL1        0.0310
     18 C         -26.8976   -7.6780  -13.2324 C.ar    1  UNL1       -0.0218
     19 C         -26.1128   -6.5152  -13.2765 C.ar    1  UNL1       -0.0042
     20 C         -24.7595   -6.5909  -13.6187 C.ar    1  UNL1        0.0012
     21 C         -24.1798   -7.8276  -13.9322 C.ar    1  UNL1        0.0174
     22 C         -24.9677   -8.9868  -13.9112 C.ar    1  UNL1        0.0012
     23 C         -26.3203   -8.9124  -13.5679 C.ar    1  UNL1       -0.0042
     24 N         -21.7198  -10.1164  -11.2678 N.pl3   1  UNL1       -0.2933
     25 C         -20.7927  -11.1907  -11.5839 C.3     1  UNL1        0.0936
     26 C         -21.5539  -12.1142  -12.5268 C.3     1  UNL1        0.0391
     27 C         -23.0307  -11.8843  -12.1646 C.3     1  UNL1        0.0773
     28 C         -23.0962  -10.4243  -11.6674 C.3     1  UNL1        0.0887
     29 N         -24.0264  -12.1808  -13.2320 N.3     1  UNL1       -0.2724
     30 C         -23.4823  -12.3289  -14.5995 C.3     1  UNL1        0.0721
     31 C         -24.6303  -12.3320  -15.6115 C.3     1  UNL1        0.0174
     32 C         -25.6013  -13.4767  -15.3045 C.3     1  UNL1        0.0029
     33 C         -26.0690  -13.4201  -13.8464 C.3     1  UNL1        0.0174
     34 C         -24.8732  -13.3414  -12.8888 C.3     1  UNL1        0.0721
     35 C         -24.1295  -10.1739  -10.5241 C.3     1  UNL1        0.0195
     36 C         -24.5496   -8.7019  -10.3569 C.3     1  UNL1        0.0017
     37 C         -23.6311  -10.7396   -9.1871 C.3     1  UNL1        0.0017
@<TRIPOS>BOND
     1    17    18    1
     2    18    19   ar
     3    19    20   ar
     4    20    21   ar
     5    21    11    1
     6    11    12   ar
     7    12     1    1
     8     1     2   ar
     9     2     3   ar
    10     3     4    1
    11     3     5   ar
    12     5     6   ar
    13     6     7   ar
    14     7     8   ar
    15     8     9   ar
    16     9    24    1
    17    24    25    1
    18    25    26    1
    19    26    27    1
    20    27    29    1
    21    29    30    1
    22    30    31    1
    23    31    32    1
    24    32    33    1
    25    33    34    1
    26    27    28    1
    27    28    35    1
    28    35    36    1
    29    35    37    1
    30     9    10   ar
    31    12    13   ar
    32    13    14   ar
    33    14    15   ar
    34    15    16    1
    35    21    22   ar
    36    22    23   ar
    37    23    18   ar
    38    15    11   ar
    39    10     1   ar
    40    10     5   ar
    41    28    24    1
    42    34    29    1
@<TRIPOS>MOLECULE
*****
 37 42 0 0 0
SMALL
GASTEIGER

@<TRIPOS>ATOM
      1 C         -20.7582  -10.4042  -11.7212 C.ar    1  UNL1        0.1095
      2 N         -20.0041  -11.1282  -10.8561 N.ar    1  UNL1       -0.1677
      3 N         -19.9000  -12.3642  -11.3300 N.ar    1  UNL1       -0.2319
      4 C         -19.0817  -13.4071  -10.7263 C.3     1  UNL1        0.1554
      5 C         -20.5433  -12.4214  -12.5058 C.ar    1  UNL1        0.1654
      6 N         -20.5784  -13.4649  -13.3689 N.ar    1  UNL1       -0.2050
      7 C         -21.2515  -13.3026  -14.5459 C.ar    1  UNL1        0.2014
      8 N         -21.8953  -12.1247  -14.8216 N.ar    1  UNL1       -0.2089
      9 C         -21.8663  -11.0687  -13.9540 C.ar    1  UNL1        0.1379
     10 C         -21.1244  -11.2228  -12.7810 C.ar    1  UNL1        0.0865
     11 C         -21.8140   -8.1875  -10.9819 C.ar    1  UNL1        0.0809
     12 C         -20.8672   -8.9413  -11.6478 C.ar    1  UNL1        0.0577
     13 C         -20.0147   -8.0183  -12.2247 C.ar    1  UNL1        0.1231
     14 N         -20.4326   -6.7737  -11.9191 N.ar    1  UNL1       -0.1676
     15 N         -21.5197   -6.8837  -11.1700 N.ar    1  UNL1       -0.2488
     16 C         -22.2744   -5.7377  -10.6749 C.3     1  UNL1        0.1537
     17 C         -26.6137  -10.1958   -8.4580 C.3     1  UNL1        0.0310
     18 C         -25.3699   -9.6937   -9.1288 C.ar    1  UNL1       -0.0218
     19 C         -24.1127  -10.1888   -8.7493 C.ar    1  UNL1       -0.0042
     20 C         -22.9505   -9.6964   -9.3504 C.ar    1  UNL1        0.0012
     21 C         -23.0323   -8.6955  -10.3280 C.ar    1  UNL1        0.0174
     22 C         -24.2856   -8.1836  -10.6915 C.ar    1  UNL1        0.0012
     23 C         -25.4479   -8.6761  -10.0922 C.ar    1  UNL1       -0.0042
     24 N         -22.6997   -9.9249  -14.1956 N.pl3   1  UNL1       -0.2933
     25 C         -22.4295   -8.9920  -15.2773 C.3     1  UNL1        0.0936
     26 C         -23.4764   -7.8945  -15.1327 C.3     1  UNL1        0.0391
     27 C         -24.6522   -8.5896  -14.4260 C.3     1  UNL1        0.0773
     28 C         -24.0026   -9.6938  -13.5648 C.3     1  UNL1        0.0887
     29 N         -25.5693   -7.7097  -13.6493 N.3     1  UNL1       -0.2724
     30 C         -25.4403   -6.2581  -13.9030 C.3     1  UNL1        0.0721
     31 C         -26.2176   -5.4797  -12.8391 C.3     1  UNL1        0.0174
     32 C         -27.6940   -5.8884  -12.8597 C.3     1  UNL1        0.0029
     33 C         -27.8418   -7.4087  -12.7377 C.3     1  UNL1        0.0174
     34 C         -26.9793   -8.1298  -13.7814 C.3     1  UNL1        0.0721
     35 C         -24.8517  -10.9974  -13.4328 C.3     1  UNL1        0.0195
     36 C         -24.3310  -11.9921  -12.3788 C.3     1  UNL1        0.0017
     37 C         -25.0153  -11.6971  -14.7890 C.3     1  UNL1        0.0017
@<TRIPOS>BOND
     1    17    18    1
     2    18    19   ar
     3    19    20   ar
     4    20    21   ar
     5    21    11    1
     6    11    12   ar
     7    12     1    1
     8     1     2   ar
     9     2     3   ar
    10     3     4    1
    11     3     5   ar
    12     5     6   ar
    13     6     7   ar
    14     7     8   ar
    15     8     9   ar
    16     9    24    1
    17    24    25    1
    18    25    26    1
    19    26    27    1
    20    27    29    1
    21    29    30    1
    22    30    31    1
    23    31    32    1
    24    32    33    1
    25    33    34    1
    26    27    28    1
    27    28    35    1
    28    35    36    1
    29    35    37    1
    30     9    10   ar
    31    12    13   ar
    32    13    14   ar
    33    14    15   ar
    34    15    16    1
    35    21    22   ar
    36    22    23   ar
    37    23    18   ar
    38    15    11   ar
    39    10     1   ar
    40    10     5   ar
    41    28    24    1
    42    34    29    1
@<TRIPOS>MOLECULE
*****
 37 42 0 0 0
SMALL
GASTEIGER

@<TRIPOS>ATOM
      1 C         -21.5920  -10.7492  -11.1153 C.ar    1  UNL1        0.1095
      2 N         -20.4927  -11.5422  -11.1796 N.ar    1  UNL1       -0.1677
      3 N         -19.6114  -11.1030  -10.2888 N.ar    1  UNL1       -0.2319
      4 C         -18.3459  -11.7617   -9.9946 C.3     1  UNL1        0.1554
      5 C         -20.1551  -10.0678   -9.6314 C.ar    1  UNL1        0.1654
      6 N         -19.6346   -9.4102   -8.5675 N.ar    1  UNL1       -0.2050
      7 C         -20.3752   -8.4100   -8.0055 C.ar    1  UNL1        0.2014
      8 N         -21.5945   -8.0692   -8.5300 N.ar    1  UNL1       -0.2089
      9 C         -22.1244   -8.7267   -9.6050 C.ar    1  UNL1        0.1379
     10 C         -21.3874   -9.7881  -10.1346 C.ar    1  UNL1        0.0865
     11 C         -23.2080  -10.9199  -13.0989 C.ar    1  UNL1        0.0809
     12 C         -22.8591  -11.0932  -11.7736 C.ar    1  UNL1        0.0577
     13 C         -23.9611  -11.6877  -11.1873 C.ar    1  UNL1        0.1231
     14 N         -24.9219  -11.8600  -12.1170 N.ar    1  UNL1       -0.1676
     15 N         -24.4607  -11.3931  -13.2678 N.ar    1  UNL1       -0.2488
     16 C         -25.2405  -11.3800  -14.5006 C.3     1  UNL1        0.1537
     17 C         -20.1333   -8.0444  -17.0635 C.3     1  UNL1        0.0310
     18 C         -20.9096   -8.7963  -16.0238 C.ar    1  UNL1       -0.0218
     19 C         -21.1409  -10.1727  -16.1717 C.ar    1  UNL1       -0.0042
     20 C         -21.8935  -10.8673  -15.2200 C.ar    1  UNL1        0.0012
     21 C         -22.4328  -10.1909  -14.1175 C.ar    1  UNL1        0.0174
     22 C         -22.2222   -8.8118  -13.9805 C.ar    1  UNL1        0.0012
     23 C         -21.4689   -8.1170  -14.9305 C.ar    1  UNL1       -0.0042
     24 N         -23.3130   -8.2229  -10.2333 N.pl3   1  UNL1       -0.2933
     25 C         -24.6411   -8.5631   -9.7497 C.3     1  UNL1        0.0936
     26 C         -25.6061   -7.9084  -10.7303 C.3     1  UNL1        0.0391
     27 C         -24.8141   -6.7179  -11.2964 C.3     1  UNL1        0.0773
     28 C         -23.3365   -7.1617  -11.2444 C.3     1  UNL1        0.0887
     29 N         -25.2279   -6.2289  -12.6411 N.3     1  UNL1       -0.2724
     30 C         -25.2729   -7.2473  -13.7129 C.3     1  UNL1        0.0721
     31 C         -25.4188   -6.5574  -15.0711 C.3     1  UNL1        0.0174
     32 C         -26.6941   -5.7087  -15.0976 C.3     1  UNL1        0.0029
     33 C         -26.7307   -4.7404  -13.9106 C.3     1  UNL1        0.0174
     34 C         -26.5023   -5.4836  -12.5884 C.3     1  UNL1        0.0721
     35 C         -22.3241   -6.0127  -10.9404 C.3     1  UNL1        0.0195
     36 C         -22.8736   -4.5966  -11.1939 C.3     1  UNL1        0.0017
     37 C         -21.0054   -6.2148  -11.6993 C.3     1  UNL1        0.0017
@<TRIPOS>BOND
     1    17    18    1
     2    18    19   ar
     3    19    20   ar
     4    20    21   ar
     5    21    11    1
     6    11    12   ar
     7    12     1    1
     8     1     2   ar
     9     2     3   ar
    10     3     4    1
    11     3     5   ar
    12     5     6   ar
    13     6     7   ar
    14     7     8   ar
    15     8     9   ar
    16     9    24    1
    17    24    25    1
    18    25    26    1
    19    26    27    1
    20    27    29    1
    21    29    30    1
    22    30    31    1
    23    31    32    1
    24    32    33    1
    25    33    34    1
    26    27    28    1
    27    28    35    1
    28    35    36    1
    29    35    37    1
    30     9    10   ar
    31    12    13   ar
    32    13    14   ar
    33    14    15   ar
    34    15    16    1
    35    21    22   ar
    36    22    23   ar
    37    23    18   ar
    38    15    11   ar
    39    10     1   ar
    40    10     5   ar
    41    28    24    1
    42    34    29    1
@<TRIPOS>MOLECULE
*****
 37 42 0 0 0
SMALL
GASTEIGER

@<TRIPOS>ATOM
      1 C         -20.2673  -10.2844  -11.0087 C.ar    1  UNL1        0.1095
      2 N         -19.3702  -10.7736  -10.1158 N.ar    1  UNL1       -0.1677
      3 N         -19.1509  -12.0509  -10.4050 N.ar    1  UNL1       -0.2319
      4 C         -18.1703  -12.8879   -9.7271 C.3     1  UNL1        0.1554
      5 C         -19.8657  -12.3658  -11.4956 C.ar    1  UNL1        0.1654
      6 N         -19.8358  -13.5319  -12.1844 N.ar    1  UNL1       -0.2050
      7 C         -20.6069  -13.6350  -13.3066 C.ar    1  UNL1        0.2014
      8 N         -21.4074  -12.5939  -13.6979 N.ar    1  UNL1       -0.2089
      9 C         -21.4446  -11.4155  -13.0060 C.ar    1  UNL1        0.1379
     10 C         -20.6067  -11.2975  -11.8951 C.ar    1  UNL1        0.0865
     11 C         -20.7038   -7.9086  -10.1481 C.ar    1  UNL1        0.0809
     12 C         -20.5480   -8.8493  -11.1476 C.ar    1  UNL1        0.0577
     13 C         -20.6923   -8.1452  -12.3286 C.ar    1  UNL1        0.1231
     14 N         -20.9243   -6.8473  -12.0482 N.ar    1  UNL1       -0.1676
     15 N         -20.9311   -6.7123  -10.7304 N.ar    1  UNL1       -0.2488
     16 C         -21.1868   -5.4459  -10.0531 C.3     1  UNL1        0.1537
     17 C         -21.0411   -9.0073   -4.4807 C.3     1  UNL1        0.0310
     18 C         -20.9448   -8.7453   -5.9542 C.ar    1  UNL1       -0.0218
     19 C         -19.7453   -8.2768   -6.5123 C.ar    1  UNL1       -0.0042
     20 C         -19.6653   -7.9999   -7.8803 C.ar    1  UNL1        0.0012
     21 C         -20.7866   -8.1768   -8.7020 C.ar    1  UNL1        0.0174
     22 C         -21.9919   -8.6226   -8.1421 C.ar    1  UNL1        0.0012
     23 C         -22.0725   -8.9009   -6.7750 C.ar    1  UNL1       -0.0042
     24 N         -22.4263  -10.4230  -13.3414 N.pl3   1  UNL1       -0.2933
     25 C         -22.6633  -10.0100  -14.7149 C.3     1  UNL1        0.0936
     26 C         -23.6996   -8.8964  -14.6269 C.3     1  UNL1        0.0391
     27 C         -24.4622   -9.1969  -13.3257 C.3     1  UNL1        0.0773
     28 C         -23.4330   -9.8984  -12.4137 C.3     1  UNL1        0.0887
     29 N         -25.1281   -8.0382  -12.6679 N.3     1  UNL1       -0.2724
     30 C         -24.5995   -6.7030  -13.0225 C.3     1  UNL1        0.0721
     31 C         -25.1678   -5.6544  -12.0636 C.3     1  UNL1        0.0174
     32 C         -26.6983   -5.6500  -12.1332 C.3     1  UNL1        0.0029
     33 C         -27.2595   -7.0576  -11.9055 C.3     1  UNL1        0.0174
     34 C         -26.5943   -8.0724  -12.8440 C.3     1  UNL1        0.0721
     35 C         -24.0337  -11.0003  -11.4850 C.3     1  UNL1        0.0195
     36 C         -24.9986  -11.9711  -12.1908 C.3     1  UNL1        0.0017
     37 C         -24.7076  -10.3844  -10.2512 C.3     1  UNL1        0.0017
@<TRIPOS>BOND
     1    17    18    1
     2    18    19   ar
     3    19    20   ar
     4    20    21   ar
     5    21    11    1
     6    11    12   ar
     7    12     1    1
     8     1     2   ar
     9     2     3   ar
    10     3     4    1
    11     3     5   ar
    12     5     6   ar
    13     6     7   ar
    14     7     8   ar
    15     8     9   ar
    16     9    24    1
    17    24    25    1
    18    25    26    1
    19    26    27    1
    20    27    29    1
    21    29    30    1
    22    30    31    1
    23    31    32    1
    24    32    33    1
    25    33    34    1
    26    27    28    1
    27    28    35    1
    28    35    36    1
    29    35    37    1
    30     9    10   ar
    31    12    13   ar
    32    13    14   ar
    33    14    15   ar
    34    15    16    1
    35    21    22   ar
    36    22    23   ar
    37    23    18   ar
    38    15    11   ar
    39    10     1   ar
    40    10     5   ar
    41    28    24    1
    42    34    29    1
@<TRIPOS>MOLECULE
*****
 37 42 0 0 0
SMALL
GASTEIGER

@<TRIPOS>ATOM
      1 C         -26.1575   -5.9654  -14.3647 C.ar    1  UNL1        0.1095
      2 N         -26.7710   -4.7837  -14.6266 N.ar    1  UNL1       -0.1677
      3 N         -26.3562   -4.3546  -15.8128 N.ar    1  UNL1       -0.2319
      4 C         -26.8704   -3.1662  -16.4800 C.3     1  UNL1        0.1554
      5 C         -25.5199   -5.2701  -16.3245 C.ar    1  UNL1        0.1654
      6 N         -24.9682   -5.2729  -17.5617 N.ar    1  UNL1       -0.2050
      7 C         -24.1789   -6.3312  -17.9107 C.ar    1  UNL1        0.2014
      8 N         -23.9338   -7.3401  -17.0163 N.ar    1  UNL1       -0.2089
      9 C         -24.4851   -7.3423  -15.7654 C.ar    1  UNL1        0.1379
     10 C         -25.3397   -6.2871  -15.4395 C.ar    1  UNL1        0.0865
     11 C         -25.9713   -7.0064  -12.0287 C.ar    1  UNL1        0.0809
     12 C         -26.5685   -6.8468  -13.2640 C.ar    1  UNL1        0.0577
     13 C         -27.6657   -7.6878  -13.2433 C.ar    1  UNL1        0.1231
     14 N         -27.7205   -8.3198  -12.0539 N.ar    1  UNL1       -0.1676
     15 N         -26.6940   -7.9046  -11.3267 N.ar    1  UNL1       -0.2488
     16 C         -26.4066   -8.3996   -9.9849 C.3     1  UNL1        0.1537
     17 C         -20.9229   -4.7496  -10.3372 C.3     1  UNL1        0.0310
     18 C         -22.2419   -5.3289  -10.7539 C.ar    1  UNL1       -0.0218
     19 C         -22.5590   -6.6605  -10.4442 C.ar    1  UNL1       -0.0042
     20 C         -23.7742   -7.2112  -10.8620 C.ar    1  UNL1        0.0012
     21 C         -24.6793   -6.4403  -11.6040 C.ar    1  UNL1        0.0174
     22 C         -24.3540   -5.1173  -11.9340 C.ar    1  UNL1        0.0012
     23 C         -23.1401   -4.5657  -11.5157 C.ar    1  UNL1       -0.0042
     24 N         -24.0603   -8.3177  -14.8012 N.pl3   1  UNL1       -0.2933
     25 C         -25.0045   -9.1941  -14.1276 C.3     1  UNL1        0.0936
     26 C         -24.1707   -9.9992  -13.1386 C.3     1  UNL1        0.0391
     27 C         -22.7652  -10.0183  -13.7625 C.3     1  UNL1        0.0773
     28 C         -22.6659   -8.7007  -14.5608 C.3     1  UNL1        0.0887
     29 N         -21.6276  -10.2158  -12.8215 N.3     1  UNL1       -0.2724
     30 C         -21.2648   -9.0458  -11.9924 C.3     1  UNL1        0.0721
     31 C         -19.9192   -9.2985  -11.3085 C.3     1  UNL1        0.0174
     32 C         -19.9979  -10.5567  -10.4377 C.3     1  UNL1        0.0029
     33 C         -20.5074  -11.7521  -11.2497 C.3     1  UNL1        0.0174
     34 C         -21.8171  -11.4082  -11.9705 C.3     1  UNL1        0.0721
     35 C         -21.8295   -8.7999  -15.8753 C.3     1  UNL1        0.0195
     36 C         -21.4958  -10.2390  -16.3104 C.3     1  UNL1        0.0017
     37 C         -20.5474   -7.9608  -15.7862 C.3     1  UNL1        0.0017
@<TRIPOS>BOND
     1    17    18    1
     2    18    19   ar
     3    19    20   ar
     4    20    21   ar
     5    21    11    1
     6    11    12   ar
     7    12     1    1
     8     1     2   ar
     9     2     3   ar
    10     3     4    1
    11     3     5   ar
    12     5     6   ar
    13     6     7   ar
    14     7     8   ar
    15     8     9   ar
    16     9    24    1
    17    24    25    1
    18    25    26    1
    19    26    27    1
    20    27    29    1
    21    29    30    1
    22    30    31    1
    23    31    32    1
    24    32    33    1
    25    33    34    1
    26    27    28    1
    27    28    35    1
    28    35    36    1
    29    35    37    1
    30     9    10   ar
    31    12    13   ar
    32    13    14   ar
    33    14    15   ar
    34    15    16    1
    35    21    22   ar
    36    22    23   ar
    37    23    18   ar
    38    15    11   ar
    39    10     1   ar
    40    10     5   ar
    41    28    24    1
    42    34    29    1
@<TRIPOS>MOLECULE
*****
 37 42 0 0 0
SMALL
GASTEIGER

@<TRIPOS>ATOM
      1 C         -25.2388   -8.4142  -13.5705 C.ar    1  UNL1        0.1095
      2 N         -26.3463   -8.0686  -14.2744 N.ar    1  UNL1       -0.1677
      3 N         -27.3509   -7.9167  -13.4195 N.ar    1  UNL1       -0.2319
      4 C         -28.6795   -7.4493  -13.7912 C.3     1  UNL1        0.1554
      5 C         -26.8842   -8.1204  -12.1786 C.ar    1  UNL1        0.1654
      6 N         -27.5546   -7.9485  -11.0141 N.ar    1  UNL1       -0.2050
      7 C         -26.8790   -8.1605   -9.8465 C.ar    1  UNL1        0.2014
      8 N         -25.5700   -8.5652   -9.8646 N.ar    1  UNL1       -0.2089
      9 C         -24.8881   -8.7433  -11.0361 C.ar    1  UNL1        0.1379
     10 C         -25.5691   -8.4649  -12.2230 C.ar    1  UNL1        0.0865
     11 C         -23.2699   -9.4208  -14.8686 C.ar    1  UNL1        0.0809
     12 C         -23.8924   -8.4135  -14.1574 C.ar    1  UNL1        0.0577
     13 C         -22.9781   -7.3768  -14.1288 C.ar    1  UNL1        0.1231
     14 N         -21.8634   -7.7474  -14.7899 N.ar    1  UNL1       -0.1676
     15 N         -22.0462   -8.9825  -15.2324 N.ar    1  UNL1       -0.2488
     16 C         -21.0333   -9.7314  -15.9680 C.3     1  UNL1        0.1537
     17 C         -25.1985  -14.8292  -15.5549 C.3     1  UNL1        0.0310
     18 C         -24.6995  -13.4296  -15.3523 C.ar    1  UNL1       -0.0218
     19 C         -25.6073  -12.3716  -15.1897 C.ar    1  UNL1       -0.0042
     20 C         -25.1431  -11.0620  -15.0350 C.ar    1  UNL1        0.0012
     21 C         -23.7675  -10.7950  -15.0534 C.ar    1  UNL1        0.0174
     22 C         -22.8603  -11.8475  -15.2389 C.ar    1  UNL1        0.0012
     23 C         -23.3233  -13.1570  -15.3923 C.ar    1  UNL1       -0.0042
     24 N         -23.5824   -9.3401  -11.0169 N.pl3   1  UNL1       -0.2933
     25 C         -23.2780  -10.5467  -11.7684 C.3     1  UNL1        0.0936
     26 C         -21.8375  -10.8906  -11.4105 C.3     1  UNL1        0.0391
     27 C         -21.2141   -9.5382  -11.0265 C.3     1  UNL1        0.0773
     28 C         -22.3842   -8.7076  -10.4572 C.3     1  UNL1        0.0887
     29 N         -20.0380   -9.5884  -10.1140 N.3     1  UNL1       -0.2724
     30 C         -20.2898   -9.1852   -8.7132 C.3     1  UNL1        0.0721
     31 C         -18.9568   -9.0027   -7.9838 C.3     1  UNL1        0.0174
     32 C         -18.1526  -10.3062   -8.0199 C.3     1  UNL1        0.0029
     33 C         -18.0007  -10.8148   -9.4574 C.3     1  UNL1        0.0174
     34 C         -19.3635  -10.9020  -10.1559 C.3     1  UNL1        0.0721
     35 C         -22.3055   -7.1792  -10.7659 C.3     1  UNL1        0.0195
     36 C         -21.0973   -6.7649  -11.6262 C.3     1  UNL1        0.0017
     37 C         -22.3513   -6.3462   -9.4776 C.3     1  UNL1        0.0017
@<TRIPOS>BOND
     1    17    18    1
     2    18    19   ar
     3    19    20   ar
     4    20    21   ar
     5    21    11    1
     6    11    12   ar
     7    12     1    1
     8     1     2   ar
     9     2     3   ar
    10     3     4    1
    11     3     5   ar
    12     5     6   ar
    13     6     7   ar
    14     7     8   ar
    15     8     9   ar
    16     9    24    1
    17    24    25    1
    18    25    26    1
    19    26    27    1
    20    27    29    1
    21    29    30    1
    22    30    31    1
    23    31    32    1
    24    32    33    1
    25    33    34    1
    26    27    28    1
    27    28    35    1
    28    35    36    1
    29    35    37    1
    30     9    10   ar
    31    12    13   ar
    32    13    14   ar
    33    14    15   ar
    34    15    16    1
    35    21    22   ar
    36    22    23   ar
    37    23    18   ar
    38    15    11   ar
    39    10     1   ar
    40    10     5   ar
    41    28    24    1
    42    34    29    1
@<TRIPOS>MOLECULE
*****
 37 42 0 0 0
SMALL
GASTEIGER

@<TRIPOS>ATOM
      1 C         -23.0284   -8.9251  -14.7698 C.ar    1  UNL1        0.1095
      2 N         -22.8483   -8.7770  -16.1066 N.ar    1  UNL1       -0.1677
      3 N         -23.4171   -9.8088  -16.7189 N.ar    1  UNL1       -0.2319
      4 C         -23.5175   -9.9497  -18.1652 C.3     1  UNL1        0.1554
      5 C         -23.9918  -10.5871  -15.7897 C.ar    1  UNL1        0.1654
      6 N         -24.7724  -11.6738  -16.0020 N.ar    1  UNL1       -0.2050
      7 C         -25.3082  -12.3021  -14.9145 C.ar    1  UNL1        0.2014
      8 N         -25.0324  -11.8563  -13.6484 N.ar    1  UNL1       -0.2089
      9 C         -24.2434  -10.7622  -13.4268 C.ar    1  UNL1        0.1379
     10 C         -23.7502  -10.0899  -14.5470 C.ar    1  UNL1        0.0865
     11 C         -23.6563   -6.9898  -13.2091 C.ar    1  UNL1        0.0809
     12 C         -22.7557   -7.8493  -13.8076 C.ar    1  UNL1        0.0577
     13 C         -21.5237   -7.4961  -13.2890 C.ar    1  UNL1        0.1231
     14 N         -21.6807   -6.4745  -12.4238 N.ar    1  UNL1       -0.1676
     15 N         -22.9701   -6.1734  -12.3817 N.ar    1  UNL1       -0.2488
     16 C         -23.5167   -5.0887  -11.5739 C.3     1  UNL1        0.1537
     17 C         -29.2797   -6.4597  -14.4489 C.3     1  UNL1        0.0310
     18 C         -27.8236   -6.5792  -14.1104 C.ar    1  UNL1       -0.0218
     19 C         -26.8804   -5.7544  -14.7429 C.ar    1  UNL1       -0.0042
     20 C         -25.5195   -5.8888  -14.4527 C.ar    1  UNL1        0.0012
     21 C         -25.0863   -6.8570  -13.5368 C.ar    1  UNL1        0.0174
     22 C         -26.0249   -7.6971  -12.9216 C.ar    1  UNL1        0.0012
     23 C         -27.3856   -7.5626  -13.2100 C.ar    1  UNL1       -0.0042
     24 N         -23.8326  -10.4389  -12.0896 N.pl3   1  UNL1       -0.2933
     25 C         -24.7952  -10.1950  -11.0278 C.3     1  UNL1        0.0936
     26 C         -23.9631   -9.8045   -9.8126 C.3     1  UNL1        0.0391
     27 C         -22.6048  -10.4837  -10.0552 C.3     1  UNL1        0.0773
     28 C         -22.4582  -10.5439  -11.5907 C.3     1  UNL1        0.0887
     29 N         -21.4282   -9.8665   -9.3819 N.3     1  UNL1       -0.2724
     30 C         -20.4677   -9.1730  -10.2676 C.3     1  UNL1        0.0721
     31 C         -19.1880   -8.8571   -9.4901 C.3     1  UNL1        0.0174
     32 C         -19.5110   -7.9811   -8.2754 C.3     1  UNL1        0.0029
     33 C         -20.6081   -8.6200   -7.4174 C.3     1  UNL1        0.0174
     34 C         -21.8311   -8.9817   -8.2698 C.3     1  UNL1        0.0721
     35 C         -21.7156  -11.8101  -12.1225 C.3     1  UNL1        0.0195
     36 C         -20.5274  -12.2630  -11.2539 C.3     1  UNL1        0.0017
     37 C         -21.2690  -11.6251  -13.5792 C.3     1  UNL1        0.0017
@<TRIPOS>BOND
     1    17    18    1
     2    18    19   ar
     3    19    20   ar
     4    20    21   ar
     5    21    11    1
     6    11    12   ar
     7    12     1    1
     8     1     2   ar
     9     2     3   ar
    10     3     4    1
    11     3     5   ar
    12     5     6   ar
    13     6     7   ar
    14     7     8   ar
    15     8     9   ar
    16     9    24    1
    17    24    25    1
    18    25    26    1
    19    26    27    1
    20    27    29    1
    21    29    30    1
    22    30    31    1
    23    31    32    1
    24    32    33    1
    25    33    34    1
    26    27    28    1
    27    28    35    1
    28    35    36    1
    29    35    37    1
    30     9    10   ar
    31    12    13   ar
    32    13    14   ar
    33    14    15   ar
    34    15    16    1
    35    21    22   ar
    36    22    23   ar
    37    23    18   ar
    38    15    11   ar
    39    10     1   ar
    40    10     5   ar
    41    28    24    1
    42    34    29    1
