@<TRIPOS>MOLECULE
*****
 46 51 0 0 0
SMALL
GASTEIGER

@<TRIPOS>ATOM
      1 C         -63.8540  -51.9271  -23.9615 C.ar    1  UNL1        0.0702
      2 C         -62.8271  -52.3610  -23.1096 C.ar    1  UNL1        0.0191
      3 C         -61.8017  -51.4874  -22.7439 C.ar    1  UNL1        0.0356
      4 C         -61.8074  -50.1646  -23.2234 C.ar    1  UNL1        0.1318
      5 N         -62.8282  -49.7664  -24.0341 N.ar    1  UNL1       -0.2279
      6 C         -63.8365  -50.5990  -24.4031 C.ar    1  UNL1        0.1149
      7 N         -60.7691  -49.2241  -22.8585 N.pl3   1  UNL1       -0.2924
      8 C         -60.7510  -48.6032  -21.5220 C.3     1  UNL1        0.0923
      9 C         -59.7803  -47.4148  -21.4559 C.3     1  UNL1        0.0261
     10 C         -59.9457  -46.5228  -22.7007 C.3     1  UNL1        0.0568
     11 C         -59.6890  -47.3184  -24.0208 C.3     1  UNL1        0.0672
     12 S         -60.8916  -46.8289  -25.3112 S.3     1  UNL1       -0.1670
     13 C         -59.7247  -48.8471  -23.8238 C.3     1  UNL1        0.1027
     14 H         -62.0065  -47.3148  -24.6010 H       1  UNL1        0.1023
     15 C         -59.0245  -45.2904  -22.5938 C.3     1  UNL1        0.2062
     16 O         -59.4755  -44.2319  -23.4408 O.3     1  UNL1       -0.4754
     17 C         -60.4505  -43.2772  -23.1077 C.ar    1  UNL1        0.1388
     18 C         -61.4207  -42.8279  -24.0226 C.ar    1  UNL1        0.0369
     19 C         -62.3623  -41.8737  -23.6341 C.ar    1  UNL1        0.0033
     20 C         -62.3486  -41.3562  -22.3371 C.ar    1  UNL1        0.0066
     21 C         -61.3849  -41.7887  -21.4094 C.ar    1  UNL1        0.0785
     22 C         -60.4478  -42.7604  -21.8062 C.ar    1  UNL1        0.0433
     23 C         -61.3577  -41.2549  -20.0256 C.2     1  UNL1        0.3381
     24 O         -61.9906  -40.2011  -19.7496 O.2     1  UNL1       -0.2451
     25 O         -60.6587  -41.8971  -19.0039 O.3     1  UNL1       -0.4771
     26 H         -60.2156  -42.7979  -19.1283 H       1  UNL1        0.2954
     27 C         -65.5915  -53.6955  -23.4355 C.2     1  UNL1        0.2839
     28 O         -64.9709  -54.1393  -22.4322 O.2     1  UNL1       -0.2665
     29 N         -64.9404  -52.7901  -24.3390 N.am    1  UNL1       -0.2766
     30 H         -65.1995  -52.8408  -25.3496 H       1  UNL1        0.1553
     31 C         -68.0722  -53.8382  -21.3650 C.3     1  UNL1        0.0345
     32 C         -68.0329  -54.2431  -22.8077 C.ar    1  UNL1        0.0202
     33 C         -66.9549  -54.1880  -23.7002 C.ar    1  UNL1        0.1946
     34 O         -67.3176  -54.6687  -24.8766 O.2     1  UNL1       -0.4492
     35 C         -68.5803  -55.0117  -24.7999 C.ar    1  UNL1        0.1452
     36 C         -69.3720  -55.5533  -25.8065 C.ar    1  UNL1        0.0375
     37 C         -70.7142  -55.8445  -25.5058 C.ar    1  UNL1        0.0031
     38 C         -71.2423  -55.5915  -24.2107 C.ar    1  UNL1        0.0002
     39 C         -70.4009  -55.0408  -23.2142 C.ar    1  UNL1        0.0028
     40 C         -69.0747  -54.7651  -23.5482 C.ar    1  UNL1        0.0337
     41 C         -72.6618  -55.9018  -23.9047 C.ar    1  UNL1        0.0000
     42 C         -73.6216  -55.9517  -24.9336 C.ar    1  UNL1        0.0000
     43 C         -74.9578  -56.2431  -24.6423 C.ar    1  UNL1        0.0000
     44 C         -75.3507  -56.4881  -23.3247 C.ar    1  UNL1        0.0000
     45 C         -74.4082  -56.4418  -22.2952 C.ar    1  UNL1        0.0000
     46 C         -73.0708  -56.1501  -22.5805 C.ar    1  UNL1        0.0000
@<TRIPOS>BOND
     1    31    32    1
     2    32    33   ar
     3    33    27    1
     4    27    28    2
     5    27    29   am
     6    29     1    1
     7     1     2   ar
     8     2     3   ar
     9     3     4   ar
    10     4     7    1
    11     7     8    1
    12     8     9    1
    13     9    10    1
    14    10    15    1
    15    15    16    1
    16    16    17    1
    17    17    18   ar
    18    18    19   ar
    19    19    20   ar
    20    20    21   ar
    21    21    23    1
    22    23    24    2
    23    23    25    1
    24    21    22   ar
    25    10    11    1
    26    11    12    1
    27    11    13    1
    28     4     5   ar
    29     5     6   ar
    30    33    34   ar
    31    34    35   ar
    32    35    36   ar
    33    36    37   ar
    34    37    38   ar
    35    38    41    1
    36    41    42   ar
    37    42    43   ar
    38    43    44   ar
    39    44    45   ar
    40    45    46   ar
    41    38    39   ar
    42    39    40   ar
    43    40    32   ar
    44     6     1   ar
    45    40    35   ar
    46    13     7    1
    47    46    41   ar
    48    22    17   ar
    49    29    30    1
    50    25    26    1
    51    12    14    1
@<TRIPOS>MOLECULE
*****
 46 51 0 0 0
SMALL
GASTEIGER

@<TRIPOS>ATOM
      1 C         -66.0284  -54.2720  -22.9223 C.ar    1  UNL1        0.0702
      2 C         -66.7294  -54.6008  -24.0923 C.ar    1  UNL1        0.0191
      3 C         -67.9853  -55.2048  -24.0123 C.ar    1  UNL1        0.0356
      4 C         -68.5523  -55.4723  -22.7526 C.ar    1  UNL1        0.1318
      5 N         -67.8558  -55.1242  -21.6338 N.ar    1  UNL1       -0.2279
      6 C         -66.6323  -54.5358  -21.6876 C.ar    1  UNL1        0.1149
      7 N         -69.8571  -56.0865  -22.6263 N.pl3   1  UNL1       -0.2924
      8 C         -71.0100  -55.5684  -23.3843 C.3     1  UNL1        0.0923
      9 C         -72.3386  -56.1395  -22.8669 C.3     1  UNL1        0.0261
     10 C         -72.3695  -56.1038  -21.3273 C.3     1  UNL1        0.0568
     11 C         -71.1885  -56.9166  -20.7060 C.3     1  UNL1        0.0672
     12 S         -70.4962  -56.0391  -19.2563 S.3     1  UNL1       -0.1670
     13 C         -70.0664  -57.2244  -21.7175 C.3     1  UNL1        0.1027
     14 H         -70.0497  -54.9356  -20.0088 H       1  UNL1        0.1023
     15 C         -73.7347  -56.6063  -20.8146 C.3     1  UNL1        0.2062
     16 O         -74.4011  -55.6020  -20.0477 O.3     1  UNL1       -0.4754
     17 C         -74.0417  -55.1880  -18.7544 C.ar    1  UNL1        0.1388
     18 C         -73.8776  -56.0874  -17.6847 C.ar    1  UNL1        0.0369
     19 C         -73.5229  -55.6155  -16.4198 C.ar    1  UNL1        0.0033
     20 C         -73.3301  -54.2492  -16.2051 C.ar    1  UNL1        0.0066
     21 C         -73.4935  -53.3339  -17.2595 C.ar    1  UNL1        0.0785
     22 C         -73.8385  -53.8201  -18.5341 C.ar    1  UNL1        0.0433
     23 C         -73.2876  -51.8795  -17.0524 C.2     1  UNL1        0.3381
     24 O         -73.3174  -51.0972  -18.0395 O.2     1  UNL1       -0.2451
     25 O         -73.0747  -51.3408  -15.7839 O.3     1  UNL1       -0.4771
     26 H         -73.1405  -51.8924  -14.9386 H       1  UNL1        0.2954
     27 C         -64.3166  -52.7703  -24.0350 C.2     1  UNL1        0.2839
     28 O         -64.8060  -52.9110  -25.1880 O.2     1  UNL1       -0.2665
     29 N         -64.7445  -53.6258  -22.9649 N.am    1  UNL1       -0.2766
     30 H         -64.0433  -53.8768  -22.2325 H       1  UNL1        0.1553
     31 C         -64.4753  -49.5796  -24.5397 C.3     1  UNL1        0.0345
     32 C         -63.3169  -50.3924  -24.0452 C.ar    1  UNL1        0.0202
     33 C         -63.2482  -51.7754  -23.8352 C.ar    1  UNL1        0.1946
     34 O         -62.0377  -52.1100  -23.4236 O.2     1  UNL1       -0.4492
     35 C         -61.3251  -51.0137  -23.3342 C.ar    1  UNL1        0.1452
     36 C         -59.9994  -50.8975  -22.9310 C.ar    1  UNL1        0.0375
     37 C         -59.4281  -49.6131  -22.9039 C.ar    1  UNL1        0.0031
     38 C         -60.1858  -48.4703  -23.2782 C.ar    1  UNL1        0.0002
     39 C         -61.5321  -48.6336  -23.6843 C.ar    1  UNL1        0.0028
     40 C         -62.0656  -49.9226  -23.6993 C.ar    1  UNL1        0.0337
     41 C         -59.5724  -47.1185  -23.2445 C.ar    1  UNL1        0.0000
     42 C         -58.2530  -46.9422  -22.7856 C.ar    1  UNL1        0.0000
     43 C         -57.6784  -45.6679  -22.7540 C.ar    1  UNL1        0.0000
     44 C         -58.4111  -44.5577  -23.1795 C.ar    1  UNL1        0.0000
     45 C         -59.7207  -44.7193  -23.6371 C.ar    1  UNL1        0.0000
     46 C         -60.3007  -45.9912  -23.6701 C.ar    1  UNL1        0.0000
@<TRIPOS>BOND
     1    31    32    1
     2    32    33   ar
     3    33    27    1
     4    27    28    2
     5    27    29   am
     6    29     1    1
     7     1     2   ar
     8     2     3   ar
     9     3     4   ar
    10     4     7    1
    11     7     8    1
    12     8     9    1
    13     9    10    1
    14    10    15    1
    15    15    16    1
    16    16    17    1
    17    17    18   ar
    18    18    19   ar
    19    19    20   ar
    20    20    21   ar
    21    21    23    1
    22    23    24    2
    23    23    25    1
    24    21    22   ar
    25    10    11    1
    26    11    12    1
    27    11    13    1
    28     4     5   ar
    29     5     6   ar
    30    33    34   ar
    31    34    35   ar
    32    35    36   ar
    33    36    37   ar
    34    37    38   ar
    35    38    41    1
    36    41    42   ar
    37    42    43   ar
    38    43    44   ar
    39    44    45   ar
    40    45    46   ar
    41    38    39   ar
    42    39    40   ar
    43    40    32   ar
    44     6     1   ar
    45    40    35   ar
    46    13     7    1
    47    46    41   ar
    48    22    17   ar
    49    29    30    1
    50    25    26    1
    51    12    14    1
@<TRIPOS>MOLECULE
*****
 46 51 0 0 0
SMALL
GASTEIGER

@<TRIPOS>ATOM
      1 C         -65.1182  -53.6679  -22.8070 C.ar    1  UNL1        0.0702
      2 C         -64.9465  -54.9986  -22.3970 C.ar    1  UNL1        0.0191
      3 C         -66.0541  -55.8333  -22.2391 C.ar    1  UNL1        0.0356
      4 C         -67.3444  -55.3388  -22.5043 C.ar    1  UNL1        0.1318
      5 N         -67.4782  -54.0474  -22.9193 N.ar    1  UNL1       -0.2279
      6 C         -66.4148  -53.2170  -23.0798 C.ar    1  UNL1        0.1149
      7 N         -68.5177  -56.1751  -22.3641 N.pl3   1  UNL1       -0.2924
      8 C         -69.6953  -55.9714  -23.2266 C.3     1  UNL1        0.0923
      9 C         -70.9253  -56.7288  -22.7043 C.3     1  UNL1        0.0261
     10 C         -71.0619  -56.5364  -21.1822 C.3     1  UNL1        0.0568
     11 C         -69.7931  -57.0366  -20.4197 C.3     1  UNL1        0.0672
     12 S         -69.3713  -55.8936  -19.0535 S.3     1  UNL1       -0.1670
     13 C         -68.5702  -57.2290  -21.3388 C.3     1  UNL1        0.1027
     14 H         -69.0899  -54.8112  -19.9094 H       1  UNL1        0.1023
     15 C         -72.3401  -57.2343  -20.6741 C.3     1  UNL1        0.2062
     16 O         -72.4000  -57.2292  -19.2467 O.3     1  UNL1       -0.4754
     17 C         -73.0606  -56.2716  -18.4595 C.ar    1  UNL1        0.1388
     18 C         -74.0039  -56.6154  -17.4735 C.ar    1  UNL1        0.0369
     19 C         -74.6309  -55.6182  -16.7248 C.ar    1  UNL1        0.0033
     20 C         -74.3295  -54.2731  -16.9486 C.ar    1  UNL1        0.0066
     21 C         -73.3933  -53.9086  -17.9320 C.ar    1  UNL1        0.0785
     22 C         -72.7567  -54.9214  -18.6729 C.ar    1  UNL1        0.0433
     23 C         -73.0557  -52.4856  -18.1806 C.2     1  UNL1        0.3381
     24 O         -73.5226  -51.5914  -17.4257 O.2     1  UNL1       -0.2451
     25 O         -72.2161  -52.1013  -19.2256 O.3     1  UNL1       -0.4771
     26 H         -71.7252  -52.7694  -19.8051 H       1  UNL1        0.2954
     27 C         -63.8589  -51.9186  -24.1402 C.2     1  UNL1        0.2839
     28 O         -64.4214  -52.2103  -25.2298 O.2     1  UNL1       -0.2665
     29 N         -63.9998  -52.7861  -23.0054 N.am    1  UNL1       -0.2766
     30 H         -63.1940  -52.8579  -22.3447 H       1  UNL1        0.1553
     31 C         -61.3494  -51.3899  -22.1696 C.3     1  UNL1        0.0345
     32 C         -61.9041  -50.4974  -23.2386 C.ar    1  UNL1        0.0202
     33 C         -62.9963  -50.7252  -24.0853 C.ar    1  UNL1        0.1946
     34 O         -63.1852  -49.6788  -24.8701 O.2     1  UNL1       -0.4492
     35 C         -62.2590  -48.7941  -24.5920 C.ar    1  UNL1        0.1452
     36 C         -62.0741  -47.5493  -25.1833 C.ar    1  UNL1        0.0375
     37 C         -61.0047  -46.7563  -24.7313 C.ar    1  UNL1        0.0031
     38 C         -60.1410  -47.2165  -23.7005 C.ar    1  UNL1        0.0002
     39 C         -60.3662  -48.4898  -23.1242 C.ar    1  UNL1        0.0028
     40 C         -61.4368  -49.2488  -23.5974 C.ar    1  UNL1        0.0337
     41 C         -59.0139  -46.3709  -23.2318 C.ar    1  UNL1        0.0000
     42 C         -57.7663  -46.9467  -22.9249 C.ar    1  UNL1        0.0000
     43 C         -56.7072  -46.1480  -22.4827 C.ar    1  UNL1        0.0000
     44 C         -56.8798  -44.7693  -22.3427 C.ar    1  UNL1        0.0000
     45 C         -58.1124  -44.1859  -22.6442 C.ar    1  UNL1        0.0000
     46 C         -59.1753  -44.9798  -23.0859 C.ar    1  UNL1        0.0000
@<TRIPOS>BOND
     1    31    32    1
     2    32    33   ar
     3    33    27    1
     4    27    28    2
     5    27    29   am
     6    29     1    1
     7     1     2   ar
     8     2     3   ar
     9     3     4   ar
    10     4     7    1
    11     7     8    1
    12     8     9    1
    13     9    10    1
    14    10    15    1
    15    15    16    1
    16    16    17    1
    17    17    18   ar
    18    18    19   ar
    19    19    20   ar
    20    20    21   ar
    21    21    23    1
    22    23    24    2
    23    23    25    1
    24    21    22   ar
    25    10    11    1
    26    11    12    1
    27    11    13    1
    28     4     5   ar
    29     5     6   ar
    30    33    34   ar
    31    34    35   ar
    32    35    36   ar
    33    36    37   ar
    34    37    38   ar
    35    38    41    1
    36    41    42   ar
    37    42    43   ar
    38    43    44   ar
    39    44    45   ar
    40    45    46   ar
    41    38    39   ar
    42    39    40   ar
    43    40    32   ar
    44     6     1   ar
    45    40    35   ar
    46    13     7    1
    47    46    41   ar
    48    22    17   ar
    49    29    30    1
    50    25    26    1
    51    12    14    1
@<TRIPOS>MOLECULE
*****
 46 51 0 0 0
SMALL
GASTEIGER

@<TRIPOS>ATOM
      1 C         -64.5794  -52.2100  -23.9666 C.ar    1  UNL1        0.0702
      2 C         -63.4491  -52.4193  -23.1623 C.ar    1  UNL1        0.0191
      3 C         -62.4277  -51.4686  -23.1252 C.ar    1  UNL1        0.0356
      4 C         -62.5409  -50.2923  -23.8890 C.ar    1  UNL1        0.1318
      5 N         -63.6593  -50.1083  -24.6461 N.ar    1  UNL1       -0.2279
      6 C         -64.6656  -51.0196  -24.6976 C.ar    1  UNL1        0.1149
      7 N         -61.5096  -49.2765  -23.8693 N.pl3   1  UNL1       -0.2924
      8 C         -60.8860  -48.8607  -22.6004 C.3     1  UNL1        0.0923
      9 C         -60.0715  -47.5682  -22.7592 C.3     1  UNL1        0.0261
     10 C         -60.8648  -46.5373  -23.5842 C.3     1  UNL1        0.0568
     11 C         -61.2302  -47.0873  -25.0003 C.3     1  UNL1        0.0672
     12 S         -62.9305  -46.5920  -25.4638 S.3     1  UNL1       -0.1670
     13 C         -61.0810  -48.6178  -25.1132 C.3     1  UNL1        0.1027
     14 H         -63.5373  -47.3302  -24.4293 H       1  UNL1        0.1023
     15 C         -60.0764  -45.2149  -23.6761 C.3     1  UNL1        0.2062
     16 O         -60.8858  -44.1659  -24.2105 O.3     1  UNL1       -0.4754
     17 C         -61.6293  -43.2424  -23.4572 C.ar    1  UNL1        0.1388
     18 C         -62.6829  -42.4863  -24.0036 C.ar    1  UNL1        0.0369
     19 C         -63.3835  -41.5805  -23.2054 C.ar    1  UNL1        0.0033
     20 C         -63.0443  -41.4158  -21.8608 C.ar    1  UNL1        0.0066
     21 C         -61.9921  -42.1584  -21.2971 C.ar    1  UNL1        0.0785
     22 C         -61.3001  -43.0785  -22.1061 C.ar    1  UNL1        0.0433
     23 C         -61.6207  -42.0016  -19.8695 C.2     1  UNL1        0.3381
     24 O         -62.5173  -41.7909  -19.0099 O.2     1  UNL1       -0.2451
     25 O         -60.2973  -42.0960  -19.4398 O.3     1  UNL1       -0.4771
     26 H         -59.5414  -42.3647  -20.0559 H       1  UNL1        0.2954
     27 C         -65.9125  -54.1311  -22.9889 C.2     1  UNL1        0.2839
     28 O         -64.9656  -54.5418  -22.2655 O.2     1  UNL1       -0.2665
     29 N         -65.6631  -53.1542  -24.0106 N.am    1  UNL1       -0.2766
     30 H         -66.2357  -53.2051  -24.8827 H       1  UNL1        0.1553
     31 C         -68.1644  -53.3425  -20.8054 C.3     1  UNL1        0.0345
     32 C         -68.2269  -54.3869  -21.8789 C.ar    1  UNL1        0.0202
     33 C         -67.2470  -54.7321  -22.8181 C.ar    1  UNL1        0.1946
     34 O         -67.6764  -55.7280  -23.5734 O.2     1  UNL1       -0.4492
     35 C         -68.8917  -56.0314  -23.1875 C.ar    1  UNL1        0.1452
     36 C         -69.7252  -57.0128  -23.7124 C.ar    1  UNL1        0.0375
     37 C         -71.0027  -57.1660  -23.1456 C.ar    1  UNL1        0.0031
     38 C         -71.4258  -56.3408  -22.0684 C.ar    1  UNL1        0.0002
     39 C         -70.5448  -55.3547  -21.5629 C.ar    1  UNL1        0.0028
     40 C         -69.2850  -55.2315  -22.1495 C.ar    1  UNL1        0.0337
     41 C         -72.7778  -56.5106  -21.4784 C.ar    1  UNL1        0.0000
     42 C         -72.9315  -57.0264  -20.1774 C.ar    1  UNL1        0.0000
     43 C         -74.2059  -57.1863  -19.6247 C.ar    1  UNL1        0.0000
     44 C         -75.3388  -56.8337  -20.3614 C.ar    1  UNL1        0.0000
     45 C         -75.1997  -56.3207  -21.6530 C.ar    1  UNL1        0.0000
     46 C         -73.9278  -56.1595  -22.2110 C.ar    1  UNL1        0.0000
@<TRIPOS>BOND
     1    31    32    1
     2    32    33   ar
     3    33    27    1
     4    27    28    2
     5    27    29   am
     6    29     1    1
     7     1     2   ar
     8     2     3   ar
     9     3     4   ar
    10     4     7    1
    11     7     8    1
    12     8     9    1
    13     9    10    1
    14    10    15    1
    15    15    16    1
    16    16    17    1
    17    17    18   ar
    18    18    19   ar
    19    19    20   ar
    20    20    21   ar
    21    21    23    1
    22    23    24    2
    23    23    25    1
    24    21    22   ar
    25    10    11    1
    26    11    12    1
    27    11    13    1
    28     4     5   ar
    29     5     6   ar
    30    33    34   ar
    31    34    35   ar
    32    35    36   ar
    33    36    37   ar
    34    37    38   ar
    35    38    41    1
    36    41    42   ar
    37    42    43   ar
    38    43    44   ar
    39    44    45   ar
    40    45    46   ar
    41    38    39   ar
    42    39    40   ar
    43    40    32   ar
    44     6     1   ar
    45    40    35   ar
    46    13     7    1
    47    46    41   ar
    48    22    17   ar
    49    29    30    1
    50    25    26    1
    51    12    14    1
@<TRIPOS>MOLECULE
*****
 46 51 0 0 0
SMALL
GASTEIGER

@<TRIPOS>ATOM
      1 C         -63.8759  -51.5322  -24.0886 C.ar    1  UNL1        0.0702
      2 C         -63.1677  -52.4777  -23.3318 C.ar    1  UNL1        0.0191
      3 C         -63.8015  -53.6397  -22.8886 C.ar    1  UNL1        0.0356
      4 C         -65.1517  -53.8659  -23.2138 C.ar    1  UNL1        0.1318
      5 N         -65.8082  -52.9383  -23.9663 N.ar    1  UNL1       -0.2279
      6 C         -65.2118  -51.8004  -24.4085 C.ar    1  UNL1        0.1149
      7 N         -65.8421  -55.0634  -22.7837 N.pl3   1  UNL1       -0.2924
      8 C         -66.7052  -55.8110  -23.7154 C.3     1  UNL1        0.0923
      9 C         -67.5835  -56.8372  -22.9841 C.3     1  UNL1        0.0261
     10 C         -68.2028  -56.2050  -21.7233 C.3     1  UNL1        0.0568
     11 C         -67.1066  -55.6799  -20.7414 C.3     1  UNL1        0.0672
     12 S         -67.6092  -54.0771  -20.0138 S.3     1  UNL1       -0.1670
     13 C         -65.7185  -55.5448  -21.3988 C.3     1  UNL1        0.1027
     14 H         -67.5947  -53.3965  -21.2466 H       1  UNL1        0.1023
     15 C         -69.1440  -57.2140  -21.0343 C.3     1  UNL1        0.2062
     16 O         -70.3787  -56.5992  -20.6619 O.3     1  UNL1       -0.4754
     17 C         -70.6454  -55.9819  -19.4286 C.ar    1  UNL1        0.1388
     18 C         -70.1054  -56.4427  -18.2136 C.ar    1  UNL1        0.0369
     19 C         -70.4100  -55.7894  -17.0183 C.ar    1  UNL1        0.0033
     20 C         -71.2532  -54.6761  -17.0177 C.ar    1  UNL1        0.0066
     21 C         -71.8063  -54.2028  -18.2203 C.ar    1  UNL1        0.0785
     22 C         -71.4832  -54.8599  -19.4219 C.ar    1  UNL1        0.0433
     23 C         -72.6994  -53.0185  -18.2408 C.2     1  UNL1        0.3381
     24 O         -73.7091  -52.9841  -17.4880 O.2     1  UNL1       -0.2451
     25 O         -72.4471  -51.9220  -19.0646 O.3     1  UNL1       -0.4771
     26 H         -71.6035  -51.8365  -19.6162 H       1  UNL1        0.2954
     27 C         -63.5882  -49.7178  -25.8347 C.2     1  UNL1        0.2839
     28 O         -64.0757  -50.4101  -26.7684 O.2     1  UNL1       -0.2665
     29 N         -63.2499  -50.3363  -24.5844 N.am    1  UNL1       -0.2766
     30 H         -62.4304  -49.9566  -24.0596 H       1  UNL1        0.1553
     31 C         -63.6594  -48.1592  -28.6678 C.3     1  UNL1        0.0345
     32 C         -63.3383  -47.6154  -27.3083 C.ar    1  UNL1        0.0202
     33 C         -63.3001  -48.2943  -26.0839 C.ar    1  UNL1        0.1946
     34 O         -62.9425  -47.4653  -25.1188 O.2     1  UNL1       -0.4492
     35 C         -62.7687  -46.2797  -25.6499 C.ar    1  UNL1        0.1452
     36 C         -62.3986  -45.1079  -24.9993 C.ar    1  UNL1        0.0375
     37 C         -62.2736  -43.9374  -25.7682 C.ar    1  UNL1        0.0031
     38 C         -62.5188  -43.9555  -27.1681 C.ar    1  UNL1        0.0002
     39 C         -62.8917  -45.1707  -27.7911 C.ar    1  UNL1        0.0028
     40 C         -63.0056  -46.3121  -26.9971 C.ar    1  UNL1        0.0337
     41 C         -62.3849  -42.7129  -27.9701 C.ar    1  UNL1        0.0000
     42 C         -63.4641  -42.2375  -28.7392 C.ar    1  UNL1        0.0000
     43 C         -63.3348  -41.0677  -29.4942 C.ar    1  UNL1        0.0000
     44 C         -62.1307  -40.3602  -29.4901 C.ar    1  UNL1        0.0000
     45 C         -61.0528  -40.8213  -28.7311 C.ar    1  UNL1        0.0000
     46 C         -61.1761  -41.9909  -27.9749 C.ar    1  UNL1        0.0000
@<TRIPOS>BOND
     1    31    32    1
     2    32    33   ar
     3    33    27    1
     4    27    28    2
     5    27    29   am
     6    29     1    1
     7     1     2   ar
     8     2     3   ar
     9     3     4   ar
    10     4     7    1
    11     7     8    1
    12     8     9    1
    13     9    10    1
    14    10    15    1
    15    15    16    1
    16    16    17    1
    17    17    18   ar
    18    18    19   ar
    19    19    20   ar
    20    20    21   ar
    21    21    23    1
    22    23    24    2
    23    23    25    1
    24    21    22   ar
    25    10    11    1
    26    11    12    1
    27    11    13    1
    28     4     5   ar
    29     5     6   ar
    30    33    34   ar
    31    34    35   ar
    32    35    36   ar
    33    36    37   ar
    34    37    38   ar
    35    38    41    1
    36    41    42   ar
    37    42    43   ar
    38    43    44   ar
    39    44    45   ar
    40    45    46   ar
    41    38    39   ar
    42    39    40   ar
    43    40    32   ar
    44     6     1   ar
    45    40    35   ar
    46    13     7    1
    47    46    41   ar
    48    22    17   ar
    49    29    30    1
    50    25    26    1
    51    12    14    1
