@<TRIPOS>MOLECULE
*****
 28 30 0 0 0
SMALL
GASTEIGER

@<TRIPOS>ATOM
      1 C         -14.9514    0.8384  -13.4537 C.ar    1  UNL1        0.1386
      2 C         -14.1540    1.9433  -13.7729 C.ar    1  UNL1        0.0366
      3 C         -13.7309    2.1602  -15.0869 C.ar    1  UNL1       -0.0011
      4 C         -14.1035    1.2724  -16.1081 C.ar    1  UNL1       -0.0206
      5 C         -14.9027    0.1629  -15.7914 C.ar    1  UNL1       -0.0011
      6 C         -15.3269   -0.0528  -14.4775 C.ar    1  UNL1        0.0366
      7 O         -15.3495    0.6735  -12.1166 O.3     1  UNL1       -0.4736
      8 C         -16.2629    1.5157  -11.4134 C.3     1  UNL1        0.2267
      9 C         -17.7024    1.2381  -11.8540 C.3     1  UNL1        0.1396
     10 N         -18.5404    2.4284  -11.6433 N.pl3   1  UNL1       -0.2879
     11 C         -17.9125    3.7553  -11.6735 C.3     1  UNL1        0.1137
     12 C         -22.7127    2.0335  -10.9491 C.ar    1  UNL1       -0.0029
     13 C         -22.1770    1.6033  -12.1690 C.ar    1  UNL1        0.0001
     14 C         -20.8092    1.7285  -12.4186 C.ar    1  UNL1        0.0340
     15 C         -19.9670    2.2793  -11.4329 C.ar    1  UNL1        0.1318
     16 N         -20.5185    2.6777  -10.2511 N.ar    1  UNL1       -0.2295
     17 C         -21.8464    2.5664   -9.9869 C.ar    1  UNL1        0.0960
     18 C         -25.0123    2.7959  -11.5368 C.3     1  UNL1        0.0051
     19 C         -24.1795    1.8717  -10.6549 C.3     1  UNL1        0.0279
     20 C         -13.6727    1.5223  -17.5358 C.3     1  UNL1        0.0468
     21 C         -14.7396    1.1277  -18.5759 C.3     1  UNL1        0.1369
     22 S         -14.2393   -0.3727  -19.5227 S.3     1  UNL1       -0.0482
     23 C         -14.2069    0.5889  -21.0282 C.2     1  UNL1        0.2792
     24 O         -13.7827    0.1235  -22.1175 O.2     1  UNL1       -0.2625
     25 N         -14.6688    1.9191  -20.9141 N.am    1  UNL1       -0.2460
     26 C         -14.9976    2.2192  -19.5715 C.2     1  UNL1        0.2392
     27 O         -15.4809    3.3353  -19.2443 O.2     1  UNL1       -0.2737
     28 H         -14.7425    2.5929  -21.7086 H       1  UNL1        0.1583
@<TRIPOS>BOND
     1    18    19    1
     2    19    12    1
     3    12    13   ar
     4    13    14   ar
     5    14    15   ar
     6    15    10    1
     7    10    11    1
     8    10     9    1
     9     9     8    1
    10     8     7    1
    11     7     1    1
    12     1     2   ar
    13     2     3   ar
    14     3     4   ar
    15     4    20    1
    16    20    21    1
    17    21    22    1
    18    22    23    1
    19    23    24    2
    20    23    25   am
    21    25    26   am
    22    26    27    2
    23     4     5   ar
    24     5     6   ar
    25    15    16   ar
    26    16    17   ar
    27    17    12   ar
    28     6     1   ar
    29    26    21    1
    30    25    28    1
@<TRIPOS>MOLECULE
*****
 28 30 0 0 0
SMALL
GASTEIGER

@<TRIPOS>ATOM
      1 C         -25.0067  -11.4481  -13.4594 C.ar    1  UNL1        0.1386
      2 C         -24.0530  -11.7569  -12.4829 C.ar    1  UNL1        0.0366
      3 C         -23.1793  -10.7764  -12.0055 C.ar    1  UNL1       -0.0011
      4 C         -23.2485   -9.4638  -12.4978 C.ar    1  UNL1       -0.0206
      5 C         -24.2034   -9.1507  -13.4776 C.ar    1  UNL1       -0.0011
      6 C         -25.0780  -10.1312  -13.9536 C.ar    1  UNL1        0.0366
      7 O         -25.8605  -12.4735  -13.8986 O.3     1  UNL1       -0.4736
      8 C         -25.5198  -13.8574  -13.9823 C.3     1  UNL1        0.2267
      9 C         -25.1507  -14.2370  -15.4186 C.3     1  UNL1        0.1396
     10 N         -23.6982  -14.1228  -15.6207 N.pl3   1  UNL1       -0.2879
     11 C         -22.8818  -15.3431  -15.6220 C.3     1  UNL1        0.1137
     12 C         -21.8794  -10.3273  -16.1961 C.ar    1  UNL1       -0.0029
     13 C         -22.9882  -10.6810  -16.9742 C.ar    1  UNL1        0.0001
     14 C         -23.5976  -11.9254  -16.8039 C.ar    1  UNL1        0.0340
     15 C         -23.0993  -12.8205  -15.8370 C.ar    1  UNL1        0.1318
     16 N         -22.0252  -12.4407  -15.0875 N.ar    1  UNL1       -0.2295
     17 C         -21.4160  -11.2356  -15.2368 C.ar    1  UNL1        0.0960
     18 C         -22.2936   -7.8887  -16.5074 C.3     1  UNL1        0.0051
     19 C         -21.2359   -8.9754  -16.3463 C.3     1  UNL1        0.0279
     20 C         -22.3250   -8.3940  -11.9602 C.3     1  UNL1        0.0468
     21 C         -23.0035   -7.4512  -10.9470 C.3     1  UNL1        0.1369
     22 S         -22.4779   -5.7016  -11.1938 S.3     1  UNL1       -0.0482
     23 C         -21.7381   -5.6952   -9.5675 C.2     1  UNL1        0.2792
     24 O         -21.0448   -4.7339   -9.1450 O.2     1  UNL1       -0.2625
     25 N         -21.9623   -6.8527   -8.7892 N.am    1  UNL1       -0.2460
     26 C         -22.6882   -7.8166   -9.5271 C.2     1  UNL1        0.2392
     27 O         -23.0466   -8.9089   -9.0123 O.2     1  UNL1       -0.2737
     28 H         -21.6251   -6.9848   -7.8096 H       1  UNL1        0.1583
@<TRIPOS>BOND
     1    18    19    1
     2    19    12    1
     3    12    13   ar
     4    13    14   ar
     5    14    15   ar
     6    15    10    1
     7    10    11    1
     8    10     9    1
     9     9     8    1
    10     8     7    1
    11     7     1    1
    12     1     2   ar
    13     2     3   ar
    14     3     4   ar
    15     4    20    1
    16    20    21    1
    17    21    22    1
    18    22    23    1
    19    23    24    2
    20    23    25   am
    21    25    26   am
    22    26    27    2
    23     4     5   ar
    24     5     6   ar
    25    15    16   ar
    26    16    17   ar
    27    17    12   ar
    28     6     1   ar
    29    26    21    1
    30    25    28    1
@<TRIPOS>MOLECULE
*****
 28 30 0 0 0
SMALL
GASTEIGER

@<TRIPOS>ATOM
      1 C         -22.3451  -10.3052  -10.3126 C.ar    1  UNL1        0.1386
      2 C         -23.5438  -10.2949  -11.0348 C.ar    1  UNL1        0.0366
      3 C         -23.6071  -10.8457  -12.3175 C.ar    1  UNL1       -0.0011
      4 C         -22.4670  -11.4213  -12.8996 C.ar    1  UNL1       -0.0206
      5 C         -21.2630  -11.4329  -12.1784 C.ar    1  UNL1       -0.0011
      6 C         -21.2005  -10.8834  -10.8950 C.ar    1  UNL1        0.0366
      7 O         -22.3423   -9.7403   -9.0264 O.3     1  UNL1       -0.4736
      8 C         -22.5668   -8.3630   -8.7250 C.3     1  UNL1        0.2267
      9 C         -21.3120   -7.5353   -9.0144 C.3     1  UNL1        0.1396
     10 N         -21.5839   -6.5456  -10.0681 N.pl3   1  UNL1       -0.2879
     11 C         -21.6092   -5.1203   -9.7163 C.3     1  UNL1        0.1137
     12 C         -22.2985   -7.8042  -14.0619 C.ar    1  UNL1       -0.0029
     13 C         -21.0030   -7.8891  -13.5379 C.ar    1  UNL1        0.0001
     14 C         -20.7462   -7.4764  -12.2292 C.ar    1  UNL1        0.0340
     15 C         -21.7989   -6.9843  -11.4329 C.ar    1  UNL1        0.1318
     16 N         -23.0512   -6.9255  -11.9695 N.ar    1  UNL1       -0.2295
     17 C         -23.3238   -7.3205  -13.2405 C.ar    1  UNL1        0.0960
     18 C         -21.3091   -8.6748  -16.1781 C.3     1  UNL1        0.0051
     19 C         -22.5942   -8.2784  -15.4590 C.3     1  UNL1        0.0279
     20 C         -22.5409  -12.0457  -14.2748 C.3     1  UNL1        0.0468
     21 C         -23.9830  -12.2367  -14.7844 C.3     1  UNL1        0.1369
     22 S         -24.6576  -13.8837  -14.3046 S.3     1  UNL1       -0.0482
     23 C         -24.7874  -14.3323  -16.0291 C.2     1  UNL1        0.2792
     24 O         -25.1006  -15.4920  -16.4034 O.2     1  UNL1       -0.2625
     25 N         -24.4929  -13.3041  -16.9522 N.am    1  UNL1       -0.2460
     26 C         -24.0795  -12.1318  -16.2774 C.2     1  UNL1        0.2392
     27 O         -23.8160  -11.0697  -16.9011 O.2     1  UNL1       -0.2737
     28 H         -24.5564  -13.4010  -17.9901 H       1  UNL1        0.1583
@<TRIPOS>BOND
     1    18    19    1
     2    19    12    1
     3    12    13   ar
     4    13    14   ar
     5    14    15   ar
     6    15    10    1
     7    10    11    1
     8    10     9    1
     9     9     8    1
    10     8     7    1
    11     7     1    1
    12     1     2   ar
    13     2     3   ar
    14     3     4   ar
    15     4    20    1
    16    20    21    1
    17    21    22    1
    18    22    23    1
    19    23    24    2
    20    23    25   am
    21    25    26   am
    22    26    27    2
    23     4     5   ar
    24     5     6   ar
    25    15    16   ar
    26    16    17   ar
    27    17    12   ar
    28     6     1   ar
    29    26    21    1
    30    25    28    1
@<TRIPOS>MOLECULE
*****
 28 30 0 0 0
SMALL
GASTEIGER

@<TRIPOS>ATOM
      1 C         -22.0974  -10.3702  -10.5004 C.ar    1  UNL1        0.1386
      2 C         -21.1748  -11.0817  -11.2758 C.ar    1  UNL1        0.0366
      3 C         -21.5641  -11.6758  -12.4792 C.ar    1  UNL1       -0.0011
      4 C         -22.8887  -11.5642  -12.9297 C.ar    1  UNL1       -0.0206
      5 C         -23.8168  -10.8519  -12.1543 C.ar    1  UNL1       -0.0011
      6 C         -23.4266  -10.2565  -10.9517 C.ar    1  UNL1        0.0366
      7 O         -21.6479   -9.7914   -9.3019 O.3     1  UNL1       -0.4736
      8 C         -22.0347   -8.5108   -8.8033 C.3     1  UNL1        0.2267
      9 C         -20.9633   -7.4631   -9.1165 C.3     1  UNL1        0.1396
     10 N         -21.4500   -6.5233  -10.1380 N.pl3   1  UNL1       -0.2879
     11 C         -21.6166   -5.1087   -9.7820 C.3     1  UNL1        0.1137
     12 C         -22.3688   -7.8835  -14.0561 C.ar    1  UNL1       -0.0029
     13 C         -21.0512   -7.9721  -13.5911 C.ar    1  UNL1        0.0001
     14 C         -20.7276   -7.5265  -12.3084 C.ar    1  UNL1        0.0340
     15 C         -21.7350   -6.9972  -11.4781 C.ar    1  UNL1        0.1318
     16 N         -23.0104   -6.9356  -11.9569 N.ar    1  UNL1       -0.2295
     17 C         -23.3478   -7.3623  -13.2018 C.ar    1  UNL1        0.0960
     18 C         -21.4999   -8.8896  -16.1650 C.3     1  UNL1        0.0051
     19 C         -22.7363   -8.3926  -15.4236 C.3     1  UNL1        0.0279
     20 C         -23.3046  -12.1798  -14.2467 C.3     1  UNL1        0.0468
     21 C         -23.6830  -13.6697  -14.1345 C.3     1  UNL1        0.1369
     22 S         -23.1814  -14.6104  -15.6383 S.3     1  UNL1       -0.0482
     23 C         -24.8965  -14.9738  -15.9823 C.2     1  UNL1        0.2792
     24 O         -25.2671  -15.5395  -17.0434 O.2     1  UNL1       -0.2625
     25 N         -25.8187  -14.5639  -14.9936 N.am    1  UNL1       -0.2460
     26 C         -25.1578  -13.8720  -13.9519 C.2     1  UNL1        0.2392
     27 O         -25.7783  -13.4600  -12.9361 O.2     1  UNL1       -0.2737
     28 H         -26.8482  -14.7344  -15.0339 H       1  UNL1        0.1583
@<TRIPOS>BOND
     1    18    19    1
     2    19    12    1
     3    12    13   ar
     4    13    14   ar
     5    14    15   ar
     6    15    10    1
     7    10    11    1
     8    10     9    1
     9     9     8    1
    10     8     7    1
    11     7     1    1
    12     1     2   ar
    13     2     3   ar
    14     3     4   ar
    15     4    20    1
    16    20    21    1
    17    21    22    1
    18    22    23    1
    19    23    24    2
    20    23    25   am
    21    25    26   am
    22    26    27    2
    23     4     5   ar
    24     5     6   ar
    25    15    16   ar
    26    16    17   ar
    27    17    12   ar
    28     6     1   ar
    29    26    21    1
    30    25    28    1
@<TRIPOS>MOLECULE
*****
 28 30 0 0 0
SMALL
GASTEIGER

@<TRIPOS>ATOM
      1 C         -25.1409  -11.6570  -13.6958 C.ar    1  UNL1        0.1386
      2 C         -24.2923  -12.0650  -12.6604 C.ar    1  UNL1        0.0366
      3 C         -23.4341  -11.1521  -12.0416 C.ar    1  UNL1       -0.0011
      4 C         -23.4135   -9.8091  -12.4489 C.ar    1  UNL1       -0.0206
      5 C         -24.2628   -9.3967  -13.4874 C.ar    1  UNL1       -0.0011
      6 C         -25.1221  -10.3095  -14.1049 C.ar    1  UNL1        0.0366
      7 O         -25.9843  -12.6178  -14.2779 O.3     1  UNL1       -0.4736
      8 C         -25.7009  -14.0127  -14.3875 C.3     1  UNL1        0.2267
      9 C         -25.1118  -14.3379  -15.7626 C.3     1  UNL1        0.1396
     10 N         -23.6484  -14.1916  -15.7397 N.pl3   1  UNL1       -0.2879
     11 C         -22.8162  -15.3882  -15.5627 C.3     1  UNL1        0.1137
     12 C         -21.8365  -10.3755  -16.1870 C.ar    1  UNL1       -0.0029
     13 C         -22.8919  -10.7366  -17.0330 C.ar    1  UNL1        0.0001
     14 C         -23.4979  -11.9877  -16.9054 C.ar    1  UNL1        0.0340
     15 C         -23.0506  -12.8824  -15.9135 C.ar    1  UNL1        0.1318
     16 N         -22.0283  -12.4955  -15.0982 N.ar    1  UNL1       -0.2295
     17 C         -21.4234  -11.2838  -15.2049 C.ar    1  UNL1        0.0960
     18 C         -22.2565   -7.9385  -16.5021 C.3     1  UNL1        0.0051
     19 C         -21.1987   -9.0166  -16.2920 C.3     1  UNL1        0.0279
     20 C         -22.5083   -8.8131  -11.7598 C.3     1  UNL1        0.0468
     21 C         -21.9916   -9.2990  -10.3914 C.3     1  UNL1        0.1369
     22 S         -22.4438   -8.1270   -9.0423 S.3     1  UNL1       -0.0482
     23 C         -20.7121   -7.8070   -8.7408 C.2     1  UNL1        0.2792
     24 O         -20.3189   -6.9177   -7.9421 O.2     1  UNL1       -0.2625
     25 N         -19.8060   -8.6036   -9.4759 N.am    1  UNL1       -0.2460
     26 C         -20.5002   -9.4551  -10.3667 C.2     1  UNL1        0.2392
     27 O         -19.8939  -10.2922  -11.0866 O.2     1  UNL1       -0.2737
     28 H         -18.7665   -8.5589   -9.3855 H       1  UNL1        0.1583
@<TRIPOS>BOND
     1    18    19    1
     2    19    12    1
     3    12    13   ar
     4    13    14   ar
     5    14    15   ar
     6    15    10    1
     7    10    11    1
     8    10     9    1
     9     9     8    1
    10     8     7    1
    11     7     1    1
    12     1     2   ar
    13     2     3   ar
    14     3     4   ar
    15     4    20    1
    16    20    21    1
    17    21    22    1
    18    22    23    1
    19    23    24    2
    20    23    25   am
    21    25    26   am
    22    26    27    2
    23     4     5   ar
    24     5     6   ar
    25    15    16   ar
    26    16    17   ar
    27    17    12   ar
    28     6     1   ar
    29    26    21    1
    30    25    28    1
@<TRIPOS>MOLECULE
*****
 28 30 0 0 0
SMALL
GASTEIGER

@<TRIPOS>ATOM
      1 C         -25.3589  -11.9518  -13.8960 C.ar    1  UNL1        0.1386
      2 C         -24.5337  -12.2050  -12.7945 C.ar    1  UNL1        0.0366
      3 C         -23.8194  -11.1689  -12.1867 C.ar    1  UNL1       -0.0011
      4 C         -23.9226   -9.8560  -12.6721 C.ar    1  UNL1       -0.0206
      5 C         -24.7489   -9.5987  -13.7770 C.ar    1  UNL1       -0.0011
      6 C         -25.4642  -10.6347  -14.3835 C.ar    1  UNL1        0.0366
      7 O         -26.0554  -13.0318  -14.4634 O.3     1  UNL1       -0.4736
      8 C         -25.5416  -14.3530  -14.6325 C.3     1  UNL1        0.2267
      9 C         -24.8427  -14.4916  -15.9874 C.3     1  UNL1        0.1396
     10 N         -23.4035  -14.2202  -15.8507 N.pl3   1  UNL1       -0.2879
     11 C         -22.4890  -15.3405  -15.5967 C.3     1  UNL1        0.1137
     12 C         -21.8943  -10.2640  -16.1916 C.ar    1  UNL1       -0.0029
     13 C         -22.8378  -10.7201  -17.1200 C.ar    1  UNL1        0.0001
     14 C         -23.3428  -12.0184  -17.0282 C.ar    1  UNL1        0.0340
     15 C         -22.9077  -12.8652  -15.9899 C.ar    1  UNL1        0.1318
     16 N         -21.9967  -12.3864  -15.0952 N.ar    1  UNL1       -0.2295
     17 C         -21.4912  -11.1274  -15.1658 C.ar    1  UNL1        0.0960
     18 C         -22.5022   -7.8685  -16.5188 C.3     1  UNL1        0.0051
     19 C         -21.3691   -8.8556  -16.2594 C.3     1  UNL1        0.0279
     20 C         -23.1751   -8.7284  -11.9968 C.3     1  UNL1        0.0468
     21 C         -23.9181   -8.1427  -10.7800 C.3     1  UNL1        0.1369
     22 S         -23.8420   -9.2781   -9.3298 S.3     1  UNL1       -0.0482
     23 C         -25.6186   -9.4606   -9.3802 C.2     1  UNL1        0.2792
     24 O         -26.2340  -10.2809   -8.6511 O.2     1  UNL1       -0.2625
     25 N         -26.2916   -8.6380  -10.3110 N.am    1  UNL1       -0.2460
     26 C         -25.3666   -7.8809  -11.0673 C.2     1  UNL1        0.2392
     27 O         -25.7469   -7.0384  -11.9229 O.2     1  UNL1       -0.2737
     28 H         -27.3281   -8.6050  -10.4346 H       1  UNL1        0.1583
@<TRIPOS>BOND
     1    18    19    1
     2    19    12    1
     3    12    13   ar
     4    13    14   ar
     5    14    15   ar
     6    15    10    1
     7    10    11    1
     8    10     9    1
     9     9     8    1
    10     8     7    1
    11     7     1    1
    12     1     2   ar
    13     2     3   ar
    14     3     4   ar
    15     4    20    1
    16    20    21    1
    17    21    22    1
    18    22    23    1
    19    23    24    2
    20    23    25   am
    21    25    26   am
    22    26    27    2
    23     4     5   ar
    24     5     6   ar
    25    15    16   ar
    26    16    17   ar
    27    17    12   ar
    28     6     1   ar
    29    26    21    1
    30    25    28    1
@<TRIPOS>MOLECULE
*****
 28 30 0 0 0
SMALL
GASTEIGER

@<TRIPOS>ATOM
      1 C         -21.8510  -11.8363  -14.4207 C.ar    1  UNL1        0.1386
      2 C         -21.9200  -10.4677  -14.7049 C.ar    1  UNL1        0.0366
      3 C         -21.5943   -9.5207  -13.7303 C.ar    1  UNL1       -0.0011
      4 C         -21.1891   -9.9301  -12.4504 C.ar    1  UNL1       -0.0206
      5 C         -21.1194  -11.3019  -12.1617 C.ar    1  UNL1       -0.0011
      6 C         -21.4437  -12.2487  -13.1371 C.ar    1  UNL1        0.0366
      7 O         -22.1868  -12.7420  -15.4406 O.3     1  UNL1       -0.4736
      8 C         -23.2404  -13.7035  -15.3822 C.3     1  UNL1        0.2267
      9 C         -24.6046  -13.0172  -15.4891 C.3     1  UNL1        0.1396
     10 N         -25.2096  -12.8711  -14.1564 N.pl3   1  UNL1       -0.2879
     11 C         -25.9038  -14.0193  -13.5601 C.3     1  UNL1        0.1137
     12 C         -24.8347   -9.2286  -12.0029 C.ar    1  UNL1       -0.0029
     13 C         -25.3109   -9.2008  -13.3191 C.ar    1  UNL1        0.0001
     14 C         -25.4372  -10.3862  -14.0456 C.ar    1  UNL1        0.0340
     15 C         -25.0942  -11.6134  -13.4448 C.ar    1  UNL1        0.1318
     16 N         -24.6446  -11.6070  -12.1574 N.ar    1  UNL1       -0.2295
     17 C         -24.5128  -10.4659  -11.4322 C.ar    1  UNL1        0.0960
     18 C         -24.0228   -6.8716  -11.9989 C.3     1  UNL1        0.0051
     19 C         -24.7273   -7.9616  -11.1983 C.3     1  UNL1        0.0279
     20 C         -20.8063   -8.9078  -11.4042 C.3     1  UNL1        0.0468
     21 C         -20.7461   -9.4851   -9.9763 C.3     1  UNL1        0.1369
     22 S         -21.5666   -8.3690   -8.7601 S.3     1  UNL1       -0.0482
     23 C         -20.0053   -8.1334   -7.9240 C.2     1  UNL1        0.2792
     24 O         -19.8583   -7.3036   -6.9896 O.2     1  UNL1       -0.2625
     25 N         -18.9341   -8.9251   -8.3948 N.am    1  UNL1       -0.2460
     26 C         -19.3383   -9.7006   -9.5065 C.2     1  UNL1        0.2392
     27 O         -18.5577  -10.5216  -10.0569 O.2     1  UNL1       -0.2737
     28 H         -17.9721   -8.9260   -7.9881 H       1  UNL1        0.1583
@<TRIPOS>BOND
     1    18    19    1
     2    19    12    1
     3    12    13   ar
     4    13    14   ar
     5    14    15   ar
     6    15    10    1
     7    10    11    1
     8    10     9    1
     9     9     8    1
    10     8     7    1
    11     7     1    1
    12     1     2   ar
    13     2     3   ar
    14     3     4   ar
    15     4    20    1
    16    20    21    1
    17    21    22    1
    18    22    23    1
    19    23    24    2
    20    23    25   am
    21    25    26   am
    22    26    27    2
    23     4     5   ar
    24     5     6   ar
    25    15    16   ar
    26    16    17   ar
    27    17    12   ar
    28     6     1   ar
    29    26    21    1
    30    25    28    1
@<TRIPOS>MOLECULE
*****
 28 30 0 0 0
SMALL
GASTEIGER

@<TRIPOS>ATOM
      1 C         -14.2465    1.5845  -14.8237 C.ar    1  UNL1        0.1386
      2 C         -13.3803    2.3208  -15.6399 C.ar    1  UNL1        0.0366
      3 C         -13.1118    1.9087  -16.9478 C.ar    1  UNL1       -0.0011
      4 C         -13.7113    0.7492  -17.4637 C.ar    1  UNL1       -0.0206
      5 C         -14.5801    0.0080  -16.6477 C.ar    1  UNL1       -0.0011
      6 C         -14.8496    0.4214  -15.3403 C.ar    1  UNL1        0.0366
      7 O         -14.4816    2.0490  -13.5190 O.3     1  UNL1       -0.4736
      8 C         -15.3358    1.4274  -12.5587 C.3     1  UNL1        0.2267
      9 C         -16.8025    1.5535  -12.9787 C.3     1  UNL1        0.1396
     10 N         -17.5715    2.2625  -11.9444 N.pl3   1  UNL1       -0.2879
     11 C         -16.8607    3.1360  -11.0024 C.3     1  UNL1        0.1137
     12 C         -21.7950    1.8762  -11.7025 C.ar    1  UNL1       -0.0029
     13 C         -21.0922    1.1315  -12.6573 C.ar    1  UNL1        0.0001
     14 C         -19.7045    1.2475  -12.7561 C.ar    1  UNL1        0.0340
     15 C         -19.0117    2.1089  -11.8830 C.ar    1  UNL1        0.1318
     16 N         -19.7247    2.8113  -10.9567 N.ar    1  UNL1       -0.2295
     17 C         -21.0750    2.7149  -10.8433 C.ar    1  UNL1        0.0960
     18 C         -24.0007    2.9601  -12.1205 C.3     1  UNL1        0.0051
     19 C         -23.2865    1.7334  -11.5633 C.3     1  UNL1        0.0279
     20 C         -13.4466    0.3186  -18.8887 C.3     1  UNL1        0.0468
     21 C         -14.3819   -0.8068  -19.3728 C.3     1  UNL1        0.1369
     22 S         -13.5405   -2.4467  -19.3405 S.3     1  UNL1       -0.0482
     23 C         -13.7086   -2.5672  -21.1151 C.2     1  UNL1        0.2792
     24 O         -13.1754   -3.4909  -21.7826 O.2     1  UNL1       -0.2625
     25 N         -14.4630   -1.5423  -21.7288 N.am    1  UNL1       -0.2460
     26 C         -14.8689   -0.5817  -20.7733 C.2     1  UNL1        0.2392
     27 O         -15.5981    0.3956  -21.0889 O.2     1  UNL1       -0.2737
     28 H         -14.6779   -1.4925  -22.7496 H       1  UNL1        0.1583
@<TRIPOS>BOND
     1    18    19    1
     2    19    12    1
     3    12    13   ar
     4    13    14   ar
     5    14    15   ar
     6    15    10    1
     7    10    11    1
     8    10     9    1
     9     9     8    1
    10     8     7    1
    11     7     1    1
    12     1     2   ar
    13     2     3   ar
    14     3     4   ar
    15     4    20    1
    16    20    21    1
    17    21    22    1
    18    22    23    1
    19    23    24    2
    20    23    25   am
    21    25    26   am
    22    26    27    2
    23     4     5   ar
    24     5     6   ar
    25    15    16   ar
    26    16    17   ar
    27    17    12   ar
    28     6     1   ar
    29    26    21    1
    30    25    28    1
@<TRIPOS>MOLECULE
*****
 28 30 0 0 0
SMALL
GASTEIGER

@<TRIPOS>ATOM
      1 C         -20.0823  -10.0917  -10.1120 C.ar    1  UNL1        0.1386
      2 C         -18.8610  -10.2625   -9.4505 C.ar    1  UNL1        0.0366
      3 C         -18.5897   -9.5716   -8.2665 C.ar    1  UNL1       -0.0011
      4 C         -19.5423   -8.6969   -7.7211 C.ar    1  UNL1       -0.0206
      5 C         -20.7681   -8.5228   -8.3823 C.ar    1  UNL1       -0.0011
      6 C         -21.0396   -9.2151   -9.5655 C.ar    1  UNL1        0.0366
      7 O         -20.3006  -10.8152  -11.2962 O.3     1  UNL1       -0.4736
      8 C         -21.5493  -11.3685  -11.7118 C.3     1  UNL1        0.2267
      9 C         -21.7192  -11.2401  -13.2277 C.3     1  UNL1        0.1396
     10 N         -22.6013  -10.1078  -13.5495 N.pl3   1  UNL1       -0.2879
     11 C         -23.7250  -10.3203  -14.4703 C.3     1  UNL1        0.1137
     12 C         -21.8289   -6.3143  -11.8007 C.ar    1  UNL1       -0.0029
     13 C         -23.1090   -6.8711  -11.6927 C.ar    1  UNL1        0.0001
     14 C         -23.3846   -8.1145  -12.2643 C.ar    1  UNL1        0.0340
     15 C         -22.3657   -8.8132  -12.9412 C.ar    1  UNL1        0.1318
     16 N         -21.1269   -8.2485  -13.0183 N.ar    1  UNL1       -0.2295
     17 C         -20.8364   -7.0397  -12.4707 C.ar    1  UNL1        0.0960
     18 C         -21.5705   -5.0999   -9.6389 C.3     1  UNL1        0.0051
     19 C         -21.5106   -4.9911  -11.1588 C.3     1  UNL1        0.0279
     20 C         -19.2633   -7.9722   -6.4238 C.3     1  UNL1        0.0468
     21 C         -18.0560   -8.5401   -5.6519 C.3     1  UNL1        0.1369
     22 S         -18.5917   -9.6291   -4.2643 S.3     1  UNL1       -0.0482
     23 C         -17.8544   -8.4988   -3.0935 C.2     1  UNL1        0.2792
     24 O         -17.9948   -8.6283   -1.8498 O.2     1  UNL1       -0.2625
     25 N         -17.1184   -7.4313   -3.6544 N.am    1  UNL1       -0.2460
     26 C         -17.1939   -7.4616   -5.0665 C.2     1  UNL1        0.2392
     27 O         -16.5680   -6.6323   -5.7786 O.2     1  UNL1       -0.2737
     28 H         -16.6027   -6.7102   -3.1024 H       1  UNL1        0.1583
@<TRIPOS>BOND
     1    18    19    1
     2    19    12    1
     3    12    13   ar
     4    13    14   ar
     5    14    15   ar
     6    15    10    1
     7    10    11    1
     8    10     9    1
     9     9     8    1
    10     8     7    1
    11     7     1    1
    12     1     2   ar
    13     2     3   ar
    14     3     4   ar
    15     4    20    1
    16    20    21    1
    17    21    22    1
    18    22    23    1
    19    23    24    2
    20    23    25   am
    21    25    26   am
    22    26    27    2
    23     4     5   ar
    24     5     6   ar
    25    15    16   ar
    26    16    17   ar
    27    17    12   ar
    28     6     1   ar
    29    26    21    1
    30    25    28    1
