@<TRIPOS>MOLECULE
*****
 32 35 0 0 0
SMALL
GASTEIGER

@<TRIPOS>ATOM
      1 C          45.4546   12.6184  -25.0663 C.3     1  UNL1        0.2027
      2 F          44.1741   12.1710  -25.3468 F       1  UNL1       -0.2334
      3 C          46.0051   11.8725  -23.8425 C.3     1  UNL1        0.1259
      4 N          46.2864   12.7917  -22.7359 N.pl3   1  UNL1       -0.3157
      5 H          45.6932   12.6903  -21.8811 H       1  UNL1        0.1483
      6 C          48.1171   15.9735  -23.0118 C.ar    1  UNL1        0.2258
      7 C          49.3972   15.6467  -22.5627 C.ar    1  UNL1        0.0559
      8 C          49.6786   14.3312  -22.1750 C.ar    1  UNL1        0.0144
      9 C          48.6618   13.3674  -22.2207 C.ar    1  UNL1        0.0325
     10 C          47.3775   13.7289  -22.6703 C.ar    1  UNL1        0.1314
     11 N          47.1510   15.0149  -23.0547 N.ar    1  UNL1       -0.1970
     12 C          51.0407   13.9690  -21.6498 C.3     1  UNL1        0.1638
     13 O          51.2376   12.5846  -21.7386 O.3     1  UNL1       -0.3772
     14 H          50.7079   12.1755  -21.0051 H       1  UNL1        0.2109
     15 C          46.5335   17.8421  -23.3710 C.3     1  UNL1        0.2542
     16 O          47.8422   17.2855  -23.4084 O.3     1  UNL1       -0.4561
     17 C          46.3457   12.4588  -26.3042 C.3     1  UNL1        0.1429
     18 N          47.5845   13.2262  -26.1430 N.ar    1  UNL1       -0.3243
     19 C          47.7719   14.5467  -26.3957 C.ar    1  UNL1        0.0600
     20 C          46.8276   15.4821  -26.8304 C.ar    1  UNL1        0.0177
     21 C          47.2538   16.8065  -27.0378 C.ar    1  UNL1        0.0082
     22 C          48.6004   17.1727  -26.8156 C.ar    1  UNL1        0.0347
     23 BR         49.1550   18.9761  -27.1077 Br      1  UNL1       -0.0490
     24 C          49.5369   16.2152  -26.3856 C.ar    1  UNL1        0.0082
     25 C          49.0871   14.9116  -26.1856 C.ar    1  UNL1        0.0177
     26 C          49.7493   13.7692  -25.7978 C.ar    1  UNL1        0.0177
     27 C          51.0866   13.5429  -25.4779 C.ar    1  UNL1        0.0082
     28 C          51.4661   12.2323  -25.1375 C.ar    1  UNL1        0.0347
     29 BR         53.2841   11.8582  -24.6895 Br      1  UNL1       -0.0490
     30 C          50.5118   11.1904  -25.1302 C.ar    1  UNL1        0.0082
     31 C          49.1684   11.4462  -25.4598 C.ar    1  UNL1        0.0177
     32 C          48.8087   12.7575  -25.7885 C.ar    1  UNL1        0.0600
@<TRIPOS>BOND
     1    15    16    1
     2    16     6    1
     3     6     7   ar
     4     7     8   ar
     5     8    12    1
     6    12    13    1
     7     8     9   ar
     8     9    10   ar
     9    10     4    1
    10     4     3    1
    11     3     1    1
    12     1     2    1
    13     1    17    1
    14    17    18    1
    15    18    19   ar
    16    19    20   ar
    17    20    21   ar
    18    21    22   ar
    19    22    23    1
    20    22    24   ar
    21    24    25   ar
    22    25    26   ar
    23    26    27   ar
    24    27    28   ar
    25    28    29    1
    26    28    30   ar
    27    30    31   ar
    28    31    32   ar
    29    10    11   ar
    30    11     6   ar
    31    32    18   ar
    32    25    19   ar
    33    32    26   ar
    34    13    14    1
    35     4     5    1
@<TRIPOS>MOLECULE
*****
 32 35 0 0 0
SMALL
GASTEIGER

@<TRIPOS>ATOM
      1 C          45.5297   12.8220  -24.8395 C.3     1  UNL1        0.2027
      2 F          44.1748   12.6522  -25.0717 F       1  UNL1       -0.2334
      3 C          45.9625   11.9513  -23.6514 C.3     1  UNL1        0.1259
      4 N          46.4227   12.7700  -22.5260 N.pl3   1  UNL1       -0.3157
      5 H          45.9903   12.5714  -21.5952 H       1  UNL1        0.1483
      6 C          48.1684   15.9738  -23.0156 C.ar    1  UNL1        0.2258
      7 C          49.4811   15.6840  -22.6412 C.ar    1  UNL1        0.0559
      8 C          49.8129   14.3865  -22.2332 C.ar    1  UNL1        0.0144
      9 C          48.8145   13.4037  -22.1838 C.ar    1  UNL1        0.0325
     10 C          47.4971   13.7281  -22.5596 C.ar    1  UNL1        0.1314
     11 N          47.2208   14.9972  -22.9669 N.ar    1  UNL1       -0.1970
     12 C          51.2129   14.0652  -21.7871 C.3     1  UNL1        0.1638
     13 O          51.3775   12.6777  -21.6823 O.3     1  UNL1       -0.3772
     14 H          50.9140   12.3995  -20.8494 H       1  UNL1        0.2109
     15 C          46.5382   17.8167  -23.2883 C.3     1  UNL1        0.2542
     16 O          47.8427   17.2676  -23.4328 O.3     1  UNL1       -0.4561
     17 C          46.3205   12.5123  -26.1165 C.3     1  UNL1        0.1429
     18 N          47.5919   13.2425  -26.1185 N.ar    1  UNL1       -0.3243
     19 C          48.8150   12.7639  -25.7755 C.ar    1  UNL1        0.0600
     20 C          49.1505   11.4659  -25.3780 C.ar    1  UNL1        0.0177
     21 C          50.4937   11.1974  -25.0576 C.ar    1  UNL1        0.0082
     22 C          51.4694   12.2167  -25.1330 C.ar    1  UNL1        0.0347
     23 BR         53.2854   11.8280  -24.6894 Br      1  UNL1       -0.0490
     24 C          51.1104   13.5182  -25.5277 C.ar    1  UNL1        0.0082
     25 C          49.7736   13.7556  -25.8417 C.ar    1  UNL1        0.0177
     26 C          49.1193   14.9023  -26.2303 C.ar    1  UNL1        0.0177
     27 C          49.5800   16.2011  -26.4370 C.ar    1  UNL1        0.0082
     28 C          48.6406   17.1772  -26.8143 C.ar    1  UNL1        0.0347
     29 BR         49.2099   18.9753  -27.1121 Br      1  UNL1       -0.0490
     30 C          47.2781   16.8367  -26.9688 C.ar    1  UNL1        0.0082
     31 C          46.8395   15.5179  -26.7513 C.ar    1  UNL1        0.0177
     32 C          47.7899   14.5594  -26.3838 C.ar    1  UNL1        0.0600
@<TRIPOS>BOND
     1    15    16    1
     2    16     6    1
     3     6     7   ar
     4     7     8   ar
     5     8    12    1
     6    12    13    1
     7     8     9   ar
     8     9    10   ar
     9    10     4    1
    10     4     3    1
    11     3     1    1
    12     1     2    1
    13     1    17    1
    14    17    18    1
    15    18    19   ar
    16    19    20   ar
    17    20    21   ar
    18    21    22   ar
    19    22    23    1
    20    22    24   ar
    21    24    25   ar
    22    25    26   ar
    23    26    27   ar
    24    27    28   ar
    25    28    29    1
    26    28    30   ar
    27    30    31   ar
    28    31    32   ar
    29    10    11   ar
    30    11     6   ar
    31    32    18   ar
    32    25    19   ar
    33    32    26   ar
    34    13    14    1
    35     4     5    1
@<TRIPOS>MOLECULE
*****
 32 35 0 0 0
SMALL
GASTEIGER

@<TRIPOS>ATOM
      1 C          52.2498   13.6636  -22.1065 C.3     1  UNL1        0.2027
      2 F          53.5242   14.2023  -22.1717 F       1  UNL1       -0.2334
      3 C          51.7713   13.6461  -20.6476 C.3     1  UNL1        0.1259
      4 N          51.2696   12.3236  -20.2636 N.pl3   1  UNL1       -0.3157
      5 H          51.8029   11.8187  -19.5197 H       1  UNL1        0.1483
      6 C          49.0233   10.1244  -22.1792 C.ar    1  UNL1        0.2258
      7 C          47.7603   10.4408  -21.6773 C.ar    1  UNL1        0.0559
      8 C          47.6359   11.4256  -20.6900 C.ar    1  UNL1        0.0144
      9 C          48.7862   12.0617  -20.2031 C.ar    1  UNL1        0.0325
     10 C          50.0479   11.7153  -20.7228 C.ar    1  UNL1        0.1314
     11 N          50.1228   10.7650  -21.6945 N.ar    1  UNL1       -0.1970
     12 C          46.2879   11.7514  -20.1078 C.3     1  UNL1        0.1638
     13 O          45.3655   11.9903  -21.1350 O.3     1  UNL1       -0.3772
     14 H          45.5685   12.8938  -21.4936 H       1  UNL1        0.2109
     15 C          50.3953    8.5957  -23.5610 C.3     1  UNL1        0.2542
     16 O          49.1431    9.1482  -23.1726 O.3     1  UNL1       -0.4561
     17 C          51.3052   14.4455  -23.0274 C.3     1  UNL1        0.1429
     18 N          50.4997   13.5230  -23.8334 N.ar    1  UNL1       -0.3243
     19 C          50.9465   12.6304  -24.7533 C.ar    1  UNL1        0.0600
     20 C          52.2692   12.3598  -25.1179 C.ar    1  UNL1        0.0177
     21 C          52.4976   11.3910  -26.1119 C.ar    1  UNL1        0.0082
     22 C          51.4159   10.7181  -26.7234 C.ar    1  UNL1        0.0347
     23 BR         51.7517    9.4097  -28.0728 Br      1  UNL1       -0.0490
     24 C          50.0920   11.0100  -26.3481 C.ar    1  UNL1        0.0082
     25 C          49.8948   11.9719  -25.3593 C.ar    1  UNL1        0.0177
     26 C          48.7447   12.4835  -24.8031 C.ar    1  UNL1        0.0177
     27 C          47.4010   12.2065  -25.0469 C.ar    1  UNL1        0.0082
     28 C          46.4402   12.9299  -24.3180 C.ar    1  UNL1        0.0347
     29 BR         44.5825   12.5961  -24.6071 Br      1  UNL1       -0.0490
     30 C          46.8410   13.9053  -23.3777 C.ar    1  UNL1        0.0082
     31 C          48.2048   14.1668  -23.1530 C.ar    1  UNL1        0.0177
     32 C          49.1457   13.4320  -23.8822 C.ar    1  UNL1        0.0600
@<TRIPOS>BOND
     1    15    16    1
     2    16     6    1
     3     6     7   ar
     4     7     8   ar
     5     8    12    1
     6    12    13    1
     7     8     9   ar
     8     9    10   ar
     9    10     4    1
    10     4     3    1
    11     3     1    1
    12     1     2    1
    13     1    17    1
    14    17    18    1
    15    18    19   ar
    16    19    20   ar
    17    20    21   ar
    18    21    22   ar
    19    22    23    1
    20    22    24   ar
    21    24    25   ar
    22    25    26   ar
    23    26    27   ar
    24    27    28   ar
    25    28    29    1
    26    28    30   ar
    27    30    31   ar
    28    31    32   ar
    29    10    11   ar
    30    11     6   ar
    31    32    18   ar
    32    25    19   ar
    33    32    26   ar
    34    13    14    1
    35     4     5    1
@<TRIPOS>MOLECULE
*****
 32 35 0 0 0
SMALL
GASTEIGER

@<TRIPOS>ATOM
      1 C          52.2502   13.6458  -22.1228 C.3     1  UNL1        0.2027
      2 F          53.5520   14.1053  -22.2355 F       1  UNL1       -0.2334
      3 C          51.8328   13.6359  -20.6452 C.3     1  UNL1        0.1259
      4 N          51.2896   12.3332  -20.2501 N.pl3   1  UNL1       -0.3157
      5 H          51.7913   11.8301  -19.4833 H       1  UNL1        0.1483
      6 C          49.0363   10.2002  -22.2312 C.ar    1  UNL1        0.2258
      7 C          47.7735   10.5118  -21.7258 C.ar    1  UNL1        0.0559
      8 C          47.6517   11.4713  -20.7136 C.ar    1  UNL1        0.0144
      9 C          48.8043   12.0866  -20.2058 C.ar    1  UNL1        0.0325
     10 C          50.0657   11.7454  -20.7297 C.ar    1  UNL1        0.1314
     11 N          50.1380   10.8205  -21.7257 N.ar    1  UNL1       -0.1970
     12 C          46.3036   11.7908  -20.1280 C.3     1  UNL1        0.1638
     13 O          45.3711   11.9980  -21.1530 O.3     1  UNL1       -0.3772
     14 H          45.5598   12.8969  -21.5303 H       1  UNL1        0.2109
     15 C          50.3861    8.6173  -23.5731 C.3     1  UNL1        0.2542
     16 O          49.1535    9.2496  -23.2494 O.3     1  UNL1       -0.4561
     17 C          51.3188   14.4985  -22.9929 C.3     1  UNL1        0.1429
     18 N          50.5236   13.6429  -23.8789 N.ar    1  UNL1       -0.3243
     19 C          49.1713   13.5330  -23.9190 C.ar    1  UNL1        0.0600
     20 C          48.2284   14.2296  -23.1565 C.ar    1  UNL1        0.0177
     21 C          46.8669   13.9427  -23.3627 C.ar    1  UNL1        0.0082
     22 C          46.4711   12.9733  -24.3116 C.ar    1  UNL1        0.0347
     23 BR         44.6168   12.5991  -24.5705 Br      1  UNL1       -0.0490
     24 C          47.4352   12.2777  -25.0634 C.ar    1  UNL1        0.0082
     25 C          48.7764   12.5836  -24.8407 C.ar    1  UNL1        0.0177
     26 C          49.9303   12.0720  -25.3892 C.ar    1  UNL1        0.0177
     27 C          50.1345   11.0808  -26.3471 C.ar    1  UNL1        0.0082
     28 C          51.4613   10.7599  -26.6853 C.ar    1  UNL1        0.0347
     29 BR         51.8066    9.4101  -27.9909 Br      1  UNL1       -0.0490
     30 C          52.5396   11.4263  -26.0612 C.ar    1  UNL1        0.0082
     31 C          52.3050   12.4216  -25.0952 C.ar    1  UNL1        0.0177
     32 C          50.9784   12.7320  -24.7775 C.ar    1  UNL1        0.0600
@<TRIPOS>BOND
     1    15    16    1
     2    16     6    1
     3     6     7   ar
     4     7     8   ar
     5     8    12    1
     6    12    13    1
     7     8     9   ar
     8     9    10   ar
     9    10     4    1
    10     4     3    1
    11     3     1    1
    12     1     2    1
    13     1    17    1
    14    17    18    1
    15    18    19   ar
    16    19    20   ar
    17    20    21   ar
    18    21    22   ar
    19    22    23    1
    20    22    24   ar
    21    24    25   ar
    22    25    26   ar
    23    26    27   ar
    24    27    28   ar
    25    28    29    1
    26    28    30   ar
    27    30    31   ar
    28    31    32   ar
    29    10    11   ar
    30    11     6   ar
    31    32    18   ar
    32    25    19   ar
    33    32    26   ar
    34    13    14    1
    35     4     5    1
@<TRIPOS>MOLECULE
*****
 32 35 0 0 0
SMALL
GASTEIGER

@<TRIPOS>ATOM
      1 C          45.3572   12.3979  -25.0056 C.3     1  UNL1        0.2027
      2 F          44.0627   12.0429  -25.3471 F       1  UNL1       -0.2334
      3 C          46.3181   11.9894  -26.1313 C.3     1  UNL1        0.1259
      4 N          46.0752   12.7644  -27.3514 N.pl3   1  UNL1       -0.3157
      5 H          45.8689   13.7815  -27.2264 H       1  UNL1        0.1483
      6 C          46.8712   10.4894  -30.1339 C.ar    1  UNL1        0.2258
      7 C          46.5152   11.2276  -31.2633 C.ar    1  UNL1        0.0559
      8 C          46.0157   12.5265  -31.1107 C.ar    1  UNL1        0.0144
      9 C          45.8578   13.0566  -29.8226 C.ar    1  UNL1        0.0325
     10 C          46.2177   12.2847  -28.7016 C.ar    1  UNL1        0.1314
     11 N          46.7160   11.0329  -28.8952 N.ar    1  UNL1       -0.1970
     12 C          45.5885   13.3223  -32.3134 C.3     1  UNL1        0.1638
     13 O          46.1678   14.5974  -32.2767 O.3     1  UNL1       -0.3772
     14 H          45.6644   15.1179  -31.5972 H       1  UNL1        0.2109
     15 C          48.4474    8.6893  -29.4986 C.3     1  UNL1        0.2542
     16 O          47.3798    9.1967  -30.2903 O.3     1  UNL1       -0.4561
     17 C          45.4211   13.8975  -24.6911 C.3     1  UNL1        0.1429
     18 N          46.7692   14.2691  -24.2505 N.ar    1  UNL1       -0.3243
     19 C          47.3948   13.8874  -23.1079 C.ar    1  UNL1        0.0600
     20 C          46.9179   13.0306  -22.1109 C.ar    1  UNL1        0.0177
     21 C          47.7436   12.7833  -20.9992 C.ar    1  UNL1        0.0082
     22 C          49.0153   13.3908  -20.8976 C.ar    1  UNL1        0.0347
     23 BR         50.1160   13.0420  -19.3769 Br      1  UNL1       -0.0490
     24 C          49.4739   14.2558  -21.9076 C.ar    1  UNL1        0.0082
     25 C          48.6368   14.4811  -22.9986 C.ar    1  UNL1        0.0177
     26 C          48.7867   15.2747  -24.1129 C.ar    1  UNL1        0.0177
     27 C          49.8252   16.1126  -24.5144 C.ar    1  UNL1        0.0082
     28 C          49.6655   16.8240  -25.7170 C.ar    1  UNL1        0.0347
     29 BR         51.0530   17.9884  -26.3207 Br      1  UNL1       -0.0490
     30 C          48.4829   16.6863  -26.4777 C.ar    1  UNL1        0.0082
     31 C          47.4487   15.8352  -26.0477 C.ar    1  UNL1        0.0177
     32 C          47.6291   15.1304  -24.8528 C.ar    1  UNL1        0.0600
@<TRIPOS>BOND
     1    15    16    1
     2    16     6    1
     3     6     7   ar
     4     7     8   ar
     5     8    12    1
     6    12    13    1
     7     8     9   ar
     8     9    10   ar
     9    10     4    1
    10     4     3    1
    11     3     1    1
    12     1     2    1
    13     1    17    1
    14    17    18    1
    15    18    19   ar
    16    19    20   ar
    17    20    21   ar
    18    21    22   ar
    19    22    23    1
    20    22    24   ar
    21    24    25   ar
    22    25    26   ar
    23    26    27   ar
    24    27    28   ar
    25    28    29    1
    26    28    30   ar
    27    30    31   ar
    28    31    32   ar
    29    10    11   ar
    30    11     6   ar
    31    32    18   ar
    32    25    19   ar
    33    32    26   ar
    34    13    14    1
    35     4     5    1
@<TRIPOS>MOLECULE
*****
 32 35 0 0 0
SMALL
GASTEIGER

@<TRIPOS>ATOM
      1 C          47.4226   11.0959  -22.2723 C.3     1  UNL1        0.2027
      2 F          47.2002   10.0985  -21.3373 F       1  UNL1       -0.2334
      3 C          46.3102   12.1498  -22.1769 C.3     1  UNL1        0.1259
      4 N          45.5511   12.2432  -23.4273 N.pl3   1  UNL1       -0.3157
      5 H          44.5222   12.0696  -23.3642 H       1  UNL1        0.1483
      6 C          47.0264   12.0369  -26.7937 C.ar    1  UNL1        0.2258
      7 C          47.0651   13.3686  -27.2087 C.ar    1  UNL1        0.0559
      8 C          46.6114   14.3745  -26.3471 C.ar    1  UNL1        0.0144
      9 C          46.1016   14.0251  -25.0889 C.ar    1  UNL1        0.0325
     10 C          46.0674   12.6722  -24.7011 C.ar    1  UNL1        0.1314
     11 N          46.5348   11.7272  -25.5622 N.ar    1  UNL1       -0.1970
     12 C          46.6072   15.8112  -26.7922 C.3     1  UNL1        0.1638
     13 O          47.4968   15.9860  -27.8605 O.3     1  UNL1       -0.3772
     14 H          48.4108   15.9781  -27.4723 H       1  UNL1        0.2109
     15 C          46.8303   10.6971  -28.8660 C.3     1  UNL1        0.2542
     16 O          47.4903   11.0359  -27.6521 O.3     1  UNL1       -0.4561
     17 C          48.8205   11.6945  -22.0739 C.3     1  UNL1        0.1429
     18 N          49.3599   12.1651  -23.3534 N.ar    1  UNL1       -0.3243
     19 C          49.9009   11.4113  -24.3443 C.ar    1  UNL1        0.0600
     20 C          50.0363   10.0203  -24.3909 C.ar    1  UNL1        0.0177
     21 C          50.6429    9.4512  -25.5253 C.ar    1  UNL1        0.0082
     22 C          51.1041   10.2688  -26.5815 C.ar    1  UNL1        0.0347
     23 BR         51.9274    9.4727  -28.1092 Br      1  UNL1       -0.0490
     24 C          50.9655   11.6669  -26.5123 C.ar    1  UNL1        0.0082
     25 C          50.3588   12.2036  -25.3785 C.ar    1  UNL1        0.0177
     26 C          50.1038   13.5054  -25.0120 C.ar    1  UNL1        0.0177
     27 C          50.3690   14.7126  -25.6555 C.ar    1  UNL1        0.0082
     28 C          50.0014   15.9001  -24.9978 C.ar    1  UNL1        0.0347
     29 BR         50.3385   17.5864  -25.8278 Br      1  UNL1       -0.0490
     30 C          49.3896   15.8530  -23.7252 C.ar    1  UNL1        0.0082
     31 C          49.1356   14.6203  -23.0970 C.ar    1  UNL1        0.0177
     32 C          49.5016   13.4498  -23.7700 C.ar    1  UNL1        0.0600
@<TRIPOS>BOND
     1    15    16    1
     2    16     6    1
     3     6     7   ar
     4     7     8   ar
     5     8    12    1
     6    12    13    1
     7     8     9   ar
     8     9    10   ar
     9    10     4    1
    10     4     3    1
    11     3     1    1
    12     1     2    1
    13     1    17    1
    14    17    18    1
    15    18    19   ar
    16    19    20   ar
    17    20    21   ar
    18    21    22   ar
    19    22    23    1
    20    22    24   ar
    21    24    25   ar
    22    25    26   ar
    23    26    27   ar
    24    27    28   ar
    25    28    29    1
    26    28    30   ar
    27    30    31   ar
    28    31    32   ar
    29    10    11   ar
    30    11     6   ar
    31    32    18   ar
    32    25    19   ar
    33    32    26   ar
    34    13    14    1
    35     4     5    1
@<TRIPOS>MOLECULE
*****
 32 35 0 0 0
SMALL
GASTEIGER

@<TRIPOS>ATOM
      1 C          47.4578   11.0592  -22.3697 C.3     1  UNL1        0.2027
      2 F          47.2271    9.9888  -21.5215 F       1  UNL1       -0.2334
      3 C          46.3371   12.0961  -22.2084 C.3     1  UNL1        0.1259
      4 N          45.5558   12.2375  -23.4405 N.pl3   1  UNL1       -0.3157
      5 H          44.5225   12.1028  -23.3575 H       1  UNL1        0.1483
      6 C          47.0351   12.0320  -26.8052 C.ar    1  UNL1        0.2258
      7 C          47.0411   13.3598  -27.2343 C.ar    1  UNL1        0.0559
      8 C          46.5630   14.3633  -26.3831 C.ar    1  UNL1        0.0144
      9 C          46.0622   14.0148  -25.1211 C.ar    1  UNL1        0.0325
     10 C          46.0612   12.6656  -24.7191 C.ar    1  UNL1        0.1314
     11 N          46.5515   11.7234  -25.5703 N.ar    1  UNL1       -0.1970
     12 C          46.5236   15.7946  -26.8434 C.3     1  UNL1        0.1638
     13 O          47.4302   15.9869  -27.8941 O.3     1  UNL1       -0.3772
     14 H          48.3353   16.0116  -27.4865 H       1  UNL1        0.2109
     15 C          46.8711   10.6655  -28.8628 C.3     1  UNL1        0.2542
     16 O          47.5232   11.0336  -27.6533 O.3     1  UNL1       -0.4561
     17 C          48.8484   11.6474  -22.1009 C.3     1  UNL1        0.1429
     18 N          49.4561   12.1118  -23.3518 N.ar    1  UNL1       -0.3243
     19 C          49.5454   13.3911  -23.7967 C.ar    1  UNL1        0.0600
     20 C          49.1146   14.5570  -23.1558 C.ar    1  UNL1        0.0177
     21 C          49.3034   15.7846  -23.8162 C.ar    1  UNL1        0.0082
     22 C          49.9075   15.8298  -25.0929 C.ar    1  UNL1        0.0347
     23 BR         50.1494   17.5082  -25.9704 Br      1  UNL1       -0.0490
     24 C          50.3272   14.6450  -25.7243 C.ar    1  UNL1        0.0082
     25 C          50.1303   13.4435  -25.0465 C.ar    1  UNL1        0.0177
     26 C          50.4060   12.1425  -25.4005 C.ar    1  UNL1        0.0177
     27 C          50.9725   11.6014  -26.5529 C.ar    1  UNL1        0.0082
     28 C          51.1010   10.2028  -26.6253 C.ar    1  UNL1        0.0347
     29 BR         51.8694    9.4009  -28.1784 Br      1  UNL1       -0.0490
     30 C          50.6602    9.3879  -25.5586 C.ar    1  UNL1        0.0082
     31 C          50.0893    9.9604  -24.4075 C.ar    1  UNL1        0.0177
     32 C          49.9768   11.3536  -24.3508 C.ar    1  UNL1        0.0600
@<TRIPOS>BOND
     1    15    16    1
     2    16     6    1
     3     6     7   ar
     4     7     8   ar
     5     8    12    1
     6    12    13    1
     7     8     9   ar
     8     9    10   ar
     9    10     4    1
    10     4     3    1
    11     3     1    1
    12     1     2    1
    13     1    17    1
    14    17    18    1
    15    18    19   ar
    16    19    20   ar
    17    20    21   ar
    18    21    22   ar
    19    22    23    1
    20    22    24   ar
    21    24    25   ar
    22    25    26   ar
    23    26    27   ar
    24    27    28   ar
    25    28    29    1
    26    28    30   ar
    27    30    31   ar
    28    31    32   ar
    29    10    11   ar
    30    11     6   ar
    31    32    18   ar
    32    25    19   ar
    33    32    26   ar
    34    13    14    1
    35     4     5    1
@<TRIPOS>MOLECULE
*****
 32 35 0 0 0
SMALL
GASTEIGER

@<TRIPOS>ATOM
      1 C          46.6856   12.1982  -20.3161 C.3     1  UNL1        0.2027
      2 F          45.6520   12.3142  -19.4014 F       1  UNL1       -0.2334
      3 C          48.0255   12.1085  -19.5719 C.3     1  UNL1        0.1259
      4 N          48.8778   13.2656  -19.8604 N.pl3   1  UNL1       -0.3157
      5 H          49.1829   13.8380  -19.0406 H       1  UNL1        0.1483
      6 C          49.1809   14.8479  -23.1704 C.ar    1  UNL1        0.2258
      7 C          50.4082   14.3778  -23.6392 C.ar    1  UNL1        0.0559
      8 C          51.1555   13.4931  -22.8524 C.ar    1  UNL1        0.0144
      9 C          50.6698   13.1124  -21.5938 C.ar    1  UNL1        0.0325
     10 C          49.4319   13.6099  -21.1440 C.ar    1  UNL1        0.1314
     11 N          48.7289   14.4540  -21.9478 N.ar    1  UNL1       -0.1970
     12 C          52.4992   13.0077  -23.3227 C.3     1  UNL1        0.1638
     13 O          53.3914   12.9431  -22.2444 O.3     1  UNL1       -0.3772
     14 H          53.6598   13.8776  -22.0423 H       1  UNL1        0.2109
     15 C          47.3872   16.5329  -23.4380 C.3     1  UNL1        0.2542
     16 O          48.4321   15.7227  -23.9630 O.3     1  UNL1       -0.4561
     17 C          46.4383   10.9936  -21.2325 C.3     1  UNL1        0.1429
     18 N          47.1052   11.1897  -22.5234 N.ar    1  UNL1       -0.3243
     19 C          48.2861   10.6563  -22.9277 C.ar    1  UNL1        0.0600
     20 C          49.1169    9.7755  -22.2280 C.ar    1  UNL1        0.0177
     21 C          50.3094    9.3574  -22.8458 C.ar    1  UNL1        0.0082
     22 C          50.6537    9.8222  -24.1351 C.ar    1  UNL1        0.0347
     23 BR         52.2797    9.2429  -24.9510 Br      1  UNL1       -0.0490
     24 C          49.8082   10.7140  -24.8196 C.ar    1  UNL1        0.0082
     25 C          48.6322   11.1098  -24.1853 C.ar    1  UNL1        0.0177
     26 C          47.6321   11.9706  -24.5760 C.ar    1  UNL1        0.0177
     27 C          47.4684   12.7278  -25.7342 C.ar    1  UNL1        0.0082
     28 C          46.3280   13.5456  -25.8267 C.ar    1  UNL1        0.0347
     29 BR         46.0473   14.6073  -27.3887 Br      1  UNL1       -0.0490
     30 C          45.3922   13.5902  -24.7691 C.ar    1  UNL1        0.0082
     31 C          45.5834   12.8171  -23.6095 C.ar    1  UNL1        0.0177
     32 C          46.7199   12.0044  -23.5392 C.ar    1  UNL1        0.0600
@<TRIPOS>BOND
     1    15    16    1
     2    16     6    1
     3     6     7   ar
     4     7     8   ar
     5     8    12    1
     6    12    13    1
     7     8     9   ar
     8     9    10   ar
     9    10     4    1
    10     4     3    1
    11     3     1    1
    12     1     2    1
    13     1    17    1
    14    17    18    1
    15    18    19   ar
    16    19    20   ar
    17    20    21   ar
    18    21    22   ar
    19    22    23    1
    20    22    24   ar
    21    24    25   ar
    22    25    26   ar
    23    26    27   ar
    24    27    28   ar
    25    28    29    1
    26    28    30   ar
    27    30    31   ar
    28    31    32   ar
    29    10    11   ar
    30    11     6   ar
    31    32    18   ar
    32    25    19   ar
    33    32    26   ar
    34    13    14    1
    35     4     5    1
@<TRIPOS>MOLECULE
*****
 32 35 0 0 0
SMALL
GASTEIGER

@<TRIPOS>ATOM
      1 C          47.4744   17.0282  -26.1557 C.3     1  UNL1        0.2027
      2 F          47.8661   17.2153  -24.8404 F       1  UNL1       -0.2334
      3 C          48.6188   16.3793  -26.9474 C.3     1  UNL1        0.1259
      4 N          49.8141   16.2055  -26.1171 N.pl3   1  UNL1       -0.3157
      5 H          50.4074   17.0531  -25.9678 H       1  UNL1        0.1483
      6 C          50.5757   12.6627  -25.4685 C.ar    1  UNL1        0.2258
      7 C          50.8892   12.6461  -24.1088 C.ar    1  UNL1        0.0559
      8 C          50.8288   13.8344  -23.3711 C.ar    1  UNL1        0.0144
      9 C          50.4778   15.0283  -24.0163 C.ar    1  UNL1        0.0325
     10 C          50.1751   15.0155  -25.3912 C.ar    1  UNL1        0.1314
     11 N          50.2288   13.8354  -26.0674 N.ar    1  UNL1       -0.1970
     12 C          51.2025   13.8439  -21.9142 C.3     1  UNL1        0.1638
     13 O          51.2793   12.5317  -21.4291 O.3     1  UNL1       -0.3772
     14 H          50.3445   12.2162  -21.3163 H       1  UNL1        0.2109
     15 C          50.5048   10.1914  -25.5936 C.3     1  UNL1        0.2542
     16 O          50.6266   11.4726  -26.2000 O.3     1  UNL1       -0.4561
     17 C          46.1827   16.2030  -26.2030 C.3     1  UNL1        0.1429
     18 N          46.4890   14.7715  -26.1226 N.ar    1  UNL1       -0.3243
     19 C          46.4729   13.8694  -27.1368 C.ar    1  UNL1        0.0600
     20 C          46.1977   14.0992  -28.4885 C.ar    1  UNL1        0.0177
     21 C          46.2295   13.0012  -29.3672 C.ar    1  UNL1        0.0082
     22 C          46.5270   11.7051  -28.8894 C.ar    1  UNL1        0.0347
     23 BR         46.5605   10.2302  -30.1015 Br      1  UNL1       -0.0490
     24 C          46.7937   11.4932  -27.5246 C.ar    1  UNL1        0.0082
     25 C          46.7579   12.5988  -26.6771 C.ar    1  UNL1        0.0177
     26 C          46.9477   12.7114  -25.3187 C.ar    1  UNL1        0.0177
     27 C          47.2378   11.7562  -24.3465 C.ar    1  UNL1        0.0082
     28 C          47.3484   12.1906  -23.0135 C.ar    1  UNL1        0.0347
     29 BR         47.7442   10.9295  -21.6356 Br      1  UNL1       -0.0490
     30 C          47.1631   13.5528  -22.6875 C.ar    1  UNL1        0.0082
     31 C          46.8684   14.4959  -23.6887 C.ar    1  UNL1        0.0177
     32 C          46.7697   14.0460  -25.0096 C.ar    1  UNL1        0.0600
@<TRIPOS>BOND
     1    15    16    1
     2    16     6    1
     3     6     7   ar
     4     7     8   ar
     5     8    12    1
     6    12    13    1
     7     8     9   ar
     8     9    10   ar
     9    10     4    1
    10     4     3    1
    11     3     1    1
    12     1     2    1
    13     1    17    1
    14    17    18    1
    15    18    19   ar
    16    19    20   ar
    17    20    21   ar
    18    21    22   ar
    19    22    23    1
    20    22    24   ar
    21    24    25   ar
    22    25    26   ar
    23    26    27   ar
    24    27    28   ar
    25    28    29    1
    26    28    30   ar
    27    30    31   ar
    28    31    32   ar
    29    10    11   ar
    30    11     6   ar
    31    32    18   ar
    32    25    19   ar
    33    32    26   ar
    34    13    14    1
    35     4     5    1
