@<TRIPOS>MOLECULE
*****
 52 57 0 0 0
SMALL
GASTEIGER

@<TRIPOS>ATOM
      1 N         -29.4864   49.8279  -12.0648 N.am    1  UNL1       -0.2945
      2 C         -29.0543   51.0884  -11.5274 C.2     1  UNL1        0.2483
      3 O         -29.8865   52.0244  -11.3757 O.2     1  UNL1       -0.2701
      4 H         -28.8819   48.9912  -11.9035 H       1  UNL1        0.1501
      5 C         -27.6474   51.2954  -11.1140 C.ar    1  UNL1        0.0808
      6 C         -26.6116   51.0509  -12.0315 C.ar    1  UNL1        0.0080
      7 C         -25.2773   51.2437  -11.6651 C.ar    1  UNL1        0.0148
      8 C         -24.9508   51.6743  -10.3712 C.ar    1  UNL1        0.0502
      9 C         -25.9819   51.9062   -9.4471 C.ar    1  UNL1        0.0443
     10 C         -27.3190   51.7147   -9.8095 C.ar    1  UNL1        0.1457
     11 F         -28.2802   51.8918   -8.8680 F       1  UNL1       -0.2040
     12 N         -23.5735   51.8743  -10.0010 N.pl3   1  UNL1       -0.3040
     13 C         -23.2016   51.9802   -8.5850 C.3     1  UNL1        0.1122
     14 C         -21.8748   51.2640   -8.3414 C.3     1  UNL1        0.1122
     15 N         -20.8834   51.6978   -9.3330 N.pl3   1  UNL1       -0.3041
     16 C         -21.2468   51.6040  -10.7522 C.3     1  UNL1        0.1122
     17 C         -22.5875   52.2991  -11.0020 C.3     1  UNL1        0.1122
     18 C         -19.5117   51.8945   -8.9407 C.ar    1  UNL1        0.0479
     19 C         -18.4736   51.3472   -9.7097 C.ar    1  UNL1        0.0145
     20 C         -17.1402   51.5300   -9.3328 C.ar    1  UNL1        0.0051
     21 C         -16.8194   52.2797   -8.1883 C.ar    1  UNL1        0.0715
     22 C         -17.8610   52.8026   -7.4029 C.ar    1  UNL1        0.0051
     23 C         -19.1943   52.6186   -7.7800 C.ar    1  UNL1        0.0145
     24 C         -15.3836   52.4349   -7.7544 C.3     1  UNL1        0.4186
     25 F         -14.5750   52.5044   -8.8734 F       1  UNL1       -0.1659
     26 F         -14.9884   51.3589   -6.9785 F       1  UNL1       -0.1659
     27 F         -15.2206   53.5890   -7.0077 F       1  UNL1       -0.1659
     28 C         -30.8395   49.6251  -12.5894 C.3     1  UNL1        0.1535
     29 C         -30.7776   49.2131  -14.0405 C.2     1  UNL1        0.2443
     30 O         -31.3003   49.9637  -14.9088 O.2     1  UNL1       -0.2730
     31 N         -30.2026   47.9512  -14.4227 N.am    1  UNL1       -0.2825
     32 H         -29.9707   47.2664  -13.6687 H       1  UNL1        0.1549
     33 C         -30.1038   47.4990  -15.7828 C.ar    1  UNL1        0.0535
     34 C         -29.6309   48.3404  -16.8033 C.ar    1  UNL1        0.0353
     35 C         -29.5364   47.8525  -18.1090 C.ar    1  UNL1        0.1002
     36 N         -29.8874   46.5686  -18.3852 N.ar    1  UNL1       -0.2422
     37 C         -30.3307   45.7273  -17.4141 C.ar    1  UNL1        0.1002
     38 C         -30.4379   46.1742  -16.0951 C.ar    1  UNL1        0.0353
     39 C         -31.5830   48.5834  -11.7329 C.3     1  UNL1        0.0565
     40 C         -29.8507   47.2301  -10.3252 C.ar    1  UNL1        0.0292
     41 N         -29.3005   47.2961   -9.0879 N.ar    1  UNL1       -0.3567
     42 C         -29.8926   48.3320   -8.4713 C.ar    1  UNL1        0.0561
     43 C         -29.6310   48.8078   -7.1870 C.ar    1  UNL1        0.0169
     44 C         -30.3495   49.9322   -6.7424 C.ar    1  UNL1        0.0015
     45 C         -31.3027   50.5490   -7.5817 C.ar    1  UNL1        0.0001
     46 C         -31.5465   50.0465   -8.8721 C.ar    1  UNL1        0.0012
     47 C         -30.8176   48.9305   -9.2883 C.ar    1  UNL1        0.0127
     48 C         -30.8129   48.2352  -10.4852 C.ar    1  UNL1       -0.0072
     49 H         -28.5512   46.6828   -8.6966 H       1  UNL1        0.1656
     50 C         -30.6529   45.5665  -12.0084 C.3     1  UNL1        0.0062
     51 C         -29.4266   46.2234  -11.3686 C.3     1  UNL1        0.0378
     52 C         -28.5011   45.1715  -10.7504 C.3     1  UNL1        0.0062
@<TRIPOS>BOND
     1    50    51    1
     2    51    52    1
     3    51    40    1
     4    40    41   ar
     5    41    42   ar
     6    42    43   ar
     7    43    44   ar
     8    44    45   ar
     9    45    46   ar
    10    46    47   ar
    11    47    48   ar
    12    48    39    1
    13    39    28    1
    14    28     1    1
    15     1     2   am
    16     2     3    2
    17     2     5    1
    18     5     6   ar
    19     6     7   ar
    20     7     8   ar
    21     8    12    1
    22    12    13    1
    23    13    14    1
    24    14    15    1
    25    15    18    1
    26    18    19   ar
    27    19    20   ar
    28    20    21   ar
    29    21    24    1
    30    24    25    1
    31    24    26    1
    32    24    27    1
    33    21    22   ar
    34    22    23   ar
    35    15    16    1
    36    16    17    1
    37     8     9   ar
    38     9    10   ar
    39    10    11    1
    40    28    29    1
    41    29    30    2
    42    29    31   am
    43    31    33    1
    44    33    34   ar
    45    34    35   ar
    46    35    36   ar
    47    36    37   ar
    48    37    38   ar
    49    48    40   ar
    50    10     5   ar
    51    38    33   ar
    52    47    42   ar
    53    17    12    1
    54    23    18   ar
    55    41    49    1
    56     1     4    1
    57    31    32    1
@<TRIPOS>MOLECULE
*****
 52 57 0 0 0
SMALL
GASTEIGER

@<TRIPOS>ATOM
      1 N         -21.9736   53.1264   -9.8550 N.am    1  UNL1       -0.2945
      2 C         -23.1808   52.4428  -10.2288 C.2     1  UNL1        0.2483
      3 O         -23.4986   52.3504  -11.4463 O.2     1  UNL1       -0.2701
      4 H         -21.5738   52.9368   -8.9086 H       1  UNL1        0.1501
      5 C         -24.0441   51.8113   -9.2046 C.ar    1  UNL1        0.0808
      6 C         -23.5099   50.8226   -8.3609 C.ar    1  UNL1        0.0080
      7 C         -24.3042   50.2164   -7.3846 C.ar    1  UNL1        0.0148
      8 C         -25.6511   50.5781   -7.2388 C.ar    1  UNL1        0.0502
      9 C         -26.1925   51.5553   -8.0890 C.ar    1  UNL1        0.0443
     10 C         -25.4011   52.1650   -9.0677 C.ar    1  UNL1        0.1457
     11 F         -25.9795   53.0603   -9.9077 F       1  UNL1       -0.2040
     12 N         -26.4635   49.9517   -6.2282 N.pl3   1  UNL1       -0.3040
     13 C         -27.2410   48.7495   -6.5519 C.3     1  UNL1        0.1122
     14 C         -27.2102   47.7780   -5.3737 C.3     1  UNL1        0.1122
     15 N         -27.5488   48.4860   -4.1333 N.pl3   1  UNL1       -0.3041
     16 C         -26.7833   49.6943   -3.8029 C.3     1  UNL1        0.1122
     17 C         -26.7888   50.6644   -4.9868 C.3     1  UNL1        0.1122
     18 C         -28.3651   47.8419   -3.1369 C.ar    1  UNL1        0.0479
     19 C         -28.6591   48.5009   -1.9337 C.ar    1  UNL1        0.0145
     20 C         -29.4467   47.8804   -0.9600 C.ar    1  UNL1        0.0051
     21 C         -29.9704   46.5949   -1.1797 C.ar    1  UNL1        0.0715
     22 C         -29.6511   45.9245   -2.3728 C.ar    1  UNL1        0.0051
     23 C         -28.8625   46.5454   -3.3457 C.ar    1  UNL1        0.0145
     24 C         -30.7787   45.9061   -0.1091 C.3     1  UNL1        0.4186
     25 F         -31.5829   44.9456   -0.6933 F       1  UNL1       -0.1659
     26 F         -31.5774   46.8160    0.5618 F       1  UNL1       -0.1659
     27 F         -29.9474   45.2970    0.8151 F       1  UNL1       -0.1659
     28 C         -21.1580   53.8592  -10.8272 C.3     1  UNL1        0.1535
     29 C         -20.5023   55.0468  -10.1646 C.2     1  UNL1        0.2443
     30 O         -20.1770   56.0368  -10.8749 O.2     1  UNL1       -0.2730
     31 N         -20.1819   55.0223   -8.7626 N.am    1  UNL1       -0.2825
     32 H         -20.2722   54.1156   -8.2517 H       1  UNL1        0.1549
     33 C         -19.5657   56.1175   -8.0660 C.ar    1  UNL1        0.0535
     34 C         -18.6822   55.9022   -6.9955 C.ar    1  UNL1        0.0353
     35 C         -18.0936   56.9972   -6.3580 C.ar    1  UNL1        0.1002
     36 N         -18.3648   58.2603   -6.7809 N.ar    1  UNL1       -0.2422
     37 C         -19.2015   58.4968   -7.8257 C.ar    1  UNL1        0.1002
     38 C         -19.8090   57.4303   -8.4923 C.ar    1  UNL1        0.0353
     39 C         -20.1191   52.9137  -11.4583 C.3     1  UNL1        0.0565
     40 C         -17.8060   52.0513  -10.6100 C.ar    1  UNL1        0.0292
     41 N         -17.2429   51.7045   -9.4265 N.ar    1  UNL1       -0.3567
     42 C         -18.2131   51.8175   -8.5046 C.ar    1  UNL1        0.0561
     43 C         -18.1004   51.5940   -7.1329 C.ar    1  UNL1        0.0169
     44 C         -19.2412   51.7995   -6.3365 C.ar    1  UNL1        0.0015
     45 C         -20.4556   52.2191   -6.9220 C.ar    1  UNL1        0.0001
     46 C         -20.5401   52.4357   -8.3087 C.ar    1  UNL1        0.0012
     47 C         -19.3917   52.2260   -9.0750 C.ar    1  UNL1        0.0127
     48 C         -19.1562   52.3775  -10.4306 C.ar    1  UNL1       -0.0072
     49 H         -16.2504   51.4274   -9.2566 H       1  UNL1        0.1656
     50 C         -17.8014   51.3676  -13.0135 C.3     1  UNL1        0.0062
     51 C         -17.0378   52.1046  -11.9096 C.3     1  UNL1        0.0378
     52 C         -15.6361   51.5160  -11.7258 C.3     1  UNL1        0.0062
@<TRIPOS>BOND
     1    50    51    1
     2    51    52    1
     3    51    40    1
     4    40    41   ar
     5    41    42   ar
     6    42    43   ar
     7    43    44   ar
     8    44    45   ar
     9    45    46   ar
    10    46    47   ar
    11    47    48   ar
    12    48    39    1
    13    39    28    1
    14    28     1    1
    15     1     2   am
    16     2     3    2
    17     2     5    1
    18     5     6   ar
    19     6     7   ar
    20     7     8   ar
    21     8    12    1
    22    12    13    1
    23    13    14    1
    24    14    15    1
    25    15    18    1
    26    18    19   ar
    27    19    20   ar
    28    20    21   ar
    29    21    24    1
    30    24    25    1
    31    24    26    1
    32    24    27    1
    33    21    22   ar
    34    22    23   ar
    35    15    16    1
    36    16    17    1
    37     8     9   ar
    38     9    10   ar
    39    10    11    1
    40    28    29    1
    41    29    30    2
    42    29    31   am
    43    31    33    1
    44    33    34   ar
    45    34    35   ar
    46    35    36   ar
    47    36    37   ar
    48    37    38   ar
    49    48    40   ar
    50    10     5   ar
    51    38    33   ar
    52    47    42   ar
    53    17    12    1
    54    23    18   ar
    55    41    49    1
    56     1     4    1
    57    31    32    1
