@<TRIPOS>MOLECULE
*****
 47 52 0 0 0
SMALL
GASTEIGER

@<TRIPOS>ATOM
      1 C           6.5833   76.0542   20.4983 C.ar    1  UNL1        0.1318
      2 C           7.6456   75.3749   21.1149 C.ar    1  UNL1        0.0356
      3 C           8.7030   76.1023   21.6634 C.ar    1  UNL1        0.0191
      4 C           8.7044   77.5045   21.5947 C.ar    1  UNL1        0.0702
      5 C           7.6061   78.1450   21.0071 C.ar    1  UNL1        0.1149
      6 N           6.5878   77.4161   20.4788 N.ar    1  UNL1       -0.2279
      7 C           2.7312   74.7388   20.0778 C.3     1  UNL1        0.0472
      8 C           3.2963   75.2502   18.7321 C.3     1  UNL1        0.0252
      9 C           4.6301   75.9909   18.9244 C.3     1  UNL1        0.0923
     10 N           5.4635   75.3386   19.9441 N.pl3   1  UNL1       -0.2932
     11 C           5.1842   73.9423   20.3055 C.3     1  UNL1        0.0923
     12 C           3.7344   73.7905   20.7955 C.3     1  UNL1        0.0252
     13 C           2.3108   75.8986   21.0021 C.3     1  UNL1        0.2054
     14 O           3.4626   76.5197   21.5692 O.3     1  UNL1       -0.4755
     15 C           4.2802   76.8459   25.7013 C.ar    1  UNL1        0.0137
     16 C           2.9765   77.0598   25.2228 C.ar    1  UNL1        0.0015
     17 C           2.6874   76.9538   23.8625 C.ar    1  UNL1        0.0367
     18 C           3.7029   76.6407   22.9456 C.ar    1  UNL1        0.1387
     19 C           5.0067   76.4457   23.4098 C.ar    1  UNL1        0.0431
     20 C           5.3182   76.5540   24.7769 C.ar    1  UNL1        0.0769
     21 C           6.7299   76.3734   25.1957 C.2     1  UNL1        0.3379
     22 O           7.1776   75.2231   25.4441 O.2     1  UNL1       -0.2451
     23 O           7.5762   77.4698   25.3492 O.3     1  UNL1       -0.4771
     24 H           7.2812   78.4093   25.1124 H       1  UNL1        0.2954
     25 C           4.5259   76.9512   27.1862 C.3     1  UNL1        0.1689
     26 C           5.3918   75.6322   28.8638 C.3     1  UNL1        0.1746
     27 O           4.5369   75.6540   27.7429 O.3     1  UNL1       -0.3463
     28 N           9.7615   78.2901   22.1720 N.am    1  UNL1       -0.2766
     29 C          10.3097   78.0624   23.4805 C.2     1  UNL1        0.2839
     30 O          10.0611   76.9905   24.0952 O.2     1  UNL1       -0.2665
     31 H          10.2127   79.0164   21.5709 H       1  UNL1        0.1553
     32 C          11.1992   79.0708   24.0876 C.ar    1  UNL1        0.1946
     33 O          12.4900   78.8654   24.2813 O.2     1  UNL1       -0.4492
     34 C          12.9915   79.9445   24.8306 C.ar    1  UNL1        0.1452
     35 C          14.3127   80.1653   25.2037 C.ar    1  UNL1        0.0375
     36 C          14.6375   81.4060   25.7790 C.ar    1  UNL1        0.0031
     37 C          13.6428   82.4023   25.9723 C.ar    1  UNL1        0.0002
     38 C          12.3090   82.1367   25.5789 C.ar    1  UNL1        0.0028
     39 C          12.0221   80.8943   25.0112 C.ar    1  UNL1        0.0337
     40 C          10.8455   80.3491   24.5339 C.ar    1  UNL1        0.0202
     41 C           9.4897   80.9880   24.5015 C.3     1  UNL1        0.0345
     42 C          13.9979   83.7095   26.5809 C.ar    1  UNL1        0.0000
     43 C          14.2223   83.8166   27.9666 C.ar    1  UNL1        0.0000
     44 C          14.5575   85.0486   28.5367 C.ar    1  UNL1        0.0000
     45 C          14.6716   86.1851   27.7331 C.ar    1  UNL1        0.0000
     46 C          14.4511   86.0921   26.3572 C.ar    1  UNL1        0.0000
     47 C          14.1166   84.8625   25.7816 C.ar    1  UNL1        0.0000
@<TRIPOS>BOND
     1    26    27    1
     2    27    25    1
     3    25    15    1
     4    15    16   ar
     5    16    17   ar
     6    17    18   ar
     7    18    14    1
     8    14    13    1
     9    13     7    1
    10     7     8    1
    11     8     9    1
    12     9    10    1
    13    10     1    1
    14     1     2   ar
    15     2     3   ar
    16     3     4   ar
    17     4    28    1
    18    28    29   am
    19    29    30    2
    20    29    32    1
    21    32    33   ar
    22    33    34   ar
    23    34    35   ar
    24    35    36   ar
    25    36    37   ar
    26    37    42    1
    27    42    43   ar
    28    43    44   ar
    29    44    45   ar
    30    45    46   ar
    31    46    47   ar
    32    37    38   ar
    33    38    39   ar
    34    39    40   ar
    35    40    41    1
    36     4     5   ar
    37     5     6   ar
    38    10    11    1
    39    11    12    1
    40    18    19   ar
    41    19    20   ar
    42    20    21    1
    43    21    22    2
    44    21    23    1
    45    20    15   ar
    46    12     7    1
    47     6     1   ar
    48    40    32   ar
    49    39    34   ar
    50    47    42   ar
    51    28    31    1
    52    23    24    1
@<TRIPOS>MOLECULE
*****
 47 52 0 0 0
SMALL
GASTEIGER

@<TRIPOS>ATOM
      1 C           7.0197   77.3426   29.4320 C.ar    1  UNL1        0.1318
      2 C           8.3562   77.5365   29.8147 C.ar    1  UNL1        0.0356
      3 C           9.1358   78.4789   29.1424 C.ar    1  UNL1        0.0191
      4 C           8.5864   79.2248   28.0876 C.ar    1  UNL1        0.0702
      5 C           7.2377   79.0298   27.7640 C.ar    1  UNL1        0.1149
      6 N           6.4978   78.1059   28.4320 N.ar    1  UNL1       -0.2279
      7 C           4.5185   74.1473   29.9611 C.3     1  UNL1        0.0472
      8 C           5.6809   74.1210   30.9809 C.3     1  UNL1        0.0252
      9 C           6.7669   75.1505   30.6265 C.3     1  UNL1        0.0923
     10 N           6.1780   76.3977   30.1190 N.pl3   1  UNL1       -0.2932
     11 C           4.7661   76.6863   30.4041 C.3     1  UNL1        0.0923
     12 C           3.8661   75.5571   29.8746 C.3     1  UNL1        0.0252
     13 C           4.9650   73.6596   28.5687 C.3     1  UNL1        0.2054
     14 O           4.5542   74.5870   27.5661 O.3     1  UNL1       -0.4755
     15 C           7.2728   76.6515   25.0769 C.ar    1  UNL1        0.0137
     16 C           5.8891   76.8177   24.8979 C.ar    1  UNL1        0.0015
     17 C           4.9768   76.1464   25.7118 C.ar    1  UNL1        0.0367
     18 C           5.4308   75.2820   26.7201 C.ar    1  UNL1        0.1387
     19 C           6.8050   75.0951   26.8928 C.ar    1  UNL1        0.0431
     20 C           7.7396   75.7590   26.0782 C.ar    1  UNL1        0.0769
     21 C           9.1819   75.4842   26.2903 C.2     1  UNL1        0.3379
     22 O           9.6819   75.5640   27.4432 O.2     1  UNL1       -0.2451
     23 O          10.0137   75.1618   25.2198 O.3     1  UNL1       -0.4771
     24 H           9.6521   75.0338   24.2825 H       1  UNL1        0.2954
     25 C           8.2101   77.4230   24.1809 C.3     1  UNL1        0.1689
     26 C           9.5813   77.2707   22.3369 C.3     1  UNL1        0.1746
     27 O           8.6964   76.5611   23.1742 O.3     1  UNL1       -0.3463
     28 N           9.3488   80.2240   27.3888 N.am    1  UNL1       -0.2766
     29 C          10.4625   79.9305   26.5297 C.2     1  UNL1        0.2839
     30 O          10.6708   78.7495   26.1417 O.2     1  UNL1       -0.2665
     31 H           9.0207   81.2148   27.4451 H       1  UNL1        0.1553
     32 C          11.3400   81.0232   26.0689 C.ar    1  UNL1        0.1946
     33 O          12.0592   81.7627   26.8945 O.2     1  UNL1       -0.4492
     34 C          12.7251   82.6349   26.1779 C.ar    1  UNL1        0.1452
     35 C          13.6056   83.6080   26.6373 C.ar    1  UNL1        0.0375
     36 C          14.2186   84.4444   25.6884 C.ar    1  UNL1        0.0031
     37 C          13.9441   84.2972   24.3019 C.ar    1  UNL1        0.0002
     38 C          13.0406   83.2938   23.8762 C.ar    1  UNL1        0.0028
     39 C          12.4501   82.4814   24.8455 C.ar    1  UNL1        0.0337
     40 C          11.5508   81.4367   24.7486 C.ar    1  UNL1        0.0202
     41 C          10.9376   80.8716   23.5028 C.3     1  UNL1        0.0345
     42 C          14.5980   85.1865   23.3086 C.ar    1  UNL1        0.0000
     43 C          15.2788   86.3463   23.7251 C.ar    1  UNL1        0.0000
     44 C          15.8944   87.1814   22.7875 C.ar    1  UNL1        0.0000
     45 C          15.8372   86.8703   21.4273 C.ar    1  UNL1        0.0000
     46 C          15.1646   85.7229   21.0013 C.ar    1  UNL1        0.0000
     47 C          14.5480   84.8837   21.9344 C.ar    1  UNL1        0.0000
@<TRIPOS>BOND
     1    26    27    1
     2    27    25    1
     3    25    15    1
     4    15    16   ar
     5    16    17   ar
     6    17    18   ar
     7    18    14    1
     8    14    13    1
     9    13     7    1
    10     7     8    1
    11     8     9    1
    12     9    10    1
    13    10     1    1
    14     1     2   ar
    15     2     3   ar
    16     3     4   ar
    17     4    28    1
    18    28    29   am
    19    29    30    2
    20    29    32    1
    21    32    33   ar
    22    33    34   ar
    23    34    35   ar
    24    35    36   ar
    25    36    37   ar
    26    37    42    1
    27    42    43   ar
    28    43    44   ar
    29    44    45   ar
    30    45    46   ar
    31    46    47   ar
    32    37    38   ar
    33    38    39   ar
    34    39    40   ar
    35    40    41    1
    36     4     5   ar
    37     5     6   ar
    38    10    11    1
    39    11    12    1
    40    18    19   ar
    41    19    20   ar
    42    20    21    1
    43    21    22    2
    44    21    23    1
    45    20    15   ar
    46    12     7    1
    47     6     1   ar
    48    40    32   ar
    49    39    34   ar
    50    47    42   ar
    51    28    31    1
    52    23    24    1
@<TRIPOS>MOLECULE
*****
 47 52 0 0 0
SMALL
GASTEIGER

@<TRIPOS>ATOM
      1 C          12.4487   76.8760   23.8184 C.ar    1  UNL1        0.1318
      2 C          11.5914   76.1821   24.6866 C.ar    1  UNL1        0.0356
      3 C          10.3358   75.7734   24.2344 C.ar    1  UNL1        0.0191
      4 C           9.9328   76.0585   22.9203 C.ar    1  UNL1        0.0702
      5 C          10.8338   76.7170   22.0739 C.ar    1  UNL1        0.1149
      6 N          12.0512   77.1063   22.5362 N.ar    1  UNL1       -0.2279
      7 C          15.4557   79.3878   24.9991 C.3     1  UNL1        0.0472
      8 C          15.3435   78.1687   25.9442 C.3     1  UNL1        0.0252
      9 C          14.0600   77.3644   25.6788 C.3     1  UNL1        0.0923
     10 N          13.7608   77.2910   24.2419 N.pl3   1  UNL1       -0.2932
     11 C          14.8353   77.5575   23.2762 C.3     1  UNL1        0.0923
     12 C          15.4325   78.9562   23.5045 C.3     1  UNL1        0.0252
     13 C          14.3662   80.4397   25.2866 C.3     1  UNL1        0.2054
     14 O          13.2850   80.2936   24.3681 O.3     1  UNL1       -0.4755
     15 C           9.4183   79.0461   25.5263 C.ar    1  UNL1        0.0137
     16 C           9.6318   79.5758   24.2425 C.ar    1  UNL1        0.0015
     17 C          10.9018   79.9903   23.8418 C.ar    1  UNL1        0.0367
     18 C          11.9889   79.8935   24.7244 C.ar    1  UNL1        0.1387
     19 C          11.7824   79.3863   26.0102 C.ar    1  UNL1        0.0431
     20 C          10.5080   78.9687   26.4338 C.ar    1  UNL1        0.0769
     21 C          10.3524   78.4773   27.8249 C.2     1  UNL1        0.3379
     22 O           9.7101   79.1539   28.6705 O.2     1  UNL1       -0.2451
     23 O          10.9349   77.2775   28.2291 O.3     1  UNL1       -0.4771
     24 H          11.4165   76.6713   27.5762 H       1  UNL1        0.2954
     25 C           8.0268   78.5927   25.8932 C.3     1  UNL1        0.1689
     26 C           6.7478   76.6914   25.6629 C.3     1  UNL1        0.1746
     27 O           7.6255   77.5745   25.0016 O.3     1  UNL1       -0.3463
     28 N           8.6588   75.6303   22.4088 N.am    1  UNL1       -0.2766
     29 C           7.8731   76.3861   21.4728 C.2     1  UNL1        0.2839
     30 O           8.3851   77.3562   20.8520 O.2     1  UNL1       -0.2665
     31 H           8.3248   74.6752   22.6708 H       1  UNL1        0.1553
     32 C           6.4744   75.9980   21.2092 C.ar    1  UNL1        0.1946
     33 O           5.4664   76.8486   21.2896 O.2     1  UNL1       -0.4492
     34 C           4.3667   76.1986   20.9967 C.ar    1  UNL1        0.1452
     35 C           3.0723   76.7051   20.9573 C.ar    1  UNL1        0.0375
     36 C           2.0300   75.8266   20.6144 C.ar    1  UNL1        0.0031
     37 C           2.2948   74.4623   20.3179 C.ar    1  UNL1        0.0002
     38 C           3.6272   73.9868   20.3702 C.ar    1  UNL1        0.0028
     39 C           4.6372   74.8866   20.7143 C.ar    1  UNL1        0.0337
     40 C           6.0041   74.7313   20.8449 C.ar    1  UNL1        0.0202
     41 C           6.8052   73.4808   20.6405 C.3     1  UNL1        0.0345
     42 C           1.1854   73.5437   19.9566 C.ar    1  UNL1        0.0000
     43 C           1.0500   72.2977   20.5979 C.ar    1  UNL1        0.0000
     44 C           0.0038   71.4352   20.2562 C.ar    1  UNL1        0.0000
     45 C          -0.9165   71.8045   19.2728 C.ar    1  UNL1        0.0000
     46 C          -0.7929   73.0376   18.6290 C.ar    1  UNL1        0.0000
     47 C           0.2507   73.9045   18.9672 C.ar    1  UNL1        0.0000
@<TRIPOS>BOND
     1    26    27    1
     2    27    25    1
     3    25    15    1
     4    15    16   ar
     5    16    17   ar
     6    17    18   ar
     7    18    14    1
     8    14    13    1
     9    13     7    1
    10     7     8    1
    11     8     9    1
    12     9    10    1
    13    10     1    1
    14     1     2   ar
    15     2     3   ar
    16     3     4   ar
    17     4    28    1
    18    28    29   am
    19    29    30    2
    20    29    32    1
    21    32    33   ar
    22    33    34   ar
    23    34    35   ar
    24    35    36   ar
    25    36    37   ar
    26    37    42    1
    27    42    43   ar
    28    43    44   ar
    29    44    45   ar
    30    45    46   ar
    31    46    47   ar
    32    37    38   ar
    33    38    39   ar
    34    39    40   ar
    35    40    41    1
    36     4     5   ar
    37     5     6   ar
    38    10    11    1
    39    11    12    1
    40    18    19   ar
    41    19    20   ar
    42    20    21    1
    43    21    22    2
    44    21    23    1
    45    20    15   ar
    46    12     7    1
    47     6     1   ar
    48    40    32   ar
    49    39    34   ar
    50    47    42   ar
    51    28    31    1
    52    23    24    1
@<TRIPOS>MOLECULE
*****
 47 52 0 0 0
SMALL
GASTEIGER

@<TRIPOS>ATOM
      1 C          10.5274   78.0676   24.7958 C.ar    1  UNL1        0.1318
      2 C           9.9915   76.8617   25.2739 C.ar    1  UNL1        0.0356
      3 C           8.7667   76.4084   24.7813 C.ar    1  UNL1        0.0191
      4 C           8.0746   77.1572   23.8163 C.ar    1  UNL1        0.0702
      5 C           8.6632   78.3339   23.3362 C.ar    1  UNL1        0.1149
      6 N           9.8565   78.7563   23.8310 N.ar    1  UNL1       -0.2279
      7 C          14.5866   78.5507   24.9826 C.3     1  UNL1        0.0472
      8 C          13.8608   79.9163   24.9980 C.3     1  UNL1        0.0252
      9 C          12.3685   79.7668   24.6581 C.3     1  UNL1        0.0923
     10 N          11.8001   78.5536   25.2620 N.pl3   1  UNL1       -0.2932
     11 C          12.5037   77.9204   26.3854 C.3     1  UNL1        0.0923
     12 C          13.9408   77.5490   25.9827 C.3     1  UNL1        0.0252
     13 C          14.6507   77.9503   23.5644 C.3     1  UNL1        0.2054
     14 O          14.3178   76.5640   23.6002 O.3     1  UNL1       -0.4755
     15 C          10.8257   74.8154   21.9886 C.ar    1  UNL1        0.0137
     16 C          11.0242   76.2034   21.8975 C.ar    1  UNL1        0.0015
     17 C          12.1721   76.7979   22.4214 C.ar    1  UNL1        0.0367
     18 C          13.1458   76.0145   23.0603 C.ar    1  UNL1        0.1387
     19 C          12.9478   74.6356   23.1733 C.ar    1  UNL1        0.0431
     20 C          11.7942   74.0195   22.6562 C.ar    1  UNL1        0.0769
     21 C          11.6297   72.5573   22.8459 C.2     1  UNL1        0.3379
     22 O          11.4264   72.0838   23.9947 O.2     1  UNL1       -0.2451
     23 O          11.7246   71.6809   21.7666 O.3     1  UNL1       -0.4771
     24 H          11.8348   72.0139   20.8166 H       1  UNL1        0.2954
     25 C           9.5755   74.2278   21.3819 C.3     1  UNL1        0.1689
     26 C           8.0085   72.9524   22.4870 C.3     1  UNL1        0.1746
     27 O           8.5439   74.2488   22.3453 O.3     1  UNL1       -0.3463
     28 N           6.8242   76.7101   23.2643 N.am    1  UNL1       -0.2766
     29 C           6.5235   76.6999   21.8593 C.2     1  UNL1        0.2839
     30 O           7.4450   76.8469   21.0120 O.2     1  UNL1       -0.2665
     31 H           6.1250   76.2911   23.9185 H       1  UNL1        0.1553
     32 C           5.1368   76.4758   21.4086 C.ar    1  UNL1        0.1946
     33 O           4.1724   77.3613   21.5868 O.2     1  UNL1       -0.4492
     34 C           3.0717   76.8663   21.0759 C.ar    1  UNL1        0.1452
     35 C           1.8154   77.4613   21.0415 C.ar    1  UNL1        0.0375
     36 C           0.7642   76.7495   20.4381 C.ar    1  UNL1        0.0031
     37 C           0.9825   75.4604   19.8811 C.ar    1  UNL1        0.0002
     38 C           2.2771   74.8903   19.9376 C.ar    1  UNL1        0.0028
     39 C           3.2971   75.6249   20.5442 C.ar    1  UNL1        0.0337
     40 C           4.6357   75.3487   20.7477 C.ar    1  UNL1        0.0202
     41 C           5.3847   74.1133   20.3473 C.3     1  UNL1        0.0345
     42 C          -0.1358   74.7181   19.2458 C.ar    1  UNL1        0.0000
     43 C           0.0565   73.4096   18.7630 C.ar    1  UNL1        0.0000
     44 C          -0.9986   72.7127   18.1662 C.ar    1  UNL1        0.0000
     45 C          -2.2541   73.3119   18.0436 C.ar    1  UNL1        0.0000
     46 C          -2.4576   74.6096   18.5182 C.ar    1  UNL1        0.0000
     47 C          -1.4064   75.3108   19.1168 C.ar    1  UNL1        0.0000
@<TRIPOS>BOND
     1    26    27    1
     2    27    25    1
     3    25    15    1
     4    15    16   ar
     5    16    17   ar
     6    17    18   ar
     7    18    14    1
     8    14    13    1
     9    13     7    1
    10     7     8    1
    11     8     9    1
    12     9    10    1
    13    10     1    1
    14     1     2   ar
    15     2     3   ar
    16     3     4   ar
    17     4    28    1
    18    28    29   am
    19    29    30    2
    20    29    32    1
    21    32    33   ar
    22    33    34   ar
    23    34    35   ar
    24    35    36   ar
    25    36    37   ar
    26    37    42    1
    27    42    43   ar
    28    43    44   ar
    29    44    45   ar
    30    45    46   ar
    31    46    47   ar
    32    37    38   ar
    33    38    39   ar
    34    39    40   ar
    35    40    41    1
    36     4     5   ar
    37     5     6   ar
    38    10    11    1
    39    11    12    1
    40    18    19   ar
    41    19    20   ar
    42    20    21    1
    43    21    22    2
    44    21    23    1
    45    20    15   ar
    46    12     7    1
    47     6     1   ar
    48    40    32   ar
    49    39    34   ar
    50    47    42   ar
    51    28    31    1
    52    23    24    1
@<TRIPOS>MOLECULE
*****
 47 52 0 0 0
SMALL
GASTEIGER

@<TRIPOS>ATOM
      1 C           7.2373   77.3902   29.5464 C.ar    1  UNL1        0.1318
      2 C           8.2094   78.1278   30.2399 C.ar    1  UNL1        0.0356
      3 C           8.9673   79.0813   29.5583 C.ar    1  UNL1        0.0191
      4 C           8.7600   79.2973   28.1867 C.ar    1  UNL1        0.0702
      5 C           7.7526   78.5692   27.5412 C.ar    1  UNL1        0.1149
      6 N           7.0273   77.6453   28.2251 N.ar    1  UNL1       -0.2279
      7 C           4.4271   74.4566   30.0393 C.3     1  UNL1        0.0472
      8 C           5.7584   74.0755   30.7279 C.3     1  UNL1        0.0252
      9 C           6.8954   75.0301   30.3271 C.3     1  UNL1        0.0923
     10 N           6.4192   76.4165   30.2217 N.pl3   1  UNL1       -0.2932
     11 C           5.1630   76.7904   30.8851 C.3     1  UNL1        0.0923
     12 C           4.0040   75.9143   30.3809 C.3     1  UNL1        0.0252
     13 C           4.4877   74.2428   28.5139 C.3     1  UNL1        0.2054
     14 O           4.6270   75.4949   27.8455 O.3     1  UNL1       -0.4755
     15 C           4.8287   75.9897   23.6546 C.ar    1  UNL1        0.0137
     16 C           5.8262   75.2631   24.3263 C.ar    1  UNL1        0.0015
     17 C           5.7748   75.0872   25.7090 C.ar    1  UNL1        0.0367
     18 C           4.7252   75.6461   26.4546 C.ar    1  UNL1        0.1387
     19 C           3.7390   76.3872   25.7979 C.ar    1  UNL1        0.0431
     20 C           3.7773   76.5798   24.4053 C.ar    1  UNL1        0.0769
     21 C           2.7200   77.4103   23.7783 C.2     1  UNL1        0.3379
     22 O           2.5609   78.6091   24.1291 O.2     1  UNL1       -0.2451
     23 O           1.8678   76.8753   22.8142 O.3     1  UNL1       -0.4771
     24 H           1.9867   75.9340   22.4598 H       1  UNL1        0.2954
     25 C           4.9263   76.1253   22.1551 C.3     1  UNL1        0.1689
     26 C           4.5410   74.2039   20.9455 C.3     1  UNL1        0.1746
     27 O           3.9336   75.3203   21.5556 O.3     1  UNL1       -0.3463
     28 N           9.5012   80.2893   27.4556 N.am    1  UNL1       -0.2766
     29 C          10.6121   79.9904   26.5949 C.2     1  UNL1        0.2839
     30 O          10.8354   78.8029   26.2359 O.2     1  UNL1       -0.2665
     31 H           9.1582   81.2761   27.4888 H       1  UNL1        0.1553
     32 C          11.4689   81.0838   26.0981 C.ar    1  UNL1        0.1946
     33 O          12.2047   81.8378   26.8955 O.2     1  UNL1       -0.4492
     34 C          12.8446   82.7063   26.1514 C.ar    1  UNL1        0.1452
     35 C          13.7301   83.6907   26.5758 C.ar    1  UNL1        0.0375
     36 C          14.3111   84.5205   25.6013 C.ar    1  UNL1        0.0031
     37 C          14.0002   84.3555   24.2244 C.ar    1  UNL1        0.0002
     38 C          13.0929   83.3411   23.8347 C.ar    1  UNL1        0.0028
     39 C          12.5348   82.5357   24.8287 C.ar    1  UNL1        0.0337
     40 C          11.6408   81.4837   24.7681 C.ar    1  UNL1        0.0202
     41 C          10.9983   80.9001   23.5458 C.3     1  UNL1        0.0345
     42 C          14.6205   85.2380   23.2038 C.ar    1  UNL1        0.0000
     43 C          14.5680   84.9001   21.8381 C.ar    1  UNL1        0.0000
     44 C          15.1522   85.7336   20.8793 C.ar    1  UNL1        0.0000
     45 C          15.7945   86.9102   21.2711 C.ar    1  UNL1        0.0000
     46 C          15.8537   87.2564   22.6228 C.ar    1  UNL1        0.0000
     47 C          15.2705   86.4272   23.5858 C.ar    1  UNL1        0.0000
@<TRIPOS>BOND
     1    26    27    1
     2    27    25    1
     3    25    15    1
     4    15    16   ar
     5    16    17   ar
     6    17    18   ar
     7    18    14    1
     8    14    13    1
     9    13     7    1
    10     7     8    1
    11     8     9    1
    12     9    10    1
    13    10     1    1
    14     1     2   ar
    15     2     3   ar
    16     3     4   ar
    17     4    28    1
    18    28    29   am
    19    29    30    2
    20    29    32    1
    21    32    33   ar
    22    33    34   ar
    23    34    35   ar
    24    35    36   ar
    25    36    37   ar
    26    37    42    1
    27    42    43   ar
    28    43    44   ar
    29    44    45   ar
    30    45    46   ar
    31    46    47   ar
    32    37    38   ar
    33    38    39   ar
    34    39    40   ar
    35    40    41    1
    36     4     5   ar
    37     5     6   ar
    38    10    11    1
    39    11    12    1
    40    18    19   ar
    41    19    20   ar
    42    20    21    1
    43    21    22    2
    44    21    23    1
    45    20    15   ar
    46    12     7    1
    47     6     1   ar
    48    40    32   ar
    49    39    34   ar
    50    47    42   ar
    51    28    31    1
    52    23    24    1
@<TRIPOS>MOLECULE
*****
 47 52 0 0 0
SMALL
GASTEIGER

@<TRIPOS>ATOM
      1 C           8.5977   77.5432   23.5962 C.ar    1  UNL1        0.1318
      2 C           8.8118   78.2926   22.4288 C.ar    1  UNL1        0.0356
      3 C           9.5626   79.4675   22.4921 C.ar    1  UNL1        0.0191
      4 C          10.0964   79.8977   23.7171 C.ar    1  UNL1        0.0702
      5 C           9.8938   79.1000   24.8503 C.ar    1  UNL1        0.1149
      6 N           9.1587   77.9599   24.7652 N.ar    1  UNL1       -0.2279
      7 C           6.6511   74.2291   25.0010 C.3     1  UNL1        0.0472
      8 C           5.7880   74.9859   23.9645 C.3     1  UNL1        0.0252
      9 C           6.3828   76.3645   23.6327 C.3     1  UNL1        0.0923
     10 N           7.8500   76.3131   23.5647 N.pl3   1  UNL1       -0.2932
     11 C           8.5091   75.0136   23.3775 C.3     1  UNL1        0.0923
     12 C           8.1114   74.0393   24.4989 C.3     1  UNL1        0.0252
     13 C           6.6270   74.9169   26.3803 C.3     1  UNL1        0.2054
     14 O           7.9299   75.3872   26.7198 O.3     1  UNL1       -0.4755
     15 C           8.6757   77.9595   29.9873 C.ar    1  UNL1        0.0137
     16 C           9.6974   77.6801   29.0640 C.ar    1  UNL1        0.0015
     17 C           9.4688   76.8355   27.9779 C.ar    1  UNL1        0.0367
     18 C           8.2105   76.2407   27.7968 C.ar    1  UNL1        0.1387
     19 C           7.1938   76.4969   28.7209 C.ar    1  UNL1        0.0431
     20 C           7.4074   77.3413   29.8251 C.ar    1  UNL1        0.0769
     21 C           6.2965   77.5383   30.7884 C.2     1  UNL1        0.3379
     22 O           5.3371   78.3030   30.5053 O.2     1  UNL1       -0.2451
     23 O           6.3064   76.9067   32.0305 O.3     1  UNL1       -0.4771
     24 H           7.0268   76.2424   32.2860 H       1  UNL1        0.2954
     25 C           8.9769   78.8997   31.1282 C.3     1  UNL1        0.1689
     26 C           9.2128   81.1901   31.1730 C.3     1  UNL1        0.1746
     27 O           9.7264   79.9910   30.6383 O.3     1  UNL1       -0.3463
     28 N          10.8980   81.0874   23.8180 N.am    1  UNL1       -0.2766
     29 C          12.1889   81.1359   24.4469 C.2     1  UNL1        0.2839
     30 O          12.8016   80.0693   24.7217 O.2     1  UNL1       -0.2665
     31 H          10.5565   81.9475   23.3323 H       1  UNL1        0.1553
     32 C          12.8153   82.4405   24.7340 C.ar    1  UNL1        0.1946
     33 O          13.1528   83.2983   23.7874 O.2     1  UNL1       -0.4492
     34 C          13.6775   84.3507   24.3660 C.ar    1  UNL1        0.1452
     35 C          14.1679   85.4962   23.7490 C.ar    1  UNL1        0.0375
     36 C          14.6896   86.5141   24.5660 C.ar    1  UNL1        0.0031
     37 C          14.7137   86.3732   25.9799 C.ar    1  UNL1        0.0002
     38 C          14.2048   85.1902   26.5680 C.ar    1  UNL1        0.0028
     39 C          13.6947   84.2002   25.7267 C.ar    1  UNL1        0.0337
     40 C          13.1371   82.9638   25.9914 C.ar    1  UNL1        0.0202
     41 C          12.9240   82.3255   27.3310 C.3     1  UNL1        0.0345
     42 C          15.2670   87.4555   26.8328 C.ar    1  UNL1        0.0000
     43 C          14.7693   87.6680   28.1325 C.ar    1  UNL1        0.0000
     44 C          15.2930   88.6874   28.9337 C.ar    1  UNL1        0.0000
     45 C          16.3159   89.5049   28.4483 C.ar    1  UNL1        0.0000
     46 C          16.8180   89.3047   27.1605 C.ar    1  UNL1        0.0000
     47 C          16.2988   88.2863   26.3554 C.ar    1  UNL1        0.0000
@<TRIPOS>BOND
     1    26    27    1
     2    27    25    1
     3    25    15    1
     4    15    16   ar
     5    16    17   ar
     6    17    18   ar
     7    18    14    1
     8    14    13    1
     9    13     7    1
    10     7     8    1
    11     8     9    1
    12     9    10    1
    13    10     1    1
    14     1     2   ar
    15     2     3   ar
    16     3     4   ar
    17     4    28    1
    18    28    29   am
    19    29    30    2
    20    29    32    1
    21    32    33   ar
    22    33    34   ar
    23    34    35   ar
    24    35    36   ar
    25    36    37   ar
    26    37    42    1
    27    42    43   ar
    28    43    44   ar
    29    44    45   ar
    30    45    46   ar
    31    46    47   ar
    32    37    38   ar
    33    38    39   ar
    34    39    40   ar
    35    40    41    1
    36     4     5   ar
    37     5     6   ar
    38    10    11    1
    39    11    12    1
    40    18    19   ar
    41    19    20   ar
    42    20    21    1
    43    21    22    2
    44    21    23    1
    45    20    15   ar
    46    12     7    1
    47     6     1   ar
    48    40    32   ar
    49    39    34   ar
    50    47    42   ar
    51    28    31    1
    52    23    24    1
@<TRIPOS>MOLECULE
*****
 47 52 0 0 0
SMALL
GASTEIGER

@<TRIPOS>ATOM
      1 C           8.5898   77.7018   27.8462 C.ar    1  UNL1        0.1318
      2 C           8.5690   77.7872   26.4454 C.ar    1  UNL1        0.0356
      3 C           9.2067   78.8541   25.8104 C.ar    1  UNL1        0.0191
      4 C           9.8612   79.8368   26.5697 C.ar    1  UNL1        0.0702
      5 C           9.8934   79.6927   27.9625 C.ar    1  UNL1        0.1149
      6 N           9.2648   78.6458   28.5592 N.ar    1  UNL1       -0.2279
      7 C           6.2614   74.3832   28.4043 C.3     1  UNL1        0.0472
      8 C           7.6766   74.1775   28.9932 C.3     1  UNL1        0.0252
      9 C           8.6378   75.2961   28.5579 C.3     1  UNL1        0.0923
     10 N           7.9648   76.6024   28.5346 N.pl3   1  UNL1       -0.2932
     11 C           6.7160   76.7737   29.2891 C.3     1  UNL1        0.0923
     12 C           5.6608   75.7551   28.8261 C.3     1  UNL1        0.0252
     13 C           6.2485   74.2233   26.8712 C.3     1  UNL1        0.2054
     14 O           6.1431   75.4994   26.2430 O.3     1  UNL1       -0.4755
     15 C           3.4628   76.4092   23.1066 C.ar    1  UNL1        0.0137
     16 C           3.1460   76.7648   24.4285 C.ar    1  UNL1        0.0015
     17 C           4.0197   76.4749   25.4763 C.ar    1  UNL1        0.0367
     18 C           5.2301   75.8104   25.2249 C.ar    1  UNL1        0.1387
     19 C           5.5449   75.4350   23.9159 C.ar    1  UNL1        0.0431
     20 C           4.6738   75.7138   22.8476 C.ar    1  UNL1        0.0769
     21 C           5.0521   75.2521   21.4895 C.2     1  UNL1        0.3379
     22 O           4.9073   74.0441   21.1649 O.2     1  UNL1       -0.2451
     23 O           5.5987   76.1350   20.5602 O.3     1  UNL1       -0.4771
     24 H           5.6874   77.1253   20.7528 H       1  UNL1        0.2954
     25 C           2.4884   76.7709   22.0129 C.3     1  UNL1        0.1689
     26 C           1.0486   78.5622   22.1608 C.3     1  UNL1        0.1746
     27 O           1.2952   77.2452   22.5994 O.3     1  UNL1       -0.3463
     28 N          10.5528   80.9358   25.9516 N.am    1  UNL1       -0.2766
     29 C          11.9034   80.8650   25.4664 C.2     1  UNL1        0.2839
     30 O          12.4703   79.7478   25.3280 O.2     1  UNL1       -0.2665
     31 H          10.0121   81.8119   25.7709 H       1  UNL1        0.1553
     32 C          12.6128   82.1029   25.0911 C.ar    1  UNL1        0.1946
     33 O          12.6656   82.5514   23.8494 O.2     1  UNL1       -0.4492
     34 C          13.3612   83.6622   23.8516 C.ar    1  UNL1        0.1452
     35 C          13.6649   84.4697   22.7612 C.ar    1  UNL1        0.0375
     36 C          14.4289   85.6273   22.9896 C.ar    1  UNL1        0.0031
     37 C          14.8760   85.9590   24.2971 C.ar    1  UNL1        0.0002
     38 C          14.5452   85.1092   25.3800 C.ar    1  UNL1        0.0028
     39 C          13.7854   83.9683   25.1169 C.ar    1  UNL1        0.0337
     40 C          13.3095   82.9677   25.9427 C.ar    1  UNL1        0.0202
     41 C          13.4983   82.8389   27.4242 C.3     1  UNL1        0.0345
     42 C          15.6823   87.1848   24.5262 C.ar    1  UNL1        0.0000
     43 C          15.4134   88.0237   25.6245 C.ar    1  UNL1        0.0000
     44 C          16.1750   89.1768   25.8382 C.ar    1  UNL1        0.0000
     45 C          17.2102   89.5058   24.9605 C.ar    1  UNL1        0.0000
     46 C          17.4867   88.6821   23.8671 C.ar    1  UNL1        0.0000
     47 C          16.7291   87.5273   23.6490 C.ar    1  UNL1        0.0000
@<TRIPOS>BOND
     1    26    27    1
     2    27    25    1
     3    25    15    1
     4    15    16   ar
     5    16    17   ar
     6    17    18   ar
     7    18    14    1
     8    14    13    1
     9    13     7    1
    10     7     8    1
    11     8     9    1
    12     9    10    1
    13    10     1    1
    14     1     2   ar
    15     2     3   ar
    16     3     4   ar
    17     4    28    1
    18    28    29   am
    19    29    30    2
    20    29    32    1
    21    32    33   ar
    22    33    34   ar
    23    34    35   ar
    24    35    36   ar
    25    36    37   ar
    26    37    42    1
    27    42    43   ar
    28    43    44   ar
    29    44    45   ar
    30    45    46   ar
    31    46    47   ar
    32    37    38   ar
    33    38    39   ar
    34    39    40   ar
    35    40    41    1
    36     4     5   ar
    37     5     6   ar
    38    10    11    1
    39    11    12    1
    40    18    19   ar
    41    19    20   ar
    42    20    21    1
    43    21    22    2
    44    21    23    1
    45    20    15   ar
    46    12     7    1
    47     6     1   ar
    48    40    32   ar
    49    39    34   ar
    50    47    42   ar
    51    28    31    1
    52    23    24    1
