@<TRIPOS>MOLECULE
*****
 41 44 0 0 0
SMALL
GASTEIGER

@<TRIPOS>ATOM
      1 C          50.7189   12.1846  -25.2920 C.ar    1  UNL1        0.0568
      2 C          50.1781   11.4274  -24.2384 C.ar    1  UNL1        0.0420
      3 C          50.0443   10.0396  -24.3480 C.ar    1  UNL1        0.1455
      4 C          50.4919    9.3921  -25.5112 C.ar    1  UNL1        0.0390
      5 C          51.0392   10.1295  -26.5696 C.ar    1  UNL1        0.0205
      6 C          51.1241   11.5267  -26.4663 C.ar    1  UNL1        0.0062
      7 C          51.4630    9.4333  -27.8035 C.ar    1  UNL1        0.0776
      8 N          52.7871    9.4424  -28.1201 N.ar    1  UNL1       -0.2410
      9 C          53.2793    8.8189  -29.2210 C.ar    1  UNL1        0.1355
     10 C          52.4154    8.1265  -30.0832 C.ar    1  UNL1        0.1575
     11 C          51.0499    8.1128  -29.7923 C.ar    1  UNL1        0.0357
     12 C          50.5482    8.7820  -28.6659 C.ar    1  UNL1       -0.0011
     13 C          49.0626    8.7782  -28.4155 C.3     1  UNL1        0.0327
     14 O          52.8673    7.4518  -31.2269 O.3     1  UNL1       -0.4699
     15 C          52.0131    6.9030  -32.2252 C.3     1  UNL1        0.2525
     16 N          50.4454   14.5201  -26.2533 N.am    1  UNL1       -0.2644
     17 C          50.8294   13.6580  -25.1681 C.2     1  UNL1        0.2507
     18 O          51.2927   14.1542  -24.1047 O.2     1  UNL1       -0.2698
     19 H          50.3110   14.1105  -27.2047 H       1  UNL1        0.1566
     20 N          49.3932   17.8882  -26.1748 N.ar    1  UNL1       -0.2188
     21 C          50.6612   18.0495  -25.7485 C.ar    1  UNL1        0.1008
     22 C          51.2660   16.8111  -25.6963 C.ar    1  UNL1        0.0565
     23 C          50.2803   15.9376  -26.1146 C.ar    1  UNL1        0.1558
     24 N          49.1494   16.6086  -26.4081 N.ar    1  UNL1       -0.1518
     25 C          48.4252   18.9572  -26.4013 C.3     1  UNL1        0.2734
     26 O          47.7649   19.2858  -25.1954 O.3     1  UNL1       -0.3284
     27 C          46.6496   18.4391  -25.0047 C.3     1  UNL1        0.1764
     28 C          46.7379   17.7900  -23.6293 C.3     1  UNL1        0.1743
     29 C          48.1299   16.0591  -23.0257 C.3     1  UNL1        0.1742
     30 O          46.9903   16.4086  -23.7781 O.3     1  UNL1       -0.3484
     31 O          49.5062    9.3277  -23.2656 O.3     1  UNL1       -0.4535
     32 C          48.9395    9.9015  -22.1178 C.ar    1  UNL1        0.1454
     33 C          47.6565   10.4783  -22.1298 C.ar    1  UNL1        0.0388
     34 C          47.1311   11.0516  -20.9682 C.ar    1  UNL1        0.0215
     35 C          47.8861   11.0723  -19.7882 C.ar    1  UNL1        0.1059
     36 C          49.1698   10.5105  -19.7786 C.ar    1  UNL1        0.0215
     37 C          49.6952    9.9372  -20.9404 C.ar    1  UNL1        0.0388
     38 S          47.2156   11.7772  -18.3212 S.O2    1  UNL1        0.0105
     39 C          48.2093   13.1663  -17.8269 C.3     1  UNL1        0.1816
     40 O          47.2031   10.7510  -17.2231 O.2     1  UNL1       -0.1686
     41 O          45.8051   12.2322  -18.5720 O.2     1  UNL1       -0.1686
@<TRIPOS>BOND
     1    29    30    1
     2    30    28    1
     3    28    27    1
     4    27    26    1
     5    26    25    1
     6    25    20    1
     7    20    21   ar
     8    21    22   ar
     9    22    23   ar
    10    23    16    1
    11    16    17   am
    12    17    18    2
    13    17     1    1
    14     1     2   ar
    15     2     3   ar
    16     3    31    1
    17    31    32    1
    18    32    33   ar
    19    33    34   ar
    20    34    35   ar
    21    35    38    1
    22    38    39    1
    23    38    40    2
    24    38    41    2
    25    35    36   ar
    26    36    37   ar
    27     3     4   ar
    28     4     5   ar
    29     5     7    1
    30     7     8   ar
    31     8     9   ar
    32     9    10   ar
    33    10    14    1
    34    14    15    1
    35    10    11   ar
    36    11    12   ar
    37    12    13    1
    38     5     6   ar
    39    23    24   ar
    40    24    20   ar
    41     6     1   ar
    42    37    32   ar
    43    12     7   ar
    44    16    19    1
@<TRIPOS>MOLECULE
*****
 41 44 0 0 0
SMALL
GASTEIGER

@<TRIPOS>ATOM
      1 C          51.6409   12.4694  -24.4664 C.ar    1  UNL1        0.0568
      2 C          52.0784   12.4320  -23.1311 C.ar    1  UNL1        0.0420
      3 C          51.9355   13.5463  -22.2983 C.ar    1  UNL1        0.1455
      4 C          51.3121   14.7034  -22.7933 C.ar    1  UNL1        0.0390
      5 C          50.8641   14.7575  -24.1200 C.ar    1  UNL1        0.0205
      6 C          51.0564   13.6491  -24.9593 C.ar    1  UNL1        0.0062
      7 C          50.2509   16.0009  -24.6345 C.ar    1  UNL1        0.0776
      8 N          51.0525   16.8857  -25.2889 N.ar    1  UNL1       -0.2410
      9 C          50.5836   18.0469  -25.8131 C.ar    1  UNL1        0.1355
     10 C          49.2240   18.3740  -25.6955 C.ar    1  UNL1        0.1575
     11 C          48.3806   17.4928  -25.0161 C.ar    1  UNL1        0.0357
     12 C          48.8803   16.3076  -24.4557 C.ar    1  UNL1       -0.0011
     13 C          47.9428   15.4084  -23.6928 C.3     1  UNL1        0.0327
     14 O          48.6794   19.5515  -26.2287 O.3     1  UNL1       -0.4699
     15 C          47.5009   20.1839  -25.7402 C.3     1  UNL1        0.2525
     16 N          51.0621   11.1415  -26.5532 N.am    1  UNL1       -0.2644
     17 C          51.8239   11.2870  -25.3421 C.2     1  UNL1        0.2507
     18 O          52.6399   10.3875  -25.0007 O.2     1  UNL1       -0.2698
     19 H          50.2201   11.7420  -26.6993 H       1  UNL1        0.1566
     20 N          52.4257    9.1070  -29.0946 N.ar    1  UNL1       -0.2188
     21 C          51.2086    8.5377  -28.9939 C.ar    1  UNL1        0.1008
     22 C          50.4959    9.1990  -28.0158 C.ar    1  UNL1        0.0565
     23 C          51.3669   10.1729  -27.5656 C.ar    1  UNL1        0.1558
     24 N          52.5338   10.1081  -28.2359 N.ar    1  UNL1       -0.1518
     25 C          53.4722    8.7257  -30.0384 C.3     1  UNL1        0.2734
     26 O          54.7397    9.1200  -29.5523 O.3     1  UNL1       -0.3284
     27 C          55.7425    8.2594  -30.0532 C.3     1  UNL1        0.1764
     28 C          55.3151    6.8119  -29.8460 C.3     1  UNL1        0.1743
     29 C          57.6119    6.7687  -29.9909 C.3     1  UNL1        0.1742
     30 O          56.4503    5.9743  -29.9088 O.3     1  UNL1       -0.3484
     31 O          52.3807   13.4562  -20.9710 O.3     1  UNL1       -0.4535
     32 C          51.5778   13.1393  -19.8653 C.ar    1  UNL1        0.1454
     33 C          52.1304   12.7753  -18.6238 C.ar    1  UNL1        0.0388
     34 C          51.2968   12.4542  -17.5487 C.ar    1  UNL1        0.0215
     35 C          49.9047   12.4746  -17.7050 C.ar    1  UNL1        0.1059
     36 C          49.3531   12.8235  -18.9450 C.ar    1  UNL1        0.0215
     37 C          50.1868   13.1446  -20.0203 C.ar    1  UNL1        0.0388
     38 S          48.8560   12.0890  -16.3448 S.O2    1  UNL1        0.0105
     39 C          49.8401   11.4766  -14.9965 C.3     1  UNL1        0.1816
     40 O          47.8560   11.0438  -16.7534 O.2     1  UNL1       -0.1686
     41 O          48.1143   13.3207  -15.9068 O.2     1  UNL1       -0.1686
@<TRIPOS>BOND
     1    29    30    1
     2    30    28    1
     3    28    27    1
     4    27    26    1
     5    26    25    1
     6    25    20    1
     7    20    21   ar
     8    21    22   ar
     9    22    23   ar
    10    23    16    1
    11    16    17   am
    12    17    18    2
    13    17     1    1
    14     1     2   ar
    15     2     3   ar
    16     3    31    1
    17    31    32    1
    18    32    33   ar
    19    33    34   ar
    20    34    35   ar
    21    35    38    1
    22    38    39    1
    23    38    40    2
    24    38    41    2
    25    35    36   ar
    26    36    37   ar
    27     3     4   ar
    28     4     5   ar
    29     5     7    1
    30     7     8   ar
    31     8     9   ar
    32     9    10   ar
    33    10    14    1
    34    14    15    1
    35    10    11   ar
    36    11    12   ar
    37    12    13    1
    38     5     6   ar
    39    23    24   ar
    40    24    20   ar
    41     6     1   ar
    42    37    32   ar
    43    12     7   ar
    44    16    19    1
@<TRIPOS>MOLECULE
*****
 41 44 0 0 0
SMALL
GASTEIGER

@<TRIPOS>ATOM
      1 C          49.9980   10.4896  -25.4949 C.ar    1  UNL1        0.0568
      2 C          48.8525   11.0920  -26.0435 C.ar    1  UNL1        0.0420
      3 C          47.8817   11.6697  -25.2192 C.ar    1  UNL1        0.1455
      4 C          48.0744   11.6808  -23.8280 C.ar    1  UNL1        0.0390
      5 C          49.2128   11.0906  -23.2631 C.ar    1  UNL1        0.0205
      6 C          50.1563   10.4722  -24.0982 C.ar    1  UNL1        0.0062
      7 C          49.3746   11.0734  -21.7932 C.ar    1  UNL1        0.0776
      8 N          48.8286   10.0354  -21.1021 N.ar    1  UNL1       -0.2410
      9 C          48.9358    9.9187  -19.7538 C.ar    1  UNL1        0.1355
     10 C          49.6338   10.8875  -19.0166 C.ar    1  UNL1        0.1575
     11 C          50.1916   11.9718  -19.6968 C.ar    1  UNL1        0.0357
     12 C          50.0529   12.0963  -21.0873 C.ar    1  UNL1       -0.0011
     13 C          50.6326   13.3056  -21.7737 C.3     1  UNL1        0.0327
     14 O          49.7899   10.8130  -17.6246 O.3     1  UNL1       -0.4699
     15 C          49.0129   11.5534  -16.6889 C.3     1  UNL1        0.2525
     16 N          50.8360    9.8691  -27.8113 N.am    1  UNL1       -0.2644
     17 C          51.0042    9.8594  -26.3830 C.2     1  UNL1        0.2507
     18 O          52.0043    9.2851  -25.8716 O.2     1  UNL1       -0.2698
     19 H          49.9016   10.1094  -28.2114 H       1  UNL1        0.1566
     20 N          53.0504    8.3878  -30.1264 N.ar    1  UNL1       -0.2188
     21 C          53.7002    9.5503  -29.9216 C.ar    1  UNL1        0.1008
     22 C          52.9728   10.3061  -29.0261 C.ar    1  UNL1        0.0565
     23 C          51.8780    9.5162  -28.7310 C.ar    1  UNL1        0.1558
     24 N          51.9430    8.3502  -29.4029 N.ar    1  UNL1       -0.1518
     25 C          53.5051    7.2932  -30.9787 C.3     1  UNL1        0.2734
     26 O          52.4465    6.3889  -31.2236 O.3     1  UNL1       -0.3284
     27 C          51.7629    6.7486  -32.4071 C.3     1  UNL1        0.1764
     28 C          50.2619    6.7336  -32.1474 C.3     1  UNL1        0.1743
     29 C          48.2311    5.9937  -32.9391 C.3     1  UNL1        0.1742
     30 O          49.6043    6.1154  -33.2334 O.3     1  UNL1       -0.3484
     31 O          46.7604   12.2656  -25.8153 O.3     1  UNL1       -0.4535
     32 C          46.5468   12.3935  -27.1959 C.ar    1  UNL1        0.1454
     33 C          46.6364   11.2935  -28.0682 C.ar    1  UNL1        0.0388
     34 C          46.4291   11.4636  -29.4400 C.ar    1  UNL1        0.0215
     35 C          46.1486   12.7345  -29.9586 C.ar    1  UNL1        0.1059
     36 C          46.0728   13.8335  -29.0926 C.ar    1  UNL1        0.0215
     37 C          46.2803   13.6633  -27.7206 C.ar    1  UNL1        0.0388
     38 S          45.8685   12.9440  -31.6838 S.O2    1  UNL1        0.0105
     39 C          44.2542   12.3248  -32.0986 C.3     1  UNL1        0.1816
     40 O          46.9113   12.1931  -32.4636 O.2     1  UNL1       -0.1686
     41 O          45.9551   14.4012  -32.0419 O.2     1  UNL1       -0.1686
@<TRIPOS>BOND
     1    29    30    1
     2    30    28    1
     3    28    27    1
     4    27    26    1
     5    26    25    1
     6    25    20    1
     7    20    21   ar
     8    21    22   ar
     9    22    23   ar
    10    23    16    1
    11    16    17   am
    12    17    18    2
    13    17     1    1
    14     1     2   ar
    15     2     3   ar
    16     3    31    1
    17    31    32    1
    18    32    33   ar
    19    33    34   ar
    20    34    35   ar
    21    35    38    1
    22    38    39    1
    23    38    40    2
    24    38    41    2
    25    35    36   ar
    26    36    37   ar
    27     3     4   ar
    28     4     5   ar
    29     5     7    1
    30     7     8   ar
    31     8     9   ar
    32     9    10   ar
    33    10    14    1
    34    14    15    1
    35    10    11   ar
    36    11    12   ar
    37    12    13    1
    38     5     6   ar
    39    23    24   ar
    40    24    20   ar
    41     6     1   ar
    42    37    32   ar
    43    12     7   ar
    44    16    19    1
@<TRIPOS>MOLECULE
*****
 41 44 0 0 0
SMALL
GASTEIGER

@<TRIPOS>ATOM
      1 C          51.6485   12.3971  -24.7246 C.ar    1  UNL1        0.0568
      2 C          52.0621   12.2959  -23.3849 C.ar    1  UNL1        0.0420
      3 C          51.8966   13.3666  -22.5007 C.ar    1  UNL1        0.1455
      4 C          51.2745   14.5432  -22.9493 C.ar    1  UNL1        0.0390
      5 C          50.8502   14.6605  -24.2796 C.ar    1  UNL1        0.0205
      6 C          51.0651   13.5963  -25.1691 C.ar    1  UNL1        0.0062
      7 C          50.2380   15.9243  -24.7432 C.ar    1  UNL1        0.0776
      8 N          51.0444   16.8432  -25.3422 N.ar    1  UNL1       -0.2410
      9 C          50.5771   18.0260  -25.8171 C.ar    1  UNL1        0.1355
     10 C          49.2142   18.3408  -25.7044 C.ar    1  UNL1        0.1575
     11 C          48.3655   17.4241  -25.0808 C.ar    1  UNL1        0.0357
     12 C          48.8633   16.2157  -24.5705 C.ar    1  UNL1       -0.0011
     13 C          47.9194   15.2765  -23.8657 C.3     1  UNL1        0.0327
     14 O          48.6712   19.5400  -26.1887 O.3     1  UNL1       -0.4699
     15 C          47.5240   20.1809  -25.6405 C.3     1  UNL1        0.2525
     16 N          51.5033   11.3717  -27.0443 N.am    1  UNL1       -0.2644
     17 C          51.8554   11.2607  -25.6543 C.2     1  UNL1        0.2507
     18 O          52.3210   10.1762  -25.2083 O.2     1  UNL1       -0.2698
     19 H          50.8912   12.1600  -27.3521 H       1  UNL1        0.1566
     20 N          51.8737    8.7394  -29.3661 N.ar    1  UNL1       -0.2188
     21 C          53.0833    9.3173  -29.5021 C.ar    1  UNL1        0.1008
     22 C          53.1437   10.4087  -28.6612 C.ar    1  UNL1        0.0565
     23 C          51.9096   10.4228  -28.0395 C.ar    1  UNL1        0.1558
     24 N          51.1511    9.3975  -28.4740 N.ar    1  UNL1       -0.1518
     25 C          51.4200    7.5344  -30.0541 C.3     1  UNL1        0.2734
     26 O          52.3854    7.1141  -30.9972 O.3     1  UNL1       -0.3284
     27 C          51.7644    6.8223  -32.2327 C.3     1  UNL1        0.1764
     28 C          50.2557    6.7497  -32.0345 C.3     1  UNL1        0.1743
     29 C          48.2762    6.0001  -32.9388 C.3     1  UNL1        0.1742
     30 O          49.6732    6.0567  -33.1182 O.3     1  UNL1       -0.3484
     31 O          52.3183   13.2134  -21.1716 O.3     1  UNL1       -0.4535
     32 C          51.4803   12.9385  -20.0807 C.ar    1  UNL1        0.1454
     33 C          50.0893   12.7896  -20.2293 C.ar    1  UNL1        0.0388
     34 C          49.2859   12.5284  -19.1157 C.ar    1  UNL1        0.0215
     35 C          49.8580   12.4312  -17.8405 C.ar    1  UNL1        0.1059
     36 C          51.2417   12.5931  -17.6892 C.ar    1  UNL1        0.0215
     37 C          52.0451   12.8544  -18.8030 C.ar    1  UNL1        0.0388
     38 S          48.8476   12.0829  -16.4418 S.O2    1  UNL1        0.0105
     39 C          49.8699   11.5144  -15.1028 C.3     1  UNL1        0.1816
     40 O          47.8414   11.0227  -16.7921 O.2     1  UNL1       -0.1686
     41 O          48.1128   13.3247  -16.0209 O.2     1  UNL1       -0.1686
@<TRIPOS>BOND
     1    29    30    1
     2    30    28    1
     3    28    27    1
     4    27    26    1
     5    26    25    1
     6    25    20    1
     7    20    21   ar
     8    21    22   ar
     9    22    23   ar
    10    23    16    1
    11    16    17   am
    12    17    18    2
    13    17     1    1
    14     1     2   ar
    15     2     3   ar
    16     3    31    1
    17    31    32    1
    18    32    33   ar
    19    33    34   ar
    20    34    35   ar
    21    35    38    1
    22    38    39    1
    23    38    40    2
    24    38    41    2
    25    35    36   ar
    26    36    37   ar
    27     3     4   ar
    28     4     5   ar
    29     5     7    1
    30     7     8   ar
    31     8     9   ar
    32     9    10   ar
    33    10    14    1
    34    14    15    1
    35    10    11   ar
    36    11    12   ar
    37    12    13    1
    38     5     6   ar
    39    23    24   ar
    40    24    20   ar
    41     6     1   ar
    42    37    32   ar
    43    12     7   ar
    44    16    19    1
@<TRIPOS>MOLECULE
*****
 41 44 0 0 0
SMALL
GASTEIGER

@<TRIPOS>ATOM
      1 C          49.8288   11.0610  -25.4919 C.ar    1  UNL1        0.0568
      2 C          48.6173   11.3480  -26.1445 C.ar    1  UNL1        0.0420
      3 C          47.5188   11.8406  -25.4329 C.ar    1  UNL1        0.1455
      4 C          47.6419   12.0869  -24.0556 C.ar    1  UNL1        0.0390
      5 C          48.8434   11.8126  -23.3888 C.ar    1  UNL1        0.0205
      6 C          49.9232   11.2737  -24.1056 C.ar    1  UNL1        0.0062
      7 C          48.9379   12.0368  -21.9302 C.ar    1  UNL1        0.0776
      8 N          49.2964   13.2762  -21.4958 N.ar    1  UNL1       -0.2410
      9 C          49.3951   13.5884  -20.1783 C.ar    1  UNL1        0.1355
     10 C          49.1193   12.6184  -19.2025 C.ar    1  UNL1        0.1575
     11 C          48.7639   11.3337  -19.6183 C.ar    1  UNL1        0.0357
     12 C          48.6898   11.0146  -20.9825 C.ar    1  UNL1       -0.0011
     13 C          48.3461    9.6041  -21.3850 C.3     1  UNL1        0.0327
     14 O          49.1904   12.8857  -17.8273 O.3     1  UNL1       -0.4699
     15 C          48.9812   11.9132  -16.8086 C.3     1  UNL1        0.2525
     16 N          50.7724    9.8682  -27.5266 N.am    1  UNL1       -0.2644
     17 C          50.9747   10.5150  -26.2581 C.2     1  UNL1        0.2507
     18 O          52.1363   10.5978  -25.7728 O.2     1  UNL1       -0.2698
     19 H          49.8078    9.5749  -27.7994 H       1  UNL1        0.1566
     20 N          53.1530    8.4338  -29.7020 N.ar    1  UNL1       -0.2188
     21 C          53.6071    9.7023  -29.6933 C.ar    1  UNL1        0.1008
     22 C          52.7837   10.4562  -28.8836 C.ar    1  UNL1        0.0565
     23 C          51.8395    9.5542  -28.4314 C.ar    1  UNL1        0.1558
     24 N          52.0815    8.3272  -28.9327 N.ar    1  UNL1       -0.1518
     25 C          53.7640    7.3121  -30.4089 C.3     1  UNL1        0.2734
     26 O          54.9351    6.8888  -29.7398 O.3     1  UNL1       -0.3284
     27 C          56.0747    7.1742  -30.5253 C.3     1  UNL1        0.1764
     28 C          56.9423    8.1971  -29.8030 C.3     1  UNL1        0.1743
     29 C          58.3644    6.4630  -30.3212 C.3     1  UNL1        0.1742
     30 O          58.2198    7.6442  -29.5656 O.3     1  UNL1       -0.3484
     31 O          46.3345   12.1192  -26.1311 O.3     1  UNL1       -0.4535
     32 C          46.2371   12.3229  -27.5157 C.ar    1  UNL1        0.1454
     33 C          46.3889   11.2696  -28.4357 C.ar    1  UNL1        0.0388
     34 C          46.2975   11.5149  -29.8087 C.ar    1  UNL1        0.0215
     35 C          46.0722   12.8152  -30.2793 C.ar    1  UNL1        0.1059
     36 C          45.9346   13.8676  -29.3645 C.ar    1  UNL1        0.0215
     37 C          46.0262   13.6222  -27.9912 C.ar    1  UNL1        0.0388
     38 S          45.9378   13.1195  -32.0079 S.O2    1  UNL1        0.0105
     39 C          44.3924   12.4717  -32.6023 C.3     1  UNL1        0.1816
     40 O          47.0744   12.4537  -32.7318 O.2     1  UNL1       -0.1686
     41 O          45.9980   14.5979  -32.2722 O.2     1  UNL1       -0.1686
@<TRIPOS>BOND
     1    29    30    1
     2    30    28    1
     3    28    27    1
     4    27    26    1
     5    26    25    1
     6    25    20    1
     7    20    21   ar
     8    21    22   ar
     9    22    23   ar
    10    23    16    1
    11    16    17   am
    12    17    18    2
    13    17     1    1
    14     1     2   ar
    15     2     3   ar
    16     3    31    1
    17    31    32    1
    18    32    33   ar
    19    33    34   ar
    20    34    35   ar
    21    35    38    1
    22    38    39    1
    23    38    40    2
    24    38    41    2
    25    35    36   ar
    26    36    37   ar
    27     3     4   ar
    28     4     5   ar
    29     5     7    1
    30     7     8   ar
    31     8     9   ar
    32     9    10   ar
    33    10    14    1
    34    14    15    1
    35    10    11   ar
    36    11    12   ar
    37    12    13    1
    38     5     6   ar
    39    23    24   ar
    40    24    20   ar
    41     6     1   ar
    42    37    32   ar
    43    12     7   ar
    44    16    19    1
@<TRIPOS>MOLECULE
*****
 41 44 0 0 0
SMALL
GASTEIGER

@<TRIPOS>ATOM
      1 C          50.8282   10.1507  -26.5293 C.ar    1  UNL1        0.0568
      2 C          50.3705    9.4466  -25.4020 C.ar    1  UNL1        0.0420
      3 C          49.9580   10.1259  -24.2513 C.ar    1  UNL1        0.1455
      4 C          49.9659   11.5303  -24.2379 C.ar    1  UNL1        0.0390
      5 C          50.4130   12.2496  -25.3543 C.ar    1  UNL1        0.0205
      6 C          50.8692   11.5551  -26.4855 C.ar    1  UNL1        0.0062
      7 C          50.4556   13.7269  -25.3032 C.ar    1  UNL1        0.0776
      8 N          50.1631   14.4146  -26.4412 N.ar    1  UNL1       -0.2410
      9 C          50.1579   15.7711  -26.4941 C.ar    1  UNL1        0.1355
     10 C          50.4577   16.5214  -25.3467 C.ar    1  UNL1        0.1575
     11 C          50.7766   15.8433  -24.1686 C.ar    1  UNL1        0.0357
     12 C          50.8041   14.4411  -24.1315 C.ar    1  UNL1       -0.0011
     13 C          51.1971   13.7520  -22.8507 C.3     1  UNL1        0.0327
     14 O          50.4542   17.9241  -25.3367 O.3     1  UNL1       -0.4699
     15 C          49.6452   18.7309  -26.1864 C.3     1  UNL1        0.2525
     16 N          50.4500    8.4185  -28.3486 N.am    1  UNL1       -0.2644
     17 C          51.2858    9.4128  -27.7313 C.2     1  UNL1        0.2507
     18 O          52.4350    9.6454  -28.1970 O.2     1  UNL1       -0.2698
     19 H          49.6264    8.0493  -27.8230 H       1  UNL1        0.1566
     20 N          51.7732    7.1643  -31.3708 N.ar    1  UNL1       -0.2188
     21 C          50.4596    7.0353  -31.6418 C.ar    1  UNL1        0.1008
     22 C          49.7423    7.4747  -30.5489 C.ar    1  UNL1        0.0565
     23 C          50.7121    7.8606  -29.6433 C.ar    1  UNL1        0.1558
     24 N          51.9419    7.6719  -30.1604 N.ar    1  UNL1       -0.1518
     25 C          52.8690    6.8443  -32.2807 C.3     1  UNL1        0.2734
     26 O          53.8086    6.0034  -31.6417 O.3     1  UNL1       -0.3284
     27 C          55.0286    6.6914  -31.4531 C.3     1  UNL1        0.1764
     28 C          55.3927    6.6770  -29.9739 C.3     1  UNL1        0.1743
     29 C          57.6863    6.8509  -30.0584 C.3     1  UNL1        0.1742
     30 O          56.6085    5.9808  -29.7970 O.3     1  UNL1       -0.3484
     31 O          49.5020    9.3783  -23.1554 O.3     1  UNL1       -0.4535
     32 C          49.0389    9.9132  -21.9441 C.ar    1  UNL1        0.1454
     33 C          49.7988    9.8468  -20.7621 C.ar    1  UNL1        0.0388
     34 C          49.2975   10.3805  -19.5714 C.ar    1  UNL1        0.0215
     35 C          48.0264   10.9692  -19.5426 C.ar    1  UNL1        0.1059
     36 C          47.2627   11.0236  -20.7161 C.ar    1  UNL1        0.0215
     37 C          47.7642   10.4897  -21.9069 C.ar    1  UNL1        0.0388
     38 S          47.4045   11.6582  -18.0469 S.O2    1  UNL1        0.0105
     39 C          48.6496   12.6930  -17.3118 C.3     1  UNL1        0.1816
     40 O          47.0380   10.5564  -17.0926 O.2     1  UNL1       -0.1686
     41 O          46.1764   12.4760  -18.3336 O.2     1  UNL1       -0.1686
@<TRIPOS>BOND
     1    29    30    1
     2    30    28    1
     3    28    27    1
     4    27    26    1
     5    26    25    1
     6    25    20    1
     7    20    21   ar
     8    21    22   ar
     9    22    23   ar
    10    23    16    1
    11    16    17   am
    12    17    18    2
    13    17     1    1
    14     1     2   ar
    15     2     3   ar
    16     3    31    1
    17    31    32    1
    18    32    33   ar
    19    33    34   ar
    20    34    35   ar
    21    35    38    1
    22    38    39    1
    23    38    40    2
    24    38    41    2
    25    35    36   ar
    26    36    37   ar
    27     3     4   ar
    28     4     5   ar
    29     5     7    1
    30     7     8   ar
    31     8     9   ar
    32     9    10   ar
    33    10    14    1
    34    14    15    1
    35    10    11   ar
    36    11    12   ar
    37    12    13    1
    38     5     6   ar
    39    23    24   ar
    40    24    20   ar
    41     6     1   ar
    42    37    32   ar
    43    12     7   ar
    44    16    19    1
@<TRIPOS>MOLECULE
*****
 41 44 0 0 0
SMALL
GASTEIGER

@<TRIPOS>ATOM
      1 C          50.3148   10.7772  -25.5348 C.ar    1  UNL1        0.0568
      2 C          49.5568   10.2519  -24.4740 C.ar    1  UNL1        0.0420
      3 C          48.7732   11.0864  -23.6706 C.ar    1  UNL1        0.1455
      4 C          48.7145   12.4609  -23.9531 C.ar    1  UNL1        0.0390
      5 C          49.4585   13.0020  -25.0101 C.ar    1  UNL1        0.0205
      6 C          50.2780   12.1610  -25.7790 C.ar    1  UNL1        0.0062
      7 C          49.4177   14.4586  -25.2626 C.ar    1  UNL1        0.0776
      8 N          50.3637   15.2370  -24.6689 N.ar    1  UNL1       -0.2410
      9 C          50.4228   16.5811  -24.8502 C.ar    1  UNL1        0.1355
     10 C          49.4889   17.2213  -25.6792 C.ar    1  UNL1        0.1575
     11 C          48.4975   16.4506  -26.2896 C.ar    1  UNL1        0.0357
     12 C          48.4298   15.0658  -26.0750 C.ar    1  UNL1       -0.0011
     13 C          47.3164   14.2806  -26.7181 C.3     1  UNL1        0.0327
     14 O          49.5085   18.6038  -25.9158 O.3     1  UNL1       -0.4699
     15 C          49.1768   19.2099  -27.1608 C.3     1  UNL1        0.2525
     16 N          50.9729    9.7951  -27.7833 N.am    1  UNL1       -0.2644
     17 C          51.1598    9.8808  -26.3599 C.2     1  UNL1        0.2507
     18 O          52.0337    9.1662  -25.7964 O.2     1  UNL1       -0.2698
     19 H          50.0987   10.1807  -28.2053 H       1  UNL1        0.1566
     20 N          53.7494    8.6469  -29.6354 N.ar    1  UNL1       -0.2188
     21 C          52.7779    7.9388  -30.2439 C.ar    1  UNL1        0.1008
     22 C          51.5738    8.2429  -29.6441 C.ar    1  UNL1        0.0565
     23 C          51.9079    9.1593  -28.6651 C.ar    1  UNL1        0.1558
     24 N          53.2336    9.3995  -28.6768 N.ar    1  UNL1       -0.1518
     25 C          55.1645    8.6400  -29.9941 C.3     1  UNL1        0.2734
     26 O          55.4785    7.4760  -30.7322 O.3     1  UNL1       -0.3284
     27 C          56.2611    6.5986  -29.9479 C.3     1  UNL1        0.1764
     28 C          57.7247    7.0122  -30.0360 C.3     1  UNL1        0.1743
     29 C          59.2055    6.2116  -31.6058 C.3     1  UNL1        0.1742
     30 O          58.5036    5.9000  -30.4237 O.3     1  UNL1       -0.3484
     31 O          48.0285   10.5128  -22.6294 O.3     1  UNL1       -0.4535
     32 C          48.1178   10.8693  -21.2755 C.ar    1  UNL1        0.1454
     33 C          47.0725   11.5359  -20.6107 C.ar    1  UNL1        0.0388
     34 C          47.2042   11.8856  -19.2638 C.ar    1  UNL1        0.0215
     35 C          48.3858   11.5912  -18.5710 C.ar    1  UNL1        0.1059
     36 C          49.4332   10.9396  -19.2358 C.ar    1  UNL1        0.0215
     37 C          49.3014   10.5900  -20.5830 C.ar    1  UNL1        0.0388
     38 S          48.5428   12.0148  -16.8697 S.O2    1  UNL1        0.0105
     39 C          50.2660   12.1386  -16.4493 C.3     1  UNL1        0.1816
     40 O          47.8920   10.9593  -16.0202 O.2     1  UNL1       -0.1686
     41 O          47.8655   13.3306  -16.6066 O.2     1  UNL1       -0.1686
@<TRIPOS>BOND
     1    29    30    1
     2    30    28    1
     3    28    27    1
     4    27    26    1
     5    26    25    1
     6    25    20    1
     7    20    21   ar
     8    21    22   ar
     9    22    23   ar
    10    23    16    1
    11    16    17   am
    12    17    18    2
    13    17     1    1
    14     1     2   ar
    15     2     3   ar
    16     3    31    1
    17    31    32    1
    18    32    33   ar
    19    33    34   ar
    20    34    35   ar
    21    35    38    1
    22    38    39    1
    23    38    40    2
    24    38    41    2
    25    35    36   ar
    26    36    37   ar
    27     3     4   ar
    28     4     5   ar
    29     5     7    1
    30     7     8   ar
    31     8     9   ar
    32     9    10   ar
    33    10    14    1
    34    14    15    1
    35    10    11   ar
    36    11    12   ar
    37    12    13    1
    38     5     6   ar
    39    23    24   ar
    40    24    20   ar
    41     6     1   ar
    42    37    32   ar
    43    12     7   ar
    44    16    19    1
@<TRIPOS>MOLECULE
*****
 41 44 0 0 0
SMALL
GASTEIGER

@<TRIPOS>ATOM
      1 C          48.6846   12.2389  -25.0955 C.ar    1  UNL1        0.0568
      2 C          48.5583   11.4786  -23.9199 C.ar    1  UNL1        0.0420
      3 C          49.1272   10.2046  -23.8255 C.ar    1  UNL1        0.1455
      4 C          49.8660    9.6960  -24.9063 C.ar    1  UNL1        0.0390
      5 C          50.0079   10.4417  -26.0842 C.ar    1  UNL1        0.0205
      6 C          49.3920   11.6990  -26.1837 C.ar    1  UNL1        0.0062
      7 C          50.7518    9.8692  -27.2269 C.ar    1  UNL1        0.0776
      8 N          50.1867    8.8307  -27.9019 N.ar    1  UNL1       -0.2410
      9 C          50.7803    8.2469  -28.9741 C.ar    1  UNL1        0.1355
     10 C          52.0230    8.7121  -29.4306 C.ar    1  UNL1        0.1575
     11 C          52.6341    9.7661  -28.7486 C.ar    1  UNL1        0.0357
     12 C          52.0240   10.3455  -27.6260 C.ar    1  UNL1       -0.0011
     13 C          52.7403   11.4506  -26.8943 C.3     1  UNL1        0.0327
     14 O          52.6777    8.1585  -30.5408 O.3     1  UNL1       -0.4699
     15 C          52.0224    7.4529  -31.5896 C.3     1  UNL1        0.2525
     16 N          47.9251   14.4131  -24.0234 N.am    1  UNL1       -0.2644
     17 C          48.0530   13.5772  -25.1867 C.2     1  UNL1        0.2507
     18 O          47.5993   13.9705  -26.2964 O.2     1  UNL1       -0.2698
     19 H          48.0615   13.9918  -23.0774 H       1  UNL1        0.1566
     20 N          47.4887   17.8442  -24.7262 N.ar    1  UNL1       -0.2188
     21 C          46.7236   17.7526  -23.6209 C.ar    1  UNL1        0.1008
     22 C          46.7504   16.4470  -23.1773 C.ar    1  UNL1        0.0565
     23 C          47.5689   15.8007  -24.0839 C.ar    1  UNL1        0.1558
     24 N          48.0152   16.6652  -25.0159 N.ar    1  UNL1       -0.1518
     25 C          47.7538   19.0639  -25.4834 C.3     1  UNL1        0.2734
     26 O          49.1447   19.3071  -25.5519 O.3     1  UNL1       -0.3284
     27 C          49.6563   18.8622  -26.7918 C.3     1  UNL1        0.1764
     28 C          50.6698   17.7508  -26.5502 C.3     1  UNL1        0.1743
     29 C          52.0234   18.2790  -24.7650 C.3     1  UNL1        0.1742
     30 O          51.9056   18.3179  -26.1692 O.3     1  UNL1       -0.3484
     31 O          48.9801    9.4889  -22.6280 O.3     1  UNL1       -0.4535
     32 C          48.8357   10.0586  -21.3543 C.ar    1  UNL1        0.1454
     33 C          47.6788   10.7675  -20.9826 C.ar    1  UNL1        0.0388
     34 C          47.5775   11.3316  -19.7077 C.ar    1  UNL1        0.0215
     35 C          48.6353   11.2108  -18.7970 C.ar    1  UNL1        0.1059
     36 C          49.7938   10.5168  -19.1708 C.ar    1  UNL1        0.0215
     37 C          49.8951    9.9527  -20.4459 C.ar    1  UNL1        0.0388
     38 S          48.4984   11.9049  -17.1851 S.O2    1  UNL1        0.0105
     39 C          50.1221   12.2778  -16.5639 C.3     1  UNL1        0.1816
     40 O          47.8200   10.9281  -16.2661 O.2     1  UNL1       -0.1686
     41 O          47.6797   13.1643  -17.2395 O.2     1  UNL1       -0.1686
@<TRIPOS>BOND
     1    29    30    1
     2    30    28    1
     3    28    27    1
     4    27    26    1
     5    26    25    1
     6    25    20    1
     7    20    21   ar
     8    21    22   ar
     9    22    23   ar
    10    23    16    1
    11    16    17   am
    12    17    18    2
    13    17     1    1
    14     1     2   ar
    15     2     3   ar
    16     3    31    1
    17    31    32    1
    18    32    33   ar
    19    33    34   ar
    20    34    35   ar
    21    35    38    1
    22    38    39    1
    23    38    40    2
    24    38    41    2
    25    35    36   ar
    26    36    37   ar
    27     3     4   ar
    28     4     5   ar
    29     5     7    1
    30     7     8   ar
    31     8     9   ar
    32     9    10   ar
    33    10    14    1
    34    14    15    1
    35    10    11   ar
    36    11    12   ar
    37    12    13    1
    38     5     6   ar
    39    23    24   ar
    40    24    20   ar
    41     6     1   ar
    42    37    32   ar
    43    12     7   ar
    44    16    19    1
@<TRIPOS>MOLECULE
*****
 41 44 0 0 0
SMALL
GASTEIGER

@<TRIPOS>ATOM
      1 C          50.9300   13.4667  -22.4424 C.ar    1  UNL1        0.0568
      2 C          51.5667   12.4055  -23.1091 C.ar    1  UNL1        0.0420
      3 C          51.8255   12.4735  -24.4818 C.ar    1  UNL1        0.1455
      4 C          51.4785   13.6335  -25.1936 C.ar    1  UNL1        0.0390
      5 C          50.8486   14.7041  -24.5450 C.ar    1  UNL1        0.0205
      6 C          50.5514   14.6039  -23.1769 C.ar    1  UNL1        0.0062
      7 C          50.4510   15.8979  -25.3220 C.ar    1  UNL1        0.0776
      8 N          51.2557   16.9945  -25.2655 N.ar    1  UNL1       -0.2410
      9 C          50.9882   18.1332  -25.9545 C.ar    1  UNL1        0.1355
     10 C          49.8476   18.2122  -26.7681 C.ar    1  UNL1        0.1575
     11 C          48.9953   17.1082  -26.8338 C.ar    1  UNL1        0.0357
     12 C          49.2675   15.9453  -26.0975 C.ar    1  UNL1       -0.0011
     13 C          48.2968   14.7950  -26.1638 C.3     1  UNL1        0.0327
     14 O          49.5270   19.3560  -27.5141 O.3     1  UNL1       -0.4699
     15 C          48.2687   20.0203  -27.4640 C.3     1  UNL1        0.2525
     16 N          51.1347   12.2606  -20.2161 N.am    1  UNL1       -0.2644
     17 C          50.6406   13.3663  -20.9917 C.2     1  UNL1        0.2507
     18 O          49.9282   14.2510  -20.4425 O.2     1  UNL1       -0.2698
     19 H          51.4952   11.4140  -20.7102 H       1  UNL1        0.1566
     20 N          50.4434   11.9168  -16.7721 N.ar    1  UNL1       -0.2188
     21 C          51.6520   12.5068  -16.6905 C.ar    1  UNL1        0.1008
     22 C          52.1193   12.7255  -17.9695 C.ar    1  UNL1        0.0565
     23 C          51.1169   12.2318  -18.7826 C.ar    1  UNL1        0.1558
     24 N          50.1018   11.7494  -18.0395 N.ar    1  UNL1       -0.1518
     25 C          49.5932   11.5504  -15.6433 C.3     1  UNL1        0.2734
     26 O          48.5540   12.4953  -15.4838 O.3     1  UNL1       -0.3284
     27 C          48.9211   13.4655  -14.5241 C.3     1  UNL1        0.1764
     28 C          47.9163   14.6102  -14.5537 C.3     1  UNL1        0.1743
     29 C          46.4588   15.7917  -15.8871 C.3     1  UNL1        0.1742
     30 O          47.3141   14.6726  -15.8295 O.3     1  UNL1       -0.3484
     31 O          52.4706   11.3918  -25.0995 O.3     1  UNL1       -0.4535
     32 C          51.9253   10.5951  -26.1172 C.ar    1  UNL1        0.1454
     33 C          52.4629   10.5768  -27.4171 C.ar    1  UNL1        0.0388
     34 C          51.8835    9.7789  -28.4078 C.ar    1  UNL1        0.0215
     35 C          50.7517    9.0055  -28.1181 C.ar    1  UNL1        0.1059
     36 C          50.2069    9.0335  -26.8274 C.ar    1  UNL1        0.0215
     37 C          50.7864    9.8316  -25.8366 C.ar    1  UNL1        0.0388
     38 S          50.0348    7.9863  -29.3614 S.O2    1  UNL1        0.0105
     39 C          51.2218    7.7130  -30.6567 C.3     1  UNL1        0.1816
     40 O          48.8156    8.6573  -29.9292 O.2     1  UNL1       -0.1686
     41 O          49.6265    6.6673  -28.7674 O.2     1  UNL1       -0.1686
@<TRIPOS>BOND
     1    29    30    1
     2    30    28    1
     3    28    27    1
     4    27    26    1
     5    26    25    1
     6    25    20    1
     7    20    21   ar
     8    21    22   ar
     9    22    23   ar
    10    23    16    1
    11    16    17   am
    12    17    18    2
    13    17     1    1
    14     1     2   ar
    15     2     3   ar
    16     3    31    1
    17    31    32    1
    18    32    33   ar
    19    33    34   ar
    20    34    35   ar
    21    35    38    1
    22    38    39    1
    23    38    40    2
    24    38    41    2
    25    35    36   ar
    26    36    37   ar
    27     3     4   ar
    28     4     5   ar
    29     5     7    1
    30     7     8   ar
    31     8     9   ar
    32     9    10   ar
    33    10    14    1
    34    14    15    1
    35    10    11   ar
    36    11    12   ar
    37    12    13    1
    38     5     6   ar
    39    23    24   ar
    40    24    20   ar
    41     6     1   ar
    42    37    32   ar
    43    12     7   ar
    44    16    19    1
