@<TRIPOS>MOLECULE
*****
 36 40 0 0 0
SMALL
GASTEIGER

@<TRIPOS>ATOM
      1 C         -28.5431   48.2956   -8.3667 C.ar    1  UNL1        0.1379
      2 C         -29.3054   47.9299   -7.2363 C.ar    1  UNL1        0.0615
      3 BR        -30.8947   46.8779   -7.4191 Br      1  UNL1       -0.0472
      4 C         -28.9161   48.3602   -5.9517 C.ar    1  UNL1        0.0843
      5 C         -27.7683   49.1508   -5.8025 C.ar    1  UNL1        0.2972
      6 N         -27.0667   49.4780   -6.9159 N.ar    1  UNL1       -0.1224
      7 C         -25.9476   50.2036   -7.0429 C.ar    1  UNL1        0.3137
      8 C         -25.6323   50.2300   -8.3984 C.ar    1  UNL1        0.1320
      9 N         -26.5546   49.5227   -9.0991 N.ar    1  UNL1       -0.2940
     10 C         -27.4095   49.0867   -8.1528 C.ar    1  UNL1        0.3128
     11 H         -26.5907   49.3652  -10.0703 H       1  UNL1        0.1718
     12 N         -29.7288   46.9609  -12.2318 N.3     1  UNL1       -0.2647
     13 C         -29.2521   45.9900  -11.2218 C.3     1  UNL1        0.0941
     14 C         -28.2890   46.6666  -10.2447 C.3     1  UNL1        0.1084
     15 N         -28.9130   47.8656   -9.6846 N.pl3   1  UNL1       -0.2984
     16 C         -29.5450   48.8108  -10.6060 C.3     1  UNL1        0.1084
     17 C         -30.4650   48.0573  -11.5684 C.3     1  UNL1        0.0941
     18 C         -30.6009   46.2985  -13.2232 C.3     1  UNL1        0.1200
     19 N         -30.0350   46.9219  -16.7939 N.ar    1  UNL1       -0.3128
     20 C         -29.7027   48.0852  -16.1982 C.ar    1  UNL1        0.1780
     21 N         -29.8560   48.0472  -14.8579 N.ar    1  UNL1       -0.2273
     22 C         -30.3000   46.7982  -14.6069 C.ar    1  UNL1        0.0885
     23 C         -30.3877   46.0897  -15.7933 C.ar    1  UNL1        0.0537
     24 C         -30.8756   44.6801  -15.9646 C.3     1  UNL1        0.0514
     25 C         -28.9428   47.5719  -18.8915 C.3     1  UNL1        0.0265
     26 C         -29.9442   46.6352  -18.2258 C.3     1  UNL1        0.1073
     27 C         -24.4757   50.9111   -9.0304 C.ar    1  UNL1        0.0218
     28 C         -23.3493   51.2354   -8.2601 C.ar    1  UNL1        0.0013
     29 C         -22.2508   51.8762   -8.8371 C.ar    1  UNL1       -0.0042
     30 C         -22.2385   52.2165  -10.2070 C.ar    1  UNL1       -0.0228
     31 C         -23.3788   51.8850  -10.9744 C.ar    1  UNL1       -0.0042
     32 C         -24.4769   51.2435  -10.3943 C.ar    1  UNL1        0.0013
     33 C         -21.0049   52.9241  -10.8056 C.3     1  UNL1        0.0189
     34 C         -21.4306   53.7401  -12.0456 C.3     1  UNL1        0.0044
     35 C         -19.9572   51.8685  -11.2212 C.3     1  UNL1        0.0044
     36 C         -20.3229   53.8976   -9.8142 C.3     1  UNL1        0.0044
@<TRIPOS>BOND
     1    25    26    1
     2    26    19    1
     3    19    20   ar
     4    20    21   ar
     5    21    22   ar
     6    22    18    1
     7    18    12    1
     8    12    13    1
     9    13    14    1
    10    14    15    1
    11    15     1    1
    12     1     2   ar
    13     2     3    1
    14     2     4   ar
    15     4     5   ar
    16     5     6   ar
    17     6     7   ar
    18     7     8   ar
    19     8    27    1
    20    27    28   ar
    21    28    29   ar
    22    29    30   ar
    23    30    33    1
    24    33    34    1
    25    33    35    1
    26    33    36    1
    27    30    31   ar
    28    31    32   ar
    29     8     9   ar
    30     9    10   ar
    31    15    16    1
    32    16    17    1
    33    22    23   ar
    34    23    24    1
    35    23    19   ar
    36    17    12    1
    37    10     1   ar
    38    10     6   ar
    39    32    27   ar
    40     9    11    1
@<TRIPOS>MOLECULE
*****
 36 40 0 0 0
SMALL
GASTEIGER

@<TRIPOS>ATOM
      1 C         -28.7877   50.1104   -8.7280 C.ar    1  UNL1        0.1379
      2 C         -30.0174   49.9937   -9.4114 C.ar    1  UNL1        0.0615
      3 BR        -31.5840   49.3528   -8.5164 Br      1  UNL1       -0.0472
      4 C         -30.1007   50.3262  -10.7786 C.ar    1  UNL1        0.0843
      5 C         -28.9577   50.7745  -11.4551 C.ar    1  UNL1        0.2972
      6 N         -27.7979   50.8711  -10.7588 N.ar    1  UNL1       -0.1224
      7 C         -26.5856   51.2740  -11.1624 C.ar    1  UNL1        0.3137
      8 C         -25.7433   51.1972  -10.0569 C.ar    1  UNL1        0.1320
      9 N         -26.4373   50.7495   -8.9799 N.ar    1  UNL1       -0.2940
     10 C         -27.6834   50.5620   -9.4581 C.ar    1  UNL1        0.3128
     11 H         -26.1080   50.5975   -8.0647 H       1  UNL1        0.1718
     12 N         -28.5733   49.1428   -4.5874 N.3     1  UNL1       -0.2647
     13 C         -29.1595   50.4300   -5.0226 C.3     1  UNL1        0.0941
     14 C         -28.5543   50.8672   -6.3578 C.3     1  UNL1        0.1084
     15 N         -28.6767   49.7851   -7.3349 N.pl3   1  UNL1       -0.2984
     16 C         -28.2585   48.4412   -6.9343 C.3     1  UNL1        0.1084
     17 C         -28.8764   48.0902   -5.5795 C.3     1  UNL1        0.0941
     18 C         -29.0975   48.7505   -3.2633 C.3     1  UNL1        0.1200
     19 N         -27.2326   45.7343   -2.3234 N.ar    1  UNL1       -0.3128
     20 C         -28.5198   45.3328   -2.3496 C.ar    1  UNL1        0.1780
     21 N         -29.3701   46.3285   -2.6762 N.ar    1  UNL1       -0.2273
     22 C         -28.5732   47.4000   -2.8678 C.ar    1  UNL1        0.0885
     23 C         -27.2511   47.0351   -2.6780 C.ar    1  UNL1        0.0537
     24 C         -26.0504   47.9334   -2.7552 C.3     1  UNL1        0.0514
     25 C         -25.6616   44.1183   -3.2908 C.3     1  UNL1        0.0265
     26 C         -26.0751   44.8853   -2.0402 C.3     1  UNL1        0.1073
     27 C         -24.3011   51.5423  -10.0107 C.ar    1  UNL1        0.0218
     28 C         -23.6219   51.8666  -11.1942 C.ar    1  UNL1        0.0013
     29 C         -22.2646   52.1943  -11.1709 C.ar    1  UNL1       -0.0042
     30 C         -21.5361   52.2097   -9.9620 C.ar    1  UNL1       -0.0228
     31 C         -22.2303   51.8813   -8.7749 C.ar    1  UNL1       -0.0042
     32 C         -23.5889   51.5538   -8.8010 C.ar    1  UNL1        0.0013
     33 C         -20.0376   52.5773   -9.9796 C.3     1  UNL1        0.0189
     34 C         -19.8843   54.1139   -9.9763 C.3     1  UNL1        0.0044
     35 C         -19.3806   51.9991  -11.2518 C.3     1  UNL1        0.0044
     36 C         -19.2628   52.0253   -8.7586 C.3     1  UNL1        0.0044
@<TRIPOS>BOND
     1    25    26    1
     2    26    19    1
     3    19    20   ar
     4    20    21   ar
     5    21    22   ar
     6    22    18    1
     7    18    12    1
     8    12    13    1
     9    13    14    1
    10    14    15    1
    11    15     1    1
    12     1     2   ar
    13     2     3    1
    14     2     4   ar
    15     4     5   ar
    16     5     6   ar
    17     6     7   ar
    18     7     8   ar
    19     8    27    1
    20    27    28   ar
    21    28    29   ar
    22    29    30   ar
    23    30    33    1
    24    33    34    1
    25    33    35    1
    26    33    36    1
    27    30    31   ar
    28    31    32   ar
    29     8     9   ar
    30     9    10   ar
    31    15    16    1
    32    16    17    1
    33    22    23   ar
    34    23    24    1
    35    23    19   ar
    36    17    12    1
    37    10     1   ar
    38    10     6   ar
    39    32    27   ar
    40     9    11    1
@<TRIPOS>MOLECULE
*****
 36 40 0 0 0
SMALL
GASTEIGER

@<TRIPOS>ATOM
      1 C         -28.7948   50.1515   -8.6243 C.ar    1  UNL1        0.1379
      2 C         -30.0522   50.0658   -9.2603 C.ar    1  UNL1        0.0615
      3 BR        -31.5839   49.3964   -8.3267 Br      1  UNL1       -0.0472
      4 C         -30.1899   50.4511  -10.6091 C.ar    1  UNL1        0.0843
      5 C         -29.0735   50.9212  -11.3145 C.ar    1  UNL1        0.2972
      6 N         -27.8855   50.9866  -10.6635 N.ar    1  UNL1       -0.1224
      7 C         -26.6887   51.4004  -11.1011 C.ar    1  UNL1        0.3137
      8 C         -25.8021   51.2779  -10.0351 C.ar    1  UNL1        0.1320
      9 N         -26.4535   50.7914   -8.9484 N.ar    1  UNL1       -0.2940
     10 C         -27.7192   50.6270   -9.3816 C.ar    1  UNL1        0.3128
     11 H         -26.0876   50.6029   -8.0540 H       1  UNL1        0.1718
     12 N         -28.1863   49.0292   -4.5627 N.3     1  UNL1       -0.2647
     13 C         -27.7648   48.1262   -5.6566 C.3     1  UNL1        0.0941
     14 C         -28.6298   48.3523   -6.8979 C.3     1  UNL1        0.1084
     15 N         -28.6283   49.7722   -7.2506 N.pl3   1  UNL1       -0.2984
     16 C         -28.8882   50.7479   -6.1914 C.3     1  UNL1        0.1084
     17 C         -28.0119   50.4372   -4.9764 C.3     1  UNL1        0.0941
     18 C         -27.4054   48.7657   -3.3368 C.3     1  UNL1        0.1200
     19 N         -29.2685   46.3074   -1.3507 N.ar    1  UNL1       -0.3128
     20 C         -28.1860   45.6303   -1.7846 C.ar    1  UNL1        0.1780
     21 N         -27.3714   46.3851   -2.5514 N.ar    1  UNL1       -0.2273
     22 C         -27.9734   47.5918   -2.5923 C.ar    1  UNL1        0.0885
     23 C         -29.1304   47.5593   -1.8323 C.ar    1  UNL1        0.0537
     24 C         -30.1146   48.6776   -1.6448 C.3     1  UNL1        0.0514
     25 C         -31.3235   44.9704   -1.2825 C.3     1  UNL1        0.0265
     26 C         -30.3156   45.7803   -0.4752 C.3     1  UNL1        0.1073
     27 C         -24.3574   51.6157  -10.0353 C.ar    1  UNL1        0.0218
     28 C         -23.7345   52.0205  -11.2250 C.ar    1  UNL1        0.0013
     29 C         -22.3759   52.3427  -11.2451 C.ar    1  UNL1       -0.0042
     30 C         -21.5896   52.2720  -10.0749 C.ar    1  UNL1       -0.0228
     31 C         -22.2273   51.8630   -8.8812 C.ar    1  UNL1       -0.0042
     32 C         -23.5874   51.5411   -8.8639 C.ar    1  UNL1        0.0013
     33 C         -20.0917   52.6366  -10.1398 C.3     1  UNL1        0.0189
     34 C         -19.4127   52.2641   -8.8038 C.3     1  UNL1        0.0044
     35 C         -19.9414   54.1536  -10.3861 C.3     1  UNL1        0.0044
     36 C         -19.3361   51.8999  -11.2722 C.3     1  UNL1        0.0044
@<TRIPOS>BOND
     1    25    26    1
     2    26    19    1
     3    19    20   ar
     4    20    21   ar
     5    21    22   ar
     6    22    18    1
     7    18    12    1
     8    12    13    1
     9    13    14    1
    10    14    15    1
    11    15     1    1
    12     1     2   ar
    13     2     3    1
    14     2     4   ar
    15     4     5   ar
    16     5     6   ar
    17     6     7   ar
    18     7     8   ar
    19     8    27    1
    20    27    28   ar
    21    28    29   ar
    22    29    30   ar
    23    30    33    1
    24    33    34    1
    25    33    35    1
    26    33    36    1
    27    30    31   ar
    28    31    32   ar
    29     8     9   ar
    30     9    10   ar
    31    15    16    1
    32    16    17    1
    33    22    23   ar
    34    23    24    1
    35    23    19   ar
    36    17    12    1
    37    10     1   ar
    38    10     6   ar
    39    32    27   ar
    40     9    11    1
@<TRIPOS>MOLECULE
*****
 36 40 0 0 0
SMALL
GASTEIGER

@<TRIPOS>ATOM
      1 C         -28.0847   49.4434   -7.6077 C.ar    1  UNL1        0.1379
      2 C         -29.4572   49.4002   -7.9351 C.ar    1  UNL1        0.0615
      3 BR        -30.6994   48.4342   -6.8443 Br      1  UNL1       -0.0472
      4 C         -29.9288   50.0519   -9.0925 C.ar    1  UNL1        0.0843
      5 C         -29.0291   50.7439   -9.9151 C.ar    1  UNL1        0.2972
      6 N         -27.7198   50.7589   -9.5619 N.ar    1  UNL1       -0.1224
      7 C         -26.6754   51.3452  -10.1624 C.ar    1  UNL1        0.3137
      8 C         -25.5527   51.0662   -9.3884 C.ar    1  UNL1        0.1320
      9 N         -25.9081   50.3122   -8.3173 N.ar    1  UNL1       -0.2940
     10 C         -27.2374   50.1486   -8.4685 C.ar    1  UNL1        0.3128
     11 H         -25.3307   49.9662   -7.5989 H       1  UNL1        0.1718
     12 N         -26.6925   47.4867   -4.0921 N.3     1  UNL1       -0.2647
     13 C         -27.5802   48.6660   -3.9867 C.3     1  UNL1        0.0941
     14 C         -27.4075   49.5739   -5.2057 C.3     1  UNL1        0.1084
     15 N         -27.5793   48.7946   -6.4320 N.pl3   1  UNL1       -0.2984
     16 C         -26.8506   47.5316   -6.5562 C.3     1  UNL1        0.1084
     17 C         -27.0454   46.6960   -5.2897 C.3     1  UNL1        0.0941
     18 C         -26.7984   46.6429   -2.8842 C.3     1  UNL1        0.1200
     19 N         -30.1329   46.8172   -1.3645 N.ar    1  UNL1       -0.3128
     20 C         -29.5010   47.9154   -0.9027 C.ar    1  UNL1        0.1780
     21 N         -28.2351   48.0192   -1.3588 N.ar    1  UNL1       -0.2273
     22 C         -28.0732   46.9361   -2.1467 C.ar    1  UNL1        0.0885
     23 C         -29.2480   46.2039   -2.1763 C.ar    1  UNL1        0.0537
     24 C         -29.4824   44.9090   -2.8994 C.3     1  UNL1        0.0514
     25 C         -31.5746   45.4424    0.0663 C.3     1  UNL1        0.0265
     26 C         -31.5190   46.4430   -1.0822 C.3     1  UNL1        0.1073
     27 C         -24.1596   51.5043   -9.6501 C.ar    1  UNL1        0.0218
     28 C         -23.2165   51.4923   -8.6120 C.ar    1  UNL1        0.0013
     29 C         -21.9005   51.9007   -8.8389 C.ar    1  UNL1       -0.0042
     30 C         -21.4790   52.3365  -10.1136 C.ar    1  UNL1       -0.0228
     31 C         -22.4374   52.3446  -11.1529 C.ar    1  UNL1       -0.0042
     32 C         -23.7540   51.9352  -10.9230 C.ar    1  UNL1        0.0013
     33 C         -20.0158   52.7795  -10.3224 C.3     1  UNL1        0.0189
     34 C         -19.4669   52.1484  -11.6205 C.3     1  UNL1        0.0044
     35 C         -19.1607   52.3132   -9.1240 C.3     1  UNL1        0.0044
     36 C         -19.8576   54.3145  -10.4430 C.3     1  UNL1        0.0044
@<TRIPOS>BOND
     1    25    26    1
     2    26    19    1
     3    19    20   ar
     4    20    21   ar
     5    21    22   ar
     6    22    18    1
     7    18    12    1
     8    12    13    1
     9    13    14    1
    10    14    15    1
    11    15     1    1
    12     1     2   ar
    13     2     3    1
    14     2     4   ar
    15     4     5   ar
    16     5     6   ar
    17     6     7   ar
    18     7     8   ar
    19     8    27    1
    20    27    28   ar
    21    28    29   ar
    22    29    30   ar
    23    30    33    1
    24    33    34    1
    25    33    35    1
    26    33    36    1
    27    30    31   ar
    28    31    32   ar
    29     8     9   ar
    30     9    10   ar
    31    15    16    1
    32    16    17    1
    33    22    23   ar
    34    23    24    1
    35    23    19   ar
    36    17    12    1
    37    10     1   ar
    38    10     6   ar
    39    32    27   ar
    40     9    11    1
@<TRIPOS>MOLECULE
*****
 36 40 0 0 0
SMALL
GASTEIGER

@<TRIPOS>ATOM
      1 C         -29.0613   49.4894   -8.0442 C.ar    1  UNL1        0.1379
      2 C         -29.7836   49.0929   -6.8980 C.ar    1  UNL1        0.0615
      3 BR        -31.5836   48.4558   -7.0404 Br      1  UNL1       -0.0472
      4 C         -29.1919   49.1864   -5.6222 C.ar    1  UNL1        0.0843
      5 C         -27.8833   49.6730   -5.4976 C.ar    1  UNL1        0.2972
      6 N         -27.2271   50.0424   -6.6255 N.ar    1  UNL1       -0.1224
      7 C         -25.9861   50.5236   -6.7780 C.ar    1  UNL1        0.3137
      8 C         -25.7957   50.7312   -8.1411 C.ar    1  UNL1        0.1320
      9 N         -26.9158   50.3780   -8.8212 N.ar    1  UNL1       -0.2940
     10 C         -27.7606   49.9676   -7.8545 C.ar    1  UNL1        0.3128
     11 H         -27.0741   50.4133   -9.7923 H       1  UNL1        0.1718
     12 N         -30.6801   49.2776  -11.9763 N.3     1  UNL1       -0.2647
     13 C         -30.5351   50.5856  -11.2995 C.3     1  UNL1        0.0941
     14 C         -30.6036   50.4108   -9.7813 C.3     1  UNL1        0.1084
     15 N         -29.6372   49.3983   -9.3552 N.pl3   1  UNL1       -0.2984
     16 C         -29.6095   48.1235  -10.0734 C.3     1  UNL1        0.1084
     17 C         -29.5741   48.3806  -11.5811 C.3     1  UNL1        0.0941
     18 C         -30.6897   49.4463  -13.4438 C.3     1  UNL1        0.1200
     19 N         -30.6901   46.4722  -15.5916 N.ar    1  UNL1       -0.3128
     20 C         -31.3962   46.0964  -14.5059 C.ar    1  UNL1        0.1780
     21 N         -31.4987   47.0776  -13.5851 N.ar    1  UNL1       -0.2273
     22 C         -30.8286   48.1160  -14.1263 C.ar    1  UNL1        0.0885
     23 C         -30.3495   47.7588  -15.3753 C.ar    1  UNL1        0.0537
     24 C         -29.5185   48.6057  -16.2954 C.3     1  UNL1        0.0514
     25 C         -30.9611   44.2359  -16.5617 C.3     1  UNL1        0.0265
     26 C         -30.4336   45.6501  -16.7745 C.3     1  UNL1        0.1073
     27 C         -24.5737   51.2546   -8.7999 C.ar    1  UNL1        0.0218
     28 C         -24.6521   51.7902  -10.0938 C.ar    1  UNL1        0.0013
     29 C         -23.5130   52.2878  -10.7301 C.ar    1  UNL1       -0.0042
     30 C         -22.2525   52.2681  -10.0952 C.ar    1  UNL1       -0.0228
     31 C         -22.1845   51.7262   -8.7911 C.ar    1  UNL1       -0.0042
     32 C         -23.3263   51.2288   -8.1564 C.ar    1  UNL1        0.0013
     33 C         -21.0184   52.8279  -10.8331 C.3     1  UNL1        0.0189
     34 C         -20.0877   51.6636  -11.2368 C.3     1  UNL1        0.0044
     35 C         -20.2558   53.7944   -9.9009 C.3     1  UNL1        0.0044
     36 C         -21.3823   53.6063  -12.1205 C.3     1  UNL1        0.0044
@<TRIPOS>BOND
     1    25    26    1
     2    26    19    1
     3    19    20   ar
     4    20    21   ar
     5    21    22   ar
     6    22    18    1
     7    18    12    1
     8    12    13    1
     9    13    14    1
    10    14    15    1
    11    15     1    1
    12     1     2   ar
    13     2     3    1
    14     2     4   ar
    15     4     5   ar
    16     5     6   ar
    17     6     7   ar
    18     7     8   ar
    19     8    27    1
    20    27    28   ar
    21    28    29   ar
    22    29    30   ar
    23    30    33    1
    24    33    34    1
    25    33    35    1
    26    33    36    1
    27    30    31   ar
    28    31    32   ar
    29     8     9   ar
    30     9    10   ar
    31    15    16    1
    32    16    17    1
    33    22    23   ar
    34    23    24    1
    35    23    19   ar
    36    17    12    1
    37    10     1   ar
    38    10     6   ar
    39    32    27   ar
    40     9    11    1
@<TRIPOS>MOLECULE
*****
 36 40 0 0 0
SMALL
GASTEIGER

@<TRIPOS>ATOM
      1 C         -30.2858   46.5392   -7.6135 C.ar    1  UNL1        0.1379
      2 C         -30.7379   45.5598   -6.7029 C.ar    1  UNL1        0.0615
      3 BR        -30.4525   45.7596   -4.8202 Br      1  UNL1       -0.0472
      4 C         -31.3875   44.4015   -7.1754 C.ar    1  UNL1        0.0843
      5 C         -31.5836   44.2282   -8.5525 C.ar    1  UNL1        0.2972
      6 N         -31.1328   45.1946   -9.3903 N.ar    1  UNL1       -0.1224
      7 C         -31.2012   45.2730  -10.7261 C.ar    1  UNL1        0.3137
      8 C         -30.5997   46.4732  -11.0937 C.ar    1  UNL1        0.1320
      9 N         -30.1650   47.1280   -9.9873 N.ar    1  UNL1       -0.2940
     10 C         -30.5099   46.3081   -8.9746 C.ar    1  UNL1        0.3128
     11 H         -29.7058   47.9973   -9.9363 H       1  UNL1        0.1718
     12 N         -28.3061   50.0990   -6.3743 N.3     1  UNL1       -0.2647
     13 C         -27.5382   48.9963   -6.9941 C.3     1  UNL1        0.0941
     14 C         -28.2287   47.6556   -6.7376 C.3     1  UNL1        0.1084
     15 N         -29.6278   47.7306   -7.1590 N.pl3   1  UNL1       -0.2984
     16 C         -30.4240   48.8745   -6.7127 C.3     1  UNL1        0.1084
     17 C         -29.6555   50.1716   -6.9726 C.3     1  UNL1        0.0941
     18 C         -27.6075   51.3881   -6.5535 C.3     1  UNL1        0.1200
     19 N         -25.1412   51.1916   -9.2623 N.ar    1  UNL1       -0.3128
     20 C         -24.4666   50.7788   -8.1700 C.ar    1  UNL1        0.1780
     21 N         -25.2247   50.7904   -7.0536 N.ar    1  UNL1       -0.2273
     22 C         -26.4307   51.2265   -7.4723 C.ar    1  UNL1        0.0885
     23 C         -26.3946   51.4508   -8.8381 C.ar    1  UNL1        0.0537
     24 C         -27.5112   51.9777   -9.6925 C.3     1  UNL1        0.0514
     25 C         -23.2848   52.0098  -10.6407 C.3     1  UNL1        0.0265
     26 C         -24.6102   51.2572  -10.6242 C.3     1  UNL1        0.1073
     27 C         -30.4358   47.0019  -12.4703 C.ar    1  UNL1        0.0218
     28 C         -30.5197   48.3824  -12.7033 C.ar    1  UNL1        0.0013
     29 C         -30.3679   48.8990  -13.9918 C.ar    1  UNL1       -0.0042
     30 C         -30.1263   48.0530  -15.0956 C.ar    1  UNL1       -0.0228
     31 C         -30.0433   46.6632  -14.8497 C.ar    1  UNL1       -0.0042
     32 C         -30.1956   46.1489  -13.5590 C.ar    1  UNL1        0.0013
     33 C         -29.9644   48.6640  -16.5032 C.3     1  UNL1        0.0189
     34 C         -31.0980   49.6815  -16.7564 C.3     1  UNL1        0.0044
     35 C         -30.0359   47.5426  -17.5625 C.3     1  UNL1        0.0044
     36 C         -28.6181   49.4038  -16.6927 C.3     1  UNL1        0.0044
@<TRIPOS>BOND
     1    25    26    1
     2    26    19    1
     3    19    20   ar
     4    20    21   ar
     5    21    22   ar
     6    22    18    1
     7    18    12    1
     8    12    13    1
     9    13    14    1
    10    14    15    1
    11    15     1    1
    12     1     2   ar
    13     2     3    1
    14     2     4   ar
    15     4     5   ar
    16     5     6   ar
    17     6     7   ar
    18     7     8   ar
    19     8    27    1
    20    27    28   ar
    21    28    29   ar
    22    29    30   ar
    23    30    33    1
    24    33    34    1
    25    33    35    1
    26    33    36    1
    27    30    31   ar
    28    31    32   ar
    29     8     9   ar
    30     9    10   ar
    31    15    16    1
    32    16    17    1
    33    22    23   ar
    34    23    24    1
    35    23    19   ar
    36    17    12    1
    37    10     1   ar
    38    10     6   ar
    39    32    27   ar
    40     9    11    1
@<TRIPOS>MOLECULE
*****
 36 40 0 0 0
SMALL
GASTEIGER

@<TRIPOS>ATOM
      1 C         -28.8276   49.3045   -8.8254 C.ar    1  UNL1        0.1379
      2 C         -30.1675   49.5478   -9.1969 C.ar    1  UNL1        0.0615
      3 BR        -31.5840   48.4267   -8.5621 Br      1  UNL1       -0.0472
      4 C         -30.4778   50.6122  -10.0672 C.ar    1  UNL1        0.0843
      5 C         -29.4502   51.4282  -10.5601 C.ar    1  UNL1        0.2972
      6 N         -28.1777   51.1577  -10.1767 N.ar    1  UNL1       -0.1224
      7 C         -27.0349   51.7808  -10.4939 C.ar    1  UNL1        0.3137
      8 C         -26.0106   51.1147   -9.8272 C.ar    1  UNL1        0.1320
      9 N         -26.5242   50.0875   -9.1039 N.ar    1  UNL1       -0.2940
     10 C         -27.8475   50.1526   -9.3514 C.ar    1  UNL1        0.3128
     11 H         -26.0432   49.4459   -8.5327 H       1  UNL1        0.1718
     12 N         -27.9191   46.1222   -6.1469 N.3     1  UNL1       -0.2647
     13 C         -28.3015   47.4520   -5.6220 C.3     1  UNL1        0.0941
     14 C         -27.9256   48.5478   -6.6211 C.3     1  UNL1        0.1084
     15 N         -28.4848   48.2322   -7.9358 N.pl3   1  UNL1       -0.2984
     16 C         -28.2820   46.8841   -8.4679 C.3     1  UNL1        0.1084
     17 C         -28.6475   45.8481   -7.4032 C.3     1  UNL1        0.0941
     18 C         -28.2107   45.0656   -5.1567 C.3     1  UNL1        0.1200
     19 N         -29.8417   46.2978   -2.1102 N.ar    1  UNL1       -0.3128
     20 C         -30.8141   46.3336   -3.0439 C.ar    1  UNL1        0.1780
     21 N         -30.3906   45.9139   -4.2545 N.ar    1  UNL1       -0.2273
     22 C         -29.0933   45.5965   -4.0638 C.ar    1  UNL1        0.0885
     23 C         -28.7544   45.8055   -2.7377 C.ar    1  UNL1        0.0537
     24 C         -27.4017   45.6146   -2.1146 C.3     1  UNL1        0.0514
     25 C         -29.9564   48.1682   -0.5280 C.3     1  UNL1        0.0265
     26 C         -29.9939   46.6540   -0.6993 C.3     1  UNL1        0.1073
     27 C         -24.5635   51.4396   -9.8669 C.ar    1  UNL1        0.0218
     28 C         -23.9511   51.7539  -11.0890 C.ar    1  UNL1        0.0013
     29 C         -22.5904   52.0626  -11.1465 C.ar    1  UNL1       -0.0042
     30 C         -21.7914   52.0684   -9.9828 C.ar    1  UNL1       -0.0228
     31 C         -22.4186   51.7503   -8.7563 C.ar    1  UNL1       -0.0042
     32 C         -23.7808   51.4417   -8.7016 C.ar    1  UNL1        0.0013
     33 C         -20.2917   52.4150  -10.0895 C.3     1  UNL1        0.0189
     34 C         -20.1331   53.9006  -10.4800 C.3     1  UNL1        0.0044
     35 C         -19.6338   51.5281  -11.1689 C.3     1  UNL1        0.0044
     36 C         -19.5215   52.1926   -8.7655 C.3     1  UNL1        0.0044
@<TRIPOS>BOND
     1    25    26    1
     2    26    19    1
     3    19    20   ar
     4    20    21   ar
     5    21    22   ar
     6    22    18    1
     7    18    12    1
     8    12    13    1
     9    13    14    1
    10    14    15    1
    11    15     1    1
    12     1     2   ar
    13     2     3    1
    14     2     4   ar
    15     4     5   ar
    16     5     6   ar
    17     6     7   ar
    18     7     8   ar
    19     8    27    1
    20    27    28   ar
    21    28    29   ar
    22    29    30   ar
    23    30    33    1
    24    33    34    1
    25    33    35    1
    26    33    36    1
    27    30    31   ar
    28    31    32   ar
    29     8     9   ar
    30     9    10   ar
    31    15    16    1
    32    16    17    1
    33    22    23   ar
    34    23    24    1
    35    23    19   ar
    36    17    12    1
    37    10     1   ar
    38    10     6   ar
    39    32    27   ar
    40     9    11    1
@<TRIPOS>MOLECULE
*****
 36 40 0 0 0
SMALL
GASTEIGER

@<TRIPOS>ATOM
      1 C         -29.5444   46.7063   -9.1074 C.ar    1  UNL1        0.1379
      2 C         -30.0967   45.9111   -8.0802 C.ar    1  UNL1        0.0615
      3 BR        -29.4684   46.0563   -6.2773 Br      1  UNL1       -0.0472
      4 C         -31.1077   44.9750   -8.3769 C.ar    1  UNL1        0.0843
      5 C         -31.5628   44.8390   -9.6958 C.ar    1  UNL1        0.2972
      6 N         -31.0036   45.6235  -10.6504 N.ar    1  UNL1       -0.1224
      7 C         -31.2615   45.6937  -11.9632 C.ar    1  UNL1        0.3137
      8 C         -30.4196   46.6684  -12.4909 C.ar    1  UNL1        0.1320
      9 N         -29.6491   47.1937  -11.5049 N.ar    1  UNL1       -0.2940
     10 C         -30.0393   46.5231  -10.4028 C.ar    1  UNL1        0.3128
     11 H         -28.9659   47.8988  -11.5775 H       1  UNL1        0.1718
     12 N         -26.5145   49.5489   -8.1768 N.3     1  UNL1       -0.2647
     13 C         -27.9108   49.7792   -7.7440 C.3     1  UNL1        0.0941
     14 C         -28.8855   49.0812   -8.6941 C.3     1  UNL1        0.1084
     15 N         -28.5191   47.6714   -8.8318 N.pl3   1  UNL1       -0.2984
     16 C         -27.1203   47.3449   -9.1118 C.3     1  UNL1        0.1084
     17 C         -26.2092   48.1034   -8.1449 C.3     1  UNL1        0.0941
     18 C         -25.5703   50.2808   -7.3080 C.3     1  UNL1        0.1200
     19 N         -23.3089   51.8009   -9.7646 N.ar    1  UNL1       -0.3128
     20 C         -22.5268   51.5769   -8.6890 C.ar    1  UNL1        0.1780
     21 N         -23.1999   51.0165   -7.6623 N.ar    1  UNL1       -0.2273
     22 C         -24.4606   50.8803   -8.1231 C.ar    1  UNL1        0.0885
     23 C         -24.5297   51.3374   -9.4282 C.ar    1  UNL1        0.0537
     24 C         -25.7541   51.4014  -10.2948 C.3     1  UNL1        0.0514
     25 C         -22.3262   53.7719  -10.8438 C.3     1  UNL1        0.0265
     26 C         -22.8694   52.3617  -11.0426 C.3     1  UNL1        0.1073
     27 C         -30.3396   47.1041  -13.9069 C.ar    1  UNL1        0.0218
     28 C         -30.1366   48.4582  -14.2110 C.ar    1  UNL1        0.0013
     29 C         -30.0583   48.8876  -15.5375 C.ar    1  UNL1       -0.0042
     30 C         -30.1804   47.9776  -16.6096 C.ar    1  UNL1       -0.0228
     31 C         -30.3846   46.6151  -16.2921 C.ar    1  UNL1       -0.0042
     32 C         -30.4625   46.1881  -14.9634 C.ar    1  UNL1        0.0013
     33 C         -30.0880   48.4928  -18.0611 C.3     1  UNL1        0.0189
     34 C         -29.2707   47.4953  -18.9106 C.3     1  UNL1        0.0044
     35 C         -29.3901   49.8703  -18.0750 C.3     1  UNL1        0.0044
     36 C         -31.4714   48.6605  -18.7350 C.3     1  UNL1        0.0044
@<TRIPOS>BOND
     1    25    26    1
     2    26    19    1
     3    19    20   ar
     4    20    21   ar
     5    21    22   ar
     6    22    18    1
     7    18    12    1
     8    12    13    1
     9    13    14    1
    10    14    15    1
    11    15     1    1
    12     1     2   ar
    13     2     3    1
    14     2     4   ar
    15     4     5   ar
    16     5     6   ar
    17     6     7   ar
    18     7     8   ar
    19     8    27    1
    20    27    28   ar
    21    28    29   ar
    22    29    30   ar
    23    30    33    1
    24    33    34    1
    25    33    35    1
    26    33    36    1
    27    30    31   ar
    28    31    32   ar
    29     8     9   ar
    30     9    10   ar
    31    15    16    1
    32    16    17    1
    33    22    23   ar
    34    23    24    1
    35    23    19   ar
    36    17    12    1
    37    10     1   ar
    38    10     6   ar
    39    32    27   ar
    40     9    11    1
@<TRIPOS>MOLECULE
*****
 36 40 0 0 0
SMALL
GASTEIGER

@<TRIPOS>ATOM
      1 C         -30.0210   46.3016   -5.5579 C.ar    1  UNL1        0.1379
      2 C         -30.4238   45.2725   -6.4362 C.ar    1  UNL1        0.0615
      3 BR        -30.0026   45.3501   -8.3024 Br      1  UNL1       -0.0472
      4 C         -31.1689   44.1793   -5.9499 C.ar    1  UNL1        0.0843
      5 C         -31.5062   44.1185   -4.5907 C.ar    1  UNL1        0.2972
      6 N         -31.0983   45.1293   -3.7837 N.ar    1  UNL1       -0.1224
      7 C         -31.2798   45.3035   -2.4677 C.ar    1  UNL1        0.3137
      8 C         -30.6524   46.4981   -2.1259 C.ar    1  UNL1        0.1320
      9 N         -30.0882   47.0533   -3.2283 N.ar    1  UNL1       -0.2940
     10 C         -30.3894   46.1843   -4.2136 C.ar    1  UNL1        0.3128
     11 H         -29.5787   47.8932   -3.2931 H       1  UNL1        0.1718
     12 N         -27.7654   49.6765   -6.8419 N.3     1  UNL1       -0.2647
     13 C         -29.2002   49.8215   -6.5099 C.3     1  UNL1        0.0941
     14 C         -29.9371   48.5011   -6.7411 C.3     1  UNL1        0.1084
     15 N         -29.2562   47.4220   -6.0252 N.pl3   1  UNL1       -0.2984
     16 C         -27.8061   47.2979   -6.1786 C.3     1  UNL1        0.1084
     17 C         -27.1456   48.6612   -5.9650 C.3     1  UNL1        0.0941
     18 C         -27.0611   50.9663   -6.6926 C.3     1  UNL1        0.1200
     19 N         -24.6324   51.3435   -9.4162 N.ar    1  UNL1       -0.3128
     20 C         -23.8991   50.8897   -8.3795 C.ar    1  UNL1        0.1780
     21 N         -24.6356   50.6942   -7.2657 N.ar    1  UNL1       -0.2273
     22 C         -25.8887   51.0380   -7.6283 C.ar    1  UNL1        0.0885
     23 C         -25.8996   51.4143   -8.9608 C.ar    1  UNL1        0.0537
     24 C         -27.0808   51.9058   -9.7467 C.3     1  UNL1        0.0514
     25 C         -22.9453   52.5696  -10.7068 C.3     1  UNL1        0.0265
     26 C         -24.1340   51.6172  -10.7644 C.3     1  UNL1        0.1073
     27 C         -30.5813   47.1123   -0.7773 C.ar    1  UNL1        0.0218
     28 C         -30.4030   46.3000    0.3521 C.ar    1  UNL1        0.0013
     29 C         -30.3335   46.8596    1.6297 C.ar    1  UNL1       -0.0042
     30 C         -30.4398   48.2535    1.8248 C.ar    1  UNL1       -0.0228
     31 C         -30.6192   49.0633    0.6797 C.ar    1  UNL1       -0.0042
     32 C         -30.6884   48.5005   -0.5979 C.ar    1  UNL1        0.0013
     33 C         -30.3578   48.8318    3.2529 C.3     1  UNL1        0.0189
     34 C         -28.8983   48.7640    3.7530 C.3     1  UNL1        0.0044
     35 C         -31.2615   48.0069    4.1950 C.3     1  UNL1        0.0044
     36 C         -30.8151   50.3082    3.3373 C.3     1  UNL1        0.0044
@<TRIPOS>BOND
     1    25    26    1
     2    26    19    1
     3    19    20   ar
     4    20    21   ar
     5    21    22   ar
     6    22    18    1
     7    18    12    1
     8    12    13    1
     9    13    14    1
    10    14    15    1
    11    15     1    1
    12     1     2   ar
    13     2     3    1
    14     2     4   ar
    15     4     5   ar
    16     5     6   ar
    17     6     7   ar
    18     7     8   ar
    19     8    27    1
    20    27    28   ar
    21    28    29   ar
    22    29    30   ar
    23    30    33    1
    24    33    34    1
    25    33    35    1
    26    33    36    1
    27    30    31   ar
    28    31    32   ar
    29     8     9   ar
    30     9    10   ar
    31    15    16    1
    32    16    17    1
    33    22    23   ar
    34    23    24    1
    35    23    19   ar
    36    17    12    1
    37    10     1   ar
    38    10     6   ar
    39    32    27   ar
    40     9    11    1
