@<TRIPOS>MOLECULE
*****
 55 61 0 0 0
SMALL
GASTEIGER

@<TRIPOS>ATOM
      1 C          59.4317   87.2120    9.9900 C.ar    1  UNL1        0.0481
      2 C          58.4444   86.2145    9.9417 C.ar    1  UNL1        0.0176
      3 C          58.1773   85.4269   11.0653 C.ar    1  UNL1        0.0382
      4 C          58.8919   85.6303   12.2617 C.ar    1  UNL1        0.1388
      5 C          59.8779   86.6224   12.3047 C.ar    1  UNL1        0.0382
      6 C          60.1458   87.4091   11.1813 C.ar    1  UNL1        0.0176
      7 N          59.7875   89.8900    6.7767 N.pl3   1  UNL1       -0.3041
      8 C          60.2055   90.3247    8.1148 C.3     1  UNL1        0.1122
      9 C          60.6838   89.1221    8.9290 C.3     1  UNL1        0.1122
     10 N          59.7079   88.0294    8.8370 N.pl3   1  UNL1       -0.3041
     11 C          59.2895   87.5949    7.4988 C.3     1  UNL1        0.1122
     12 C          58.8116   88.7975    6.6843 C.3     1  UNL1        0.1122
     13 C          60.5858   92.2915    3.3512 C.ar    1  UNL1        0.0761
     14 C          59.3221   92.3058    3.9595 C.ar    1  UNL1        0.0192
     15 C          59.0636   91.5215    5.0830 C.ar    1  UNL1        0.0160
     16 C          60.0655   90.7068    5.6236 C.ar    1  UNL1        0.0482
     17 C          61.3387   90.7001    5.0324 C.ar    1  UNL1        0.0224
     18 C          61.6211   91.4990    3.9095 C.ar    1  UNL1        0.0929
     19 N          60.9664   93.6144    0.0079 N.ar    1  UNL1       -0.2024
     20 N          60.8153   94.7412    0.6911 N.ar    1  UNL1       -0.1442
     21 C          60.6972   94.3860    1.9899 C.ar    1  UNL1        0.2073
     22 N          60.7777   93.0470    2.1446 N.ar    1  UNL1       -0.2396
     23 C          60.9193   92.5961    0.8854 C.ar    1  UNL1        0.3522
     24 O          60.9646   91.3769    0.5665 O.2     1  UNL1       -0.2444
     25 C          61.0662   93.5322   -1.4525 C.3     1  UNL1        0.1099
     26 C          59.7206   93.9222   -2.0753 C.3     1  UNL1        0.0265
     27 C          63.5963   93.9062   -1.5370 C.3     1  UNL1        0.0021
     28 C          62.2194   94.4299   -1.9463 C.3     1  UNL1        0.0245
     29 C          63.0093   91.5240    3.3898 C.2     1  UNL1        0.3395
     30 O          63.6158   90.4529    3.1195 O.2     1  UNL1       -0.2450
     31 O          63.6431   92.7418    3.1563 O.3     1  UNL1       -0.4771
     32 H          64.5865   92.7751    2.7886 H       1  UNL1        0.2954
     33 O          58.6645   84.8729   13.4224 O.3     1  UNL1       -0.4727
     34 C          59.1868   83.5682   13.6785 C.3     1  UNL1        0.2374
     35 C          58.9194   82.6260   12.4969 C.3     1  UNL1        0.1909
     36 C          58.9745   81.1768   12.8832 C.3     1  UNL1        0.1783
     37 O          59.5162   80.5117   11.7878 O.3     1  UNL1       -0.3271
     38 C          60.0987   81.5014   10.9615 C.3     1  UNL1        0.2232
     39 O          59.9038   82.7842   11.5281 O.3     1  UNL1       -0.3258
     40 C          59.4875   81.4684    9.5541 C.ar    1  UNL1        0.0404
     41 C          58.3801   80.6225    9.3235 C.ar    1  UNL1        0.0021
     42 C          57.7521   80.5784    8.0784 C.ar    1  UNL1        0.0113
     43 C          58.1997   81.3912    7.0395 C.ar    1  UNL1        0.0585
     44 CL         57.4040   81.3376    5.4771 Cl      1  UNL1       -0.0822
     45 C          59.2710   82.2594    7.2486 C.ar    1  UNL1        0.0226
     46 C          59.9135   82.3173    8.4922 C.ar    1  UNL1        0.0591
     47 CL         61.2132   83.4990    8.6447 Cl      1  UNL1       -0.0824
     48 C          61.6152   81.2528   10.8756 C.3     1  UNL1        0.1338
     49 N          62.3447   82.2035   11.7468 N.3     1  UNL1       -0.2659
     50 C          62.6050   81.6326   13.0813 C.3     1  UNL1        0.0898
     51 C          63.2774   82.6793   13.9733 C.3     1  UNL1        0.0897
     52 N          64.5374   83.1340   13.3560 N.3     1  UNL1       -0.2691
     53 C          65.1856   84.1367   14.2143 C.3     1  UNL1        0.0897
     54 C          64.2761   83.7047   12.0211 C.3     1  UNL1        0.0897
     55 C          63.6022   82.6601   11.1266 C.3     1  UNL1        0.0898
@<TRIPOS>BOND
     1    27    28    1
     2    28    25    1
     3    25    26    1
     4    25    19    1
     5    19    20   ar
     6    20    21   ar
     7    21    22   ar
     8    22    13    1
     9    13    14   ar
    10    14    15   ar
    11    15    16   ar
    12    16     7    1
    13     7     8    1
    14     8     9    1
    15     9    10    1
    16    10     1    1
    17     1     2   ar
    18     2     3   ar
    19     3     4   ar
    20     4    33    1
    21    33    34    1
    22    34    35    1
    23    35    36    1
    24    36    37    1
    25    37    38    1
    26    38    48    1
    27    48    49    1
    28    49    50    1
    29    50    51    1
    30    51    52    1
    31    52    53    1
    32    52    54    1
    33    54    55    1
    34    38    40    1
    35    40    41   ar
    36    41    42   ar
    37    42    43   ar
    38    43    44    1
    39    43    45   ar
    40    45    46   ar
    41    46    47    1
    42    38    39    1
    43     4     5   ar
    44     5     6   ar
    45    10    11    1
    46    11    12    1
    47    16    17   ar
    48    17    18   ar
    49    18    29    1
    50    29    30    2
    51    29    31    1
    52    22    23   ar
    53    23    24    2
    54    23    19   ar
    55    18    13   ar
    56    12     7    1
    57     6     1   ar
    58    39    35    1
    59    55    49    1
    60    46    40   ar
    61    31    32    1
@<TRIPOS>MOLECULE
*****
 55 61 0 0 0
SMALL
GASTEIGER

@<TRIPOS>ATOM
      1 C          58.3694   84.6219   10.7187 C.ar    1  UNL1        0.0481
      2 C          58.3416   84.8124   12.1098 C.ar    1  UNL1        0.0176
      3 C          58.2506   83.7168   12.9734 C.ar    1  UNL1        0.0382
      4 C          58.1925   82.4079   12.4569 C.ar    1  UNL1        0.1388
      5 C          58.2162   82.2223   11.0701 C.ar    1  UNL1        0.0382
      6 C          58.3061   83.3173   10.2066 C.ar    1  UNL1        0.0176
      7 N          59.1764   87.7269    8.0112 N.pl3   1  UNL1       -0.3041
      8 C          58.8943   86.3840    7.4903 C.3     1  UNL1        0.1122
      9 C          57.9673   85.6360    8.4490 C.3     1  UNL1        0.1122
     10 N          58.4678   85.7464    9.8246 N.pl3   1  UNL1       -0.3041
     11 C          58.7503   87.0893   10.3455 C.3     1  UNL1        0.1122
     12 C          59.6769   87.8377    9.3866 C.3     1  UNL1        0.1122
     13 C          59.4780   91.0690    5.3885 C.ar    1  UNL1        0.0761
     14 C          60.6285   90.4576    5.9079 C.ar    1  UNL1        0.0192
     15 C          60.5280   89.3614    6.7636 C.ar    1  UNL1        0.0160
     16 C          59.2729   88.8516    7.1170 C.ar    1  UNL1        0.0482
     17 C          58.1165   89.4456    6.5873 C.ar    1  UNL1        0.0224
     18 C          58.2011   90.5408    5.7085 C.ar    1  UNL1        0.0929
     19 N          60.0006   93.6142    2.8743 N.ar    1  UNL1       -0.2024
     20 N          59.3812   94.3271    3.8058 N.ar    1  UNL1       -0.1442
     21 C          59.1556   93.4873    4.8405 C.ar    1  UNL1        0.2073
     22 N          59.6290   92.2491    4.5836 N.ar    1  UNL1       -0.2396
     23 C          60.1260   92.3580    3.3385 C.ar    1  UNL1        0.3522
     24 O          60.6120   91.3991    2.6794 O.2     1  UNL1       -0.2444
     25 C          60.3768   94.1199    1.5506 C.3     1  UNL1        0.1099
     26 C          61.8301   93.7317    1.2540 C.3     1  UNL1        0.0265
     27 C          60.0777   92.6534   -0.5250 C.3     1  UNL1        0.0021
     28 C          59.3994   93.5753    0.4888 C.3     1  UNL1        0.0245
     29 C          56.9514   91.0625    5.1054 C.2     1  UNL1        0.3395
     30 O          56.9029   92.2287    4.6301 O.2     1  UNL1       -0.2450
     31 O          55.8256   90.2471    5.0222 O.3     1  UNL1       -0.4771
     32 H          54.9687   90.5849    4.6006 H       1  UNL1        0.2954
     33 O          58.1043   81.2698   13.2751 O.3     1  UNL1       -0.4727
     34 C          59.1826   80.3874   13.5898 C.3     1  UNL1        0.2374
     35 C          60.4587   80.7860   12.8362 C.3     1  UNL1        0.1909
     36 C          61.6713   80.0372   13.3068 C.3     1  UNL1        0.1783
     37 O          62.7305   80.9350   13.2184 O.3     1  UNL1       -0.3271
     38 C          62.1592   82.2219   13.0802 C.3     1  UNL1        0.2232
     39 O          60.7467   82.1273   13.0613 O.3     1  UNL1       -0.3258
     40 C          62.6413   82.8990   11.7901 C.ar    1  UNL1        0.0404
     41 C          61.7158   83.6669   11.0493 C.ar    1  UNL1        0.0021
     42 C          62.1015   84.3426    9.8912 C.ar    1  UNL1        0.0113
     43 C          63.4231   84.2860    9.4551 C.ar    1  UNL1        0.0585
     44 CL         63.9059   85.1417    8.0018 Cl      1  UNL1       -0.0822
     45 C          64.3653   83.5613   10.1847 C.ar    1  UNL1        0.0226
     46 C          63.9962   82.8768   11.3500 C.ar    1  UNL1        0.0591
     47 CL         65.2925   82.0497   12.2128 Cl      1  UNL1       -0.0824
     48 C          62.5550   83.0786   14.2962 C.3     1  UNL1        0.1338
     49 N          62.4169   84.5194   13.9800 N.3     1  UNL1       -0.2659
     50 C          61.2499   85.1175   14.6543 C.3     1  UNL1        0.0898
     51 C          61.0949   86.5796   14.2277 C.3     1  UNL1        0.0897
     52 N          62.3190   87.3338   14.5568 N.3     1  UNL1       -0.2691
     53 C          62.1691   88.7391   14.1506 C.3     1  UNL1        0.0897
     54 C          63.4858   86.7346   13.8820 C.3     1  UNL1        0.0897
     55 C          63.6428   85.2713   14.3058 C.3     1  UNL1        0.0898
@<TRIPOS>BOND
     1    27    28    1
     2    28    25    1
     3    25    26    1
     4    25    19    1
     5    19    20   ar
     6    20    21   ar
     7    21    22   ar
     8    22    13    1
     9    13    14   ar
    10    14    15   ar
    11    15    16   ar
    12    16     7    1
    13     7     8    1
    14     8     9    1
    15     9    10    1
    16    10     1    1
    17     1     2   ar
    18     2     3   ar
    19     3     4   ar
    20     4    33    1
    21    33    34    1
    22    34    35    1
    23    35    36    1
    24    36    37    1
    25    37    38    1
    26    38    48    1
    27    48    49    1
    28    49    50    1
    29    50    51    1
    30    51    52    1
    31    52    53    1
    32    52    54    1
    33    54    55    1
    34    38    40    1
    35    40    41   ar
    36    41    42   ar
    37    42    43   ar
    38    43    44    1
    39    43    45   ar
    40    45    46   ar
    41    46    47    1
    42    38    39    1
    43     4     5   ar
    44     5     6   ar
    45    10    11    1
    46    11    12    1
    47    16    17   ar
    48    17    18   ar
    49    18    29    1
    50    29    30    2
    51    29    31    1
    52    22    23   ar
    53    23    24    2
    54    23    19   ar
    55    18    13   ar
    56    12     7    1
    57     6     1   ar
    58    39    35    1
    59    55    49    1
    60    46    40   ar
    61    31    32    1
@<TRIPOS>MOLECULE
*****
 55 61 0 0 0
SMALL
GASTEIGER

@<TRIPOS>ATOM
      1 C          59.1267   87.1217   10.1857 C.ar    1  UNL1        0.0481
      2 C          59.6146   87.4760   11.4540 C.ar    1  UNL1        0.0176
      3 C          59.5196   86.5824   12.5248 C.ar    1  UNL1        0.0382
      4 C          58.9387   85.3126   12.3412 C.ar    1  UNL1        0.1388
      5 C          58.4498   84.9648   11.0770 C.ar    1  UNL1        0.0382
      6 C          58.5437   85.8583   10.0066 C.ar    1  UNL1        0.0176
      7 N          59.9025   89.5398    6.8430 N.pl3   1  UNL1       -0.3041
      8 C          59.4351   88.1644    6.6330 C.3     1  UNL1        0.1122
      9 C          58.5598   87.7254    7.8074 C.3     1  UNL1        0.1122
     10 N          59.2261   88.0365    9.0779 N.pl3   1  UNL1       -0.3041
     11 C          59.6941   89.4118    9.2878 C.3     1  UNL1        0.1122
     12 C          60.5689   89.8512    8.1132 C.3     1  UNL1        0.1122
     13 C          60.1670   92.2315    3.5530 C.ar    1  UNL1        0.0761
     14 C          58.9760   92.1043    4.2828 C.ar    1  UNL1        0.0192
     15 C          58.8923   91.2251    5.3617 C.ar    1  UNL1        0.0160
     16 C          60.0001   90.4549    5.7352 C.ar    1  UNL1        0.0482
     17 C          61.2018   90.5893    5.0221 C.ar    1  UNL1        0.0224
     18 C          61.3082   91.4849    3.9425 C.ar    1  UNL1        0.0929
     19 N          60.0290   93.8241    0.3100 N.ar    1  UNL1       -0.2024
     20 N          60.0199   94.8917    1.0971 N.ar    1  UNL1       -0.1442
     21 C          60.1069   94.4308    2.3648 C.ar    1  UNL1        0.2073
     22 N          60.1780   93.0827    2.3960 N.ar    1  UNL1       -0.2396
     23 C          60.1005   92.7369    1.0985 C.ar    1  UNL1        0.3522
     24 O          60.0626   91.5480    0.6796 O.2     1  UNL1       -0.2444
     25 C          59.8868   93.8629   -1.1487 C.3     1  UNL1        0.1099
     26 C          61.2326   93.5205   -1.7984 C.3     1  UNL1        0.0265
     27 C          57.3663   93.4574   -1.3255 C.3     1  UNL1        0.0021
     28 C          58.7653   92.8990   -1.5876 C.3     1  UNL1        0.0245
     29 C          62.6292   91.6546    3.2914 C.2     1  UNL1        0.3395
     30 O          62.9777   92.7710    2.8218 O.2     1  UNL1       -0.2450
     31 O          63.5176   90.5840    3.2301 O.3     1  UNL1       -0.4771
     32 H          64.4291   90.6883    2.8005 H       1  UNL1        0.2954
     33 O          58.8195   84.3728   13.3780 O.3     1  UNL1       -0.4727
     34 C          59.3355   83.0409   13.3552 C.3     1  UNL1        0.2374
     35 C          60.0885   82.7640   12.0469 C.3     1  UNL1        0.1909
     36 C          60.9957   81.5719   12.1378 C.3     1  UNL1        0.1783
     37 O          62.1037   81.8765   11.3534 O.3     1  UNL1       -0.3271
     38 C          62.0625   83.2713   11.1201 C.3     1  UNL1        0.2232
     39 O          60.9206   83.8344   11.7394 O.3     1  UNL1       -0.3258
     40 C          62.0269   83.5737    9.6158 C.ar    1  UNL1        0.0404
     41 C          63.0811   84.3309    9.0588 C.ar    1  UNL1        0.0021
     42 C          63.1300   84.6037    7.6914 C.ar    1  UNL1        0.0113
     43 C          62.1408   84.1110    6.8435 C.ar    1  UNL1        0.0585
     44 CL         62.2087   84.4509    5.1239 Cl      1  UNL1       -0.0822
     45 C          61.1053   83.3335    7.3618 C.ar    1  UNL1        0.0226
     46 C          61.0401   83.0493    8.7320 C.ar    1  UNL1        0.0591
     47 CL         59.7166   82.0060    9.2504 Cl      1  UNL1       -0.0824
     48 C          63.3064   83.9215   11.7517 C.3     1  UNL1        0.1338
     49 N          62.9635   84.5320   13.0574 N.3     1  UNL1       -0.2659
     50 C          63.6126   83.8265   14.1778 C.3     1  UNL1        0.0898
     51 C          63.1587   84.4333   15.5080 C.3     1  UNL1        0.0897
     52 N          63.4902   85.8700   15.5465 N.3     1  UNL1       -0.2691
     53 C          63.0579   86.4526   16.8256 C.3     1  UNL1        0.0897
     54 C          62.8408   86.5749   14.4251 C.3     1  UNL1        0.0897
     55 C          63.2919   85.9691   13.0929 C.3     1  UNL1        0.0898
@<TRIPOS>BOND
     1    27    28    1
     2    28    25    1
     3    25    26    1
     4    25    19    1
     5    19    20   ar
     6    20    21   ar
     7    21    22   ar
     8    22    13    1
     9    13    14   ar
    10    14    15   ar
    11    15    16   ar
    12    16     7    1
    13     7     8    1
    14     8     9    1
    15     9    10    1
    16    10     1    1
    17     1     2   ar
    18     2     3   ar
    19     3     4   ar
    20     4    33    1
    21    33    34    1
    22    34    35    1
    23    35    36    1
    24    36    37    1
    25    37    38    1
    26    38    48    1
    27    48    49    1
    28    49    50    1
    29    50    51    1
    30    51    52    1
    31    52    53    1
    32    52    54    1
    33    54    55    1
    34    38    40    1
    35    40    41   ar
    36    41    42   ar
    37    42    43   ar
    38    43    44    1
    39    43    45   ar
    40    45    46   ar
    41    46    47    1
    42    38    39    1
    43     4     5   ar
    44     5     6   ar
    45    10    11    1
    46    11    12    1
    47    16    17   ar
    48    17    18   ar
    49    18    29    1
    50    29    30    2
    51    29    31    1
    52    22    23   ar
    53    23    24    2
    54    23    19   ar
    55    18    13   ar
    56    12     7    1
    57     6     1   ar
    58    39    35    1
    59    55    49    1
    60    46    40   ar
    61    31    32    1
@<TRIPOS>MOLECULE
*****
 55 61 0 0 0
SMALL
GASTEIGER

@<TRIPOS>ATOM
      1 C          60.3027   85.6473    8.9156 C.ar    1  UNL1        0.0481
      2 C          58.9058   85.6549    9.0594 C.ar    1  UNL1        0.0176
      3 C          58.1257   84.6645    8.4554 C.ar    1  UNL1        0.0382
      4 C          58.7340   83.6430    7.7005 C.ar    1  UNL1        0.1388
      5 C          60.1259   83.6411    7.5558 C.ar    1  UNL1        0.0382
      6 C          60.9058   84.6316    8.1587 C.ar    1  UNL1        0.0176
      7 N          62.2936   88.5883   11.1537 N.pl3   1  UNL1       -0.3041
      8 C          62.4328   87.1806   11.5452 C.3     1  UNL1        0.1122
      9 C          62.2972   86.2809   10.3163 C.3     1  UNL1        0.1122
     10 N          61.1116   86.6623    9.5395 N.pl3   1  UNL1       -0.3041
     11 C          60.9720   88.0702    9.1482 C.3     1  UNL1        0.1122
     12 C          61.1081   88.9701   10.3769 C.3     1  UNL1        0.1122
     13 C          64.7154   91.5779   12.9804 C.ar    1  UNL1        0.0761
     14 C          64.6391   91.4698   11.5841 C.ar    1  UNL1        0.0192
     15 C          63.8431   90.4927   10.9878 C.ar    1  UNL1        0.0160
     16 C          63.1040   89.6030   11.7765 C.ar    1  UNL1        0.0482
     17 C          63.1598   89.7155   13.1746 C.ar    1  UNL1        0.0224
     18 C          63.9438   90.7071   13.7917 C.ar    1  UNL1        0.0929
     19 N          67.2544   93.4795   14.7152 N.ar    1  UNL1       -0.2024
     20 N          66.8685   94.3711   13.8120 N.ar    1  UNL1       -0.1442
     21 C          65.8747   93.7899   13.1039 C.ar    1  UNL1        0.2073
     22 N          65.6171   92.5411   13.5483 N.ar    1  UNL1       -0.2396
     23 C          66.5137   92.3712   14.5364 C.ar    1  UNL1        0.3522
     24 O          66.6643   91.3001   15.1847 O.2     1  UNL1       -0.2444
     25 C          68.3607   93.6730   15.6576 C.3     1  UNL1        0.1099
     26 C          68.1664   92.7473   16.8642 C.3     1  UNL1        0.0265
     27 C          69.6826   92.1751   14.0584 C.3     1  UNL1        0.0021
     28 C          69.7038   93.4233   14.9412 C.3     1  UNL1        0.0245
     29 C          63.8856   90.8389   15.2672 C.2     1  UNL1        0.3395
     30 O          63.4954   91.9104   15.8038 O.2     1  UNL1       -0.2450
     31 O          64.2254   89.7577   16.0764 O.3     1  UNL1       -0.4771
     32 H          64.1777   89.8281   17.0858 H       1  UNL1        0.2954
     33 O          58.0026   82.6205    7.0744 O.3     1  UNL1       -0.4727
     34 C          57.5682   81.4098    7.6959 C.3     1  UNL1        0.2374
     35 C          58.5085   81.0099    8.8409 C.3     1  UNL1        0.1909
     36 C          57.9382   79.9300    9.7132 C.3     1  UNL1        0.1783
     37 O          58.3762   80.2123   11.0032 O.3     1  UNL1       -0.3271
     38 C          58.8431   81.5478   10.9884 C.3     1  UNL1        0.2232
     39 O          58.7167   82.0926    9.6878 O.3     1  UNL1       -0.3258
     40 C          60.3112   81.6192   11.4298 C.ar    1  UNL1        0.0404
     41 C          61.1988   82.4221   10.6798 C.ar    1  UNL1        0.0021
     42 C          62.5356   82.5635   11.0534 C.ar    1  UNL1        0.0113
     43 C          63.0148   81.9245   12.1946 C.ar    1  UNL1        0.0585
     44 CL         64.6947   82.1093   12.6646 Cl      1  UNL1       -0.0822
     45 C          62.1527   81.1512   12.9718 C.ar    1  UNL1        0.0226
     46 C          60.8074   80.9982   12.6122 C.ar    1  UNL1        0.0591
     47 CL         59.8095   80.0462   13.7107 Cl      1  UNL1       -0.0824
     48 C          57.9735   82.3926   11.9367 C.3     1  UNL1        0.1338
     49 N          58.5579   83.7433   12.1078 N.3     1  UNL1       -0.2659
     50 C          57.5211   84.7918   12.1044 C.3     1  UNL1        0.0898
     51 C          58.1766   86.1725   12.1921 C.3     1  UNL1        0.0897
     52 N          58.9954   86.2656   13.4154 N.3     1  UNL1       -0.2691
     53 C          59.6223   87.5929   13.5020 C.3     1  UNL1        0.0897
     54 C          60.0320   85.2161   13.4180 C.3     1  UNL1        0.0897
     55 C          59.3793   83.8336   13.3291 C.3     1  UNL1        0.0898
@<TRIPOS>BOND
     1    27    28    1
     2    28    25    1
     3    25    26    1
     4    25    19    1
     5    19    20   ar
     6    20    21   ar
     7    21    22   ar
     8    22    13    1
     9    13    14   ar
    10    14    15   ar
    11    15    16   ar
    12    16     7    1
    13     7     8    1
    14     8     9    1
    15     9    10    1
    16    10     1    1
    17     1     2   ar
    18     2     3   ar
    19     3     4   ar
    20     4    33    1
    21    33    34    1
    22    34    35    1
    23    35    36    1
    24    36    37    1
    25    37    38    1
    26    38    48    1
    27    48    49    1
    28    49    50    1
    29    50    51    1
    30    51    52    1
    31    52    53    1
    32    52    54    1
    33    54    55    1
    34    38    40    1
    35    40    41   ar
    36    41    42   ar
    37    42    43   ar
    38    43    44    1
    39    43    45   ar
    40    45    46   ar
    41    46    47    1
    42    38    39    1
    43     4     5   ar
    44     5     6   ar
    45    10    11    1
    46    11    12    1
    47    16    17   ar
    48    17    18   ar
    49    18    29    1
    50    29    30    2
    51    29    31    1
    52    22    23   ar
    53    23    24    2
    54    23    19   ar
    55    18    13   ar
    56    12     7    1
    57     6     1   ar
    58    39    35    1
    59    55    49    1
    60    46    40   ar
    61    31    32    1
@<TRIPOS>MOLECULE
*****
 55 61 0 0 0
SMALL
GASTEIGER

@<TRIPOS>ATOM
      1 C          60.0914   87.3942   10.3168 C.ar    1  UNL1        0.0481
      2 C          59.0570   86.4589   10.4821 C.ar    1  UNL1        0.0176
      3 C          58.9868   85.6770   11.6388 C.ar    1  UNL1        0.0382
      4 C          59.9505   85.8238   12.6552 C.ar    1  UNL1        0.1388
      5 C          60.9823   86.7538   12.4850 C.ar    1  UNL1        0.0382
      6 C          61.0532   87.5349   11.3284 C.ar    1  UNL1        0.0176
      7 N          59.8098   89.9585    7.0050 N.pl3   1  UNL1       -0.3041
      8 C          60.1505   90.5241    8.3158 C.3     1  UNL1        0.1122
      9 C          60.8888   89.4829    9.1578 C.3     1  UNL1        0.1122
     10 N          60.1660   88.2057    9.1294 N.pl3   1  UNL1       -0.3041
     11 C          59.8247   87.6401    7.8186 C.3     1  UNL1        0.1122
     12 C          59.0869   88.6814    6.9762 C.3     1  UNL1        0.1122
     13 C          60.0121   92.3408    3.4804 C.ar    1  UNL1        0.0761
     14 C          58.8196   92.2405    4.2118 C.ar    1  UNL1        0.0192
     15 C          58.7561   91.4629    5.3674 C.ar    1  UNL1        0.0160
     16 C          59.8861   90.7697    5.8175 C.ar    1  UNL1        0.0482
     17 C          61.0889   90.8791    5.1020 C.ar    1  UNL1        0.0224
     18 C          61.1746   91.6738    3.9445 C.ar    1  UNL1        0.0929
     19 N          59.7937   93.6326    0.1106 N.ar    1  UNL1       -0.2024
     20 N          59.8570   94.7676    0.7941 N.ar    1  UNL1       -0.1442
     21 C          59.9812   94.4222    2.0949 C.ar    1  UNL1        0.2073
     22 N          60.0046   93.0809    2.2493 N.ar    1  UNL1       -0.2396
     23 C          59.8592   92.6205    0.9939 C.ar    1  UNL1        0.3522
     24 O          59.7602   91.4007    0.6899 O.2     1  UNL1       -0.2444
     25 C          59.5907   93.5427   -1.3387 C.3     1  UNL1        0.1099
     26 C          60.9107   93.1489   -2.0119 C.3     1  UNL1        0.0265
     27 C          57.0662   93.1545   -1.4962 C.3     1  UNL1        0.0021
     28 C          58.4586   92.5404   -1.6440 C.3     1  UNL1        0.0245
     29 C          62.4949   91.8283    3.2882 C.2     1  UNL1        0.3395
     30 O          62.7303   92.8128    2.5374 O.2     1  UNL1       -0.2450
     31 O          63.5054   90.9014    3.5309 O.3     1  UNL1       -0.4771
     32 H          64.4170   91.0010    3.1005 H       1  UNL1        0.2954
     33 O          59.9290   85.0693   13.8396 O.3     1  UNL1       -0.4727
     34 C          61.0779   84.5902   14.5403 C.3     1  UNL1        0.2374
     35 C          61.8608   83.5807   13.6899 C.3     1  UNL1        0.1909
     36 C          63.1676   84.1265   13.1931 C.3     1  UNL1        0.1783
     37 O          63.3534   83.5764   11.9288 O.3     1  UNL1       -0.3271
     38 C          62.1012   83.0549   11.5269 C.3     1  UNL1        0.2232
     39 O          61.1396   83.2598   12.5455 O.3     1  UNL1       -0.3258
     40 C          62.2061   81.5548   11.2202 C.ar    1  UNL1        0.0404
     41 C          63.0422   81.1442   10.1584 C.ar    1  UNL1        0.0021
     42 C          63.2144   79.7930    9.8560 C.ar    1  UNL1        0.0113
     43 C          62.5738   78.8182   10.6172 C.ar    1  UNL1        0.0585
     44 CL         62.7973   77.1201   10.2379 Cl      1  UNL1       -0.0822
     45 C          61.7676   79.1940   11.6915 C.ar    1  UNL1        0.0226
     46 C          61.5833   80.5458   12.0100 C.ar    1  UNL1        0.0591
     47 CL         60.5907   80.8853   13.4271 Cl      1  UNL1       -0.0824
     48 C          61.6237   83.8096   10.2733 C.3     1  UNL1        0.1338
     49 N          60.7911   82.9260    9.4241 N.3     1  UNL1       -0.2659
     50 C          59.4626   82.6899   10.0189 C.3     1  UNL1        0.0898
     51 C          58.6736   81.7023    9.1554 C.3     1  UNL1        0.0897
     52 N          58.5349   82.2293    7.7847 N.3     1  UNL1       -0.2691
     53 C          57.7738   81.2827    6.9558 C.3     1  UNL1        0.0897
     54 C          59.8643   82.4654    7.1908 C.3     1  UNL1        0.0897
     55 C          60.6567   83.4521    8.0532 C.3     1  UNL1        0.0898
@<TRIPOS>BOND
     1    27    28    1
     2    28    25    1
     3    25    26    1
     4    25    19    1
     5    19    20   ar
     6    20    21   ar
     7    21    22   ar
     8    22    13    1
     9    13    14   ar
    10    14    15   ar
    11    15    16   ar
    12    16     7    1
    13     7     8    1
    14     8     9    1
    15     9    10    1
    16    10     1    1
    17     1     2   ar
    18     2     3   ar
    19     3     4   ar
    20     4    33    1
    21    33    34    1
    22    34    35    1
    23    35    36    1
    24    36    37    1
    25    37    38    1
    26    38    48    1
    27    48    49    1
    28    49    50    1
    29    50    51    1
    30    51    52    1
    31    52    53    1
    32    52    54    1
    33    54    55    1
    34    38    40    1
    35    40    41   ar
    36    41    42   ar
    37    42    43   ar
    38    43    44    1
    39    43    45   ar
    40    45    46   ar
    41    46    47    1
    42    38    39    1
    43     4     5   ar
    44     5     6   ar
    45    10    11    1
    46    11    12    1
    47    16    17   ar
    48    17    18   ar
    49    18    29    1
    50    29    30    2
    51    29    31    1
    52    22    23   ar
    53    23    24    2
    54    23    19   ar
    55    18    13   ar
    56    12     7    1
    57     6     1   ar
    58    39    35    1
    59    55    49    1
    60    46    40   ar
    61    31    32    1
