@<TRIPOS>MOLECULE
*****
 46 51 0 0 0
SMALL
GASTEIGER

@<TRIPOS>ATOM
      1 C         -65.4156  -54.1050  -22.9624 C.ar    1  UNL1        0.1334
      2 C         -64.1432  -53.7166  -22.5123 C.ar    1  UNL1        0.0357
      3 C         -63.4505  -52.7091  -23.1856 C.ar    1  UNL1        0.0191
      4 C         -64.0284  -52.0803  -24.2987 C.ar    1  UNL1        0.0702
      5 C         -65.2837  -52.5188  -24.7366 C.ar    1  UNL1        0.1149
      6 N         -65.9407  -53.5001  -24.0643 N.ar    1  UNL1       -0.2278
      7 C         -66.6136  -54.9508  -20.8898 C.3     1  UNL1        0.1934
      8 C         -67.6192  -56.0522  -20.4877 C.3     1  UNL1        0.0547
      9 C         -68.6244  -56.2930  -21.6288 C.3     1  UNL1        0.0496
     10 C         -67.9026  -56.8124  -22.8975 C.3     1  UNL1        0.0254
     11 C         -66.4177  -56.4136  -22.9690 C.3     1  UNL1        0.0945
     12 N         -66.1675  -55.1351  -22.2862 N.pl3   1  UNL1       -0.2716
     13 C         -67.8706  -53.5427  -19.5195 C.3     1  UNL1        0.1761
     14 O         -67.2464  -53.6842  -20.7777 O.3     1  UNL1       -0.3349
     15 C         -69.7580  -57.2342  -21.1760 C.3     1  UNL1        0.2055
     16 O         -70.9021  -56.4855  -20.7567 O.3     1  UNL1       -0.4755
     17 C         -71.0804  -55.8584  -19.5124 C.ar    1  UNL1        0.1388
     18 C         -70.5551  -56.3726  -18.3118 C.ar    1  UNL1        0.0369
     19 C         -70.7694  -55.7006  -17.1068 C.ar    1  UNL1        0.0033
     20 C         -71.4971  -54.5093  -17.0836 C.ar    1  UNL1        0.0066
     21 C         -72.0156  -53.9716  -18.2728 C.ar    1  UNL1        0.0785
     22 C         -71.7956  -54.6543  -19.4833 C.ar    1  UNL1        0.0433
     23 C         -72.7815  -52.7058  -18.2480 C.2     1  UNL1        0.3381
     24 O         -73.7608  -52.5667  -17.4661 O.2     1  UNL1       -0.2451
     25 O         -72.4270  -51.6542  -19.0894 O.3     1  UNL1       -0.4771
     26 H         -72.9445  -50.7834  -19.0803 H       1  UNL1        0.2954
     27 N         -63.3378  -51.0584  -25.0364 N.am    1  UNL1       -0.2766
     28 C         -63.7913  -49.6976  -25.1463 C.2     1  UNL1        0.2839
     29 O         -64.8128  -49.3118  -24.5177 O.2     1  UNL1       -0.2665
     30 H         -62.4858  -51.3481  -25.5639 H       1  UNL1        0.1553
     31 C         -63.0663  -48.7163  -25.9720 C.ar    1  UNL1        0.1946
     32 O         -62.2075  -47.8555  -25.4543 O.2     1  UNL1       -0.4492
     33 C         -61.7273  -47.1278  -26.4329 C.ar    1  UNL1        0.1452
     34 C         -60.7907  -46.1037  -26.3447 C.ar    1  UNL1        0.0375
     35 C         -60.4165  -45.4479  -27.5307 C.ar    1  UNL1        0.0031
     36 C         -60.9810  -45.8227  -28.7802 C.ar    1  UNL1        0.0002
     37 C         -61.9320  -46.8704  -28.8250 C.ar    1  UNL1        0.0028
     38 C         -62.2778  -47.4995  -27.6290 C.ar    1  UNL1        0.0337
     39 C         -63.1664  -48.5195  -27.3550 C.ar    1  UNL1        0.0202
     40 C         -64.0589  -49.2160  -28.3370 C.3     1  UNL1        0.0345
     41 C         -60.5782  -45.1229  -30.0264 C.ar    1  UNL1        0.0000
     42 C         -61.5142  -44.3665  -30.7573 C.ar    1  UNL1        0.0000
     43 C         -61.1323  -43.7096  -31.9311 C.ar    1  UNL1        0.0000
     44 C         -59.8155  -43.7987  -32.3877 C.ar    1  UNL1        0.0000
     45 C         -58.8776  -44.5456  -31.6716 C.ar    1  UNL1        0.0000
     46 C         -59.2540  -45.2054  -30.4977 C.ar    1  UNL1        0.0000
@<TRIPOS>BOND
     1    13    14    1
     2    14     7    1
     3     7     8    1
     4     8     9    1
     5     9    15    1
     6    15    16    1
     7    16    17    1
     8    17    18   ar
     9    18    19   ar
    10    19    20   ar
    11    20    21   ar
    12    21    23    1
    13    23    24    2
    14    23    25    1
    15    21    22   ar
    16     9    10    1
    17    10    11    1
    18    11    12    1
    19    12     1    1
    20     1     2   ar
    21     2     3   ar
    22     3     4   ar
    23     4    27    1
    24    27    28   am
    25    28    29    2
    26    28    31    1
    27    31    32   ar
    28    32    33   ar
    29    33    34   ar
    30    34    35   ar
    31    35    36   ar
    32    36    41    1
    33    41    42   ar
    34    42    43   ar
    35    43    44   ar
    36    44    45   ar
    37    45    46   ar
    38    36    37   ar
    39    37    38   ar
    40    38    39   ar
    41    39    40    1
    42     4     5   ar
    43     5     6   ar
    44    12     7    1
    45     6     1   ar
    46    22    17   ar
    47    39    31   ar
    48    38    33   ar
    49    46    41   ar
    50    25    26    1
    51    27    30    1
@<TRIPOS>MOLECULE
*****
 46 51 0 0 0
SMALL
GASTEIGER

@<TRIPOS>ATOM
      1 C         -65.4070  -54.1554  -22.9818 C.ar    1  UNL1        0.1334
      2 C         -64.1552  -53.7346  -22.5039 C.ar    1  UNL1        0.0357
      3 C         -63.4635  -52.7252  -23.1754 C.ar    1  UNL1        0.0191
      4 C         -64.0223  -52.1267  -24.3147 C.ar    1  UNL1        0.0702
      5 C         -65.2564  -52.5970  -24.7791 C.ar    1  UNL1        0.1149
      6 N         -65.9129  -53.5796  -24.1080 N.ar    1  UNL1       -0.2278
      7 C         -66.5382  -55.0414  -20.8886 C.3     1  UNL1        0.1934
      8 C         -67.5558  -56.1296  -20.4804 C.3     1  UNL1        0.0547
      9 C         -68.6151  -56.3040  -21.5840 C.3     1  UNL1        0.0496
     10 C         -67.9627  -56.7975  -22.8998 C.3     1  UNL1        0.0254
     11 C         -66.4718  -56.4354  -23.0226 C.3     1  UNL1        0.0945
     12 N         -66.1574  -55.1885  -22.3086 N.pl3   1  UNL1       -0.2716
     13 C         -67.8022  -53.6918  -19.4667 C.3     1  UNL1        0.1761
     14 O         -67.1304  -53.7634  -20.7062 O.3     1  UNL1       -0.3349
     15 C         -69.7539  -57.2305  -21.1142 C.3     1  UNL1        0.2055
     16 O         -69.9271  -57.1432  -19.6972 O.3     1  UNL1       -0.4755
     17 C         -70.6808  -56.1809  -19.0051 C.ar    1  UNL1        0.1388
     18 C         -71.5386  -55.2695  -19.6494 C.ar    1  UNL1        0.0369
     19 C         -72.2601  -54.3359  -18.9027 C.ar    1  UNL1        0.0033
     20 C         -72.1446  -54.3049  -17.5116 C.ar    1  UNL1        0.0066
     21 C         -71.3065  -55.2163  -16.8489 C.ar    1  UNL1        0.0785
     22 C         -70.5827  -56.1541  -17.6079 C.ar    1  UNL1        0.0433
     23 C         -71.1896  -55.1865  -15.3741 C.2     1  UNL1        0.3381
     24 O         -72.2071  -54.9883  -14.6563 O.2     1  UNL1       -0.2451
     25 O         -69.9523  -55.3775  -14.7641 O.3     1  UNL1       -0.4771
     26 H         -69.8612  -55.3591  -13.7554 H       1  UNL1        0.2954
     27 N         -63.3313  -51.1040  -25.0509 N.am    1  UNL1       -0.2766
     28 C         -63.7571  -49.7315  -25.1177 C.2     1  UNL1        0.2839
     29 O         -64.7504  -49.3376  -24.4502 O.2     1  UNL1       -0.2665
     30 H         -62.5021  -51.4005  -25.6101 H       1  UNL1        0.1553
     31 C         -63.0352  -48.7483  -25.9438 C.ar    1  UNL1        0.1946
     32 O         -62.1698  -47.8930  -25.4282 O.2     1  UNL1       -0.4492
     33 C         -61.6946  -47.1617  -26.4066 C.ar    1  UNL1        0.1452
     34 C         -60.7541  -46.1411  -26.3202 C.ar    1  UNL1        0.0375
     35 C         -60.3867  -45.4803  -27.5055 C.ar    1  UNL1        0.0031
     36 C         -60.9618  -45.8467  -28.7527 C.ar    1  UNL1        0.0002
     37 C         -61.9166  -46.8911  -28.7957 C.ar    1  UNL1        0.0028
     38 C         -62.2554  -47.5254  -27.6004 C.ar    1  UNL1        0.0337
     39 C         -63.1452  -48.5439  -27.3250 C.ar    1  UNL1        0.0202
     40 C         -64.0474  -49.2324  -28.3038 C.3     1  UNL1        0.0345
     41 C         -60.5663  -45.1418  -29.9983 C.ar    1  UNL1        0.0000
     42 C         -59.2668  -45.2855  -30.5205 C.ar    1  UNL1        0.0000
     43 C         -58.8969  -44.6195  -31.6931 C.ar    1  UNL1        0.0000
     44 C         -59.8171  -43.8052  -32.3569 C.ar    1  UNL1        0.0000
     45 C         -61.1093  -43.6546  -31.8492 C.ar    1  UNL1        0.0000
     46 C         -61.4844  -44.3174  -30.6765 C.ar    1  UNL1        0.0000
@<TRIPOS>BOND
     1    13    14    1
     2    14     7    1
     3     7     8    1
     4     8     9    1
     5     9    15    1
     6    15    16    1
     7    16    17    1
     8    17    18   ar
     9    18    19   ar
    10    19    20   ar
    11    20    21   ar
    12    21    23    1
    13    23    24    2
    14    23    25    1
    15    21    22   ar
    16     9    10    1
    17    10    11    1
    18    11    12    1
    19    12     1    1
    20     1     2   ar
    21     2     3   ar
    22     3     4   ar
    23     4    27    1
    24    27    28   am
    25    28    29    2
    26    28    31    1
    27    31    32   ar
    28    32    33   ar
    29    33    34   ar
    30    34    35   ar
    31    35    36   ar
    32    36    41    1
    33    41    42   ar
    34    42    43   ar
    35    43    44   ar
    36    44    45   ar
    37    45    46   ar
    38    36    37   ar
    39    37    38   ar
    40    38    39   ar
    41    39    40    1
    42     4     5   ar
    43     5     6   ar
    44    12     7    1
    45     6     1   ar
    46    22    17   ar
    47    39    31   ar
    48    38    33   ar
    49    46    41   ar
    50    25    26    1
    51    27    30    1
@<TRIPOS>MOLECULE
*****
 46 51 0 0 0
SMALL
GASTEIGER

@<TRIPOS>ATOM
      1 C         -65.4338  -53.9832  -22.8365 C.ar    1  UNL1        0.1334
      2 C         -64.0500  -53.8358  -22.6475 C.ar    1  UNL1        0.0357
      3 C         -63.3622  -52.8339  -23.3340 C.ar    1  UNL1        0.0191
      4 C         -64.0528  -51.9717  -24.1989 C.ar    1  UNL1        0.0702
      5 C         -65.4256  -52.1722  -24.3862 C.ar    1  UNL1        0.1149
      6 N         -66.0750  -53.1529  -23.7057 N.ar    1  UNL1       -0.2278
      7 C         -66.7580  -54.7299  -20.8030 C.3     1  UNL1        0.1934
      8 C         -67.7301  -55.8569  -20.3894 C.3     1  UNL1        0.0547
      9 C         -68.6162  -56.2558  -21.5836 C.3     1  UNL1        0.0496
     10 C         -67.7577  -56.8309  -22.7380 C.3     1  UNL1        0.0254
     11 C         -66.2975  -56.3443  -22.7221 C.3     1  UNL1        0.0945
     12 N         -66.1816  -55.0001  -22.1363 N.pl3   1  UNL1       -0.2716
     13 C         -67.8424  -53.0804  -19.5606 C.3     1  UNL1        0.1761
     14 O         -67.4697  -53.5019  -20.8552 O.3     1  UNL1       -0.3349
     15 C         -69.7292  -57.2275  -21.1444 C.3     1  UNL1        0.2055
     16 O         -70.9219  -56.5138  -20.8072 O.3     1  UNL1       -0.4755
     17 C         -72.0686  -56.3774  -21.6069 C.ar    1  UNL1        0.1388
     18 C         -73.3740  -56.5666  -21.1151 C.ar    1  UNL1        0.0369
     19 C         -74.4728  -56.4167  -21.9636 C.ar    1  UNL1        0.0033
     20 C         -74.2869  -56.0687  -23.3029 C.ar    1  UNL1        0.0066
     21 C         -72.9936  -55.8598  -23.8087 C.ar    1  UNL1        0.0785
     22 C         -71.8913  -56.0125  -22.9478 C.ar    1  UNL1        0.0433
     23 C         -72.7982  -55.4850  -25.2267 C.2     1  UNL1        0.3381
     24 O         -71.7796  -54.8315  -25.5804 O.2     1  UNL1       -0.2451
     25 O         -73.7393  -55.8514  -26.1856 O.3     1  UNL1       -0.4771
     26 H         -73.6152  -55.6001  -27.1591 H       1  UNL1        0.2954
     27 N         -63.3783  -50.9453  -24.9453 N.am    1  UNL1       -0.2766
     28 C         -63.8542  -49.5933  -25.0686 C.2     1  UNL1        0.2839
     29 O         -64.8827  -49.2187  -24.4448 O.2     1  UNL1       -0.2665
     30 H         -62.5209  -51.2258  -25.4691 H       1  UNL1        0.1553
     31 C         -63.1444  -48.6080  -25.9026 C.ar    1  UNL1        0.1946
     32 O         -62.3783  -47.6648  -25.3831 O.2     1  UNL1       -0.4492
     33 C         -61.8861  -46.9567  -26.3701 C.ar    1  UNL1        0.1452
     34 C         -61.0261  -45.8674  -26.2830 C.ar    1  UNL1        0.0375
     35 C         -60.6216  -45.2488  -27.4790 C.ar    1  UNL1        0.0031
     36 C         -61.0804  -45.7249  -28.7373 C.ar    1  UNL1        0.0002
     37 C         -61.9560  -46.8365  -28.7807 C.ar    1  UNL1        0.0028
     38 C         -62.3345  -47.4260  -27.5744 C.ar    1  UNL1        0.0337
     39 C         -63.1699  -48.4894  -27.2979 C.ar    1  UNL1        0.0202
     40 C         -63.9511  -49.2949  -28.2912 C.3     1  UNL1        0.0345
     41 C         -60.6467  -45.0636  -29.9941 C.ar    1  UNL1        0.0000
     42 C         -61.5400  -44.2559  -30.7233 C.ar    1  UNL1        0.0000
     43 C         -61.1290  -43.6353  -31.9070 C.ar    1  UNL1        0.0000
     44 C         -59.8252  -43.8124  -32.3753 C.ar    1  UNL1        0.0000
     45 C         -58.9295  -44.6109  -31.6610 C.ar    1  UNL1        0.0000
     46 C         -59.3353  -45.2347  -30.4772 C.ar    1  UNL1        0.0000
@<TRIPOS>BOND
     1    13    14    1
     2    14     7    1
     3     7     8    1
     4     8     9    1
     5     9    15    1
     6    15    16    1
     7    16    17    1
     8    17    18   ar
     9    18    19   ar
    10    19    20   ar
    11    20    21   ar
    12    21    23    1
    13    23    24    2
    14    23    25    1
    15    21    22   ar
    16     9    10    1
    17    10    11    1
    18    11    12    1
    19    12     1    1
    20     1     2   ar
    21     2     3   ar
    22     3     4   ar
    23     4    27    1
    24    27    28   am
    25    28    29    2
    26    28    31    1
    27    31    32   ar
    28    32    33   ar
    29    33    34   ar
    30    34    35   ar
    31    35    36   ar
    32    36    41    1
    33    41    42   ar
    34    42    43   ar
    35    43    44   ar
    36    44    45   ar
    37    45    46   ar
    38    36    37   ar
    39    37    38   ar
    40    38    39   ar
    41    39    40    1
    42     4     5   ar
    43     5     6   ar
    44    12     7    1
    45     6     1   ar
    46    22    17   ar
    47    39    31   ar
    48    38    33   ar
    49    46    41   ar
    50    25    26    1
    51    27    30    1
@<TRIPOS>MOLECULE
*****
 46 51 0 0 0
SMALL
GASTEIGER

@<TRIPOS>ATOM
      1 C         -68.7782  -55.4715  -23.9370 C.ar    1  UNL1        0.1334
      2 C         -67.4875  -55.8968  -24.2916 C.ar    1  UNL1        0.0357
      3 C         -66.4004  -55.0446  -24.0912 C.ar    1  UNL1        0.0191
      4 C         -66.5957  -53.7749  -23.5272 C.ar    1  UNL1        0.0702
      5 C         -67.9012  -53.3749  -23.2182 C.ar    1  UNL1        0.1149
      6 N         -68.9445  -54.2221  -23.4202 N.ar    1  UNL1       -0.2278
      7 C         -70.9149  -56.5052  -23.0358 C.3     1  UNL1        0.1934
      8 C         -72.1727  -57.2339  -23.5583 C.3     1  UNL1        0.0547
      9 C         -72.5768  -56.6715  -24.9334 C.3     1  UNL1        0.0496
     10 C         -71.4649  -56.9282  -25.9813 C.3     1  UNL1        0.0254
     11 C         -70.0641  -57.0960  -25.3657 C.3     1  UNL1        0.0945
     12 N         -69.9258  -56.3281  -24.1189 N.pl3   1  UNL1       -0.2716
     13 C         -71.4732  -55.2516  -21.1497 C.3     1  UNL1        0.1761
     14 O         -71.2913  -55.2250  -22.5493 O.3     1  UNL1       -0.3349
     15 C         -73.9406  -57.2339  -25.3804 C.3     1  UNL1        0.2055
     16 O         -74.8918  -56.1800  -25.5538 O.3     1  UNL1       -0.4755
     17 C         -74.8875  -55.2090  -26.5688 C.ar    1  UNL1        0.1388
     18 C         -74.8474  -55.5311  -27.9386 C.ar    1  UNL1        0.0369
     19 C         -74.8442  -54.5172  -28.8986 C.ar    1  UNL1        0.0033
     20 C         -74.8907  -53.1773  -28.5091 C.ar    1  UNL1        0.0066
     21 C         -74.9474  -52.8358  -27.1481 C.ar    1  UNL1        0.0785
     22 C         -74.9503  -53.8628  -26.1864 C.ar    1  UNL1        0.0433
     23 C         -75.0028  -51.4155  -26.7366 C.2     1  UNL1        0.3381
     24 O         -75.0531  -50.5007  -27.6028 O.2     1  UNL1       -0.2451
     25 O         -75.0001  -51.0754  -25.3861 O.3     1  UNL1       -0.4771
     26 H         -75.0379  -50.1063  -25.0936 H       1  UNL1        0.2954
     27 N         -65.5078  -52.8568  -23.3295 N.am    1  UNL1       -0.2766
     28 C         -64.5322  -52.5342  -24.3362 C.2     1  UNL1        0.2839
     29 O         -64.6356  -53.0049  -25.5003 O.2     1  UNL1       -0.2665
     30 H         -65.3998  -52.4480  -22.3759 H       1  UNL1        0.1553
     31 C         -63.4052  -51.6314  -24.0445 C.ar    1  UNL1        0.1946
     32 O         -62.2512  -52.0720  -23.5748 O.2     1  UNL1       -0.4492
     33 C         -61.4569  -51.0402  -23.4252 C.ar    1  UNL1        0.1452
     34 C         -60.1459  -51.0421  -22.9616 C.ar    1  UNL1        0.0375
     35 C         -59.4741  -49.8099  -22.8773 C.ar    1  UNL1        0.0031
     36 C         -60.1189  -48.6007  -23.2548 C.ar    1  UNL1        0.0002
     37 C         -61.4551  -48.6438  -23.7208 C.ar    1  UNL1        0.0028
     38 C         -62.0893  -49.8840  -23.7930 C.ar    1  UNL1        0.0337
     39 C         -63.3651  -50.2383  -24.1829 C.ar    1  UNL1        0.0202
     40 C         -64.4585  -49.3092  -24.6154 C.3     1  UNL1        0.0345
     41 C         -59.3996  -47.3050  -23.1615 C.ar    1  UNL1        0.0000
     42 C         -59.9570  -46.1354  -23.7125 C.ar    1  UNL1        0.0000
     43 C         -59.2767  -44.9169  -23.6239 C.ar    1  UNL1        0.0000
     44 C         -58.0362  -44.8513  -22.9857 C.ar    1  UNL1        0.0000
     45 C         -57.4729  -46.0043  -22.4349 C.ar    1  UNL1        0.0000
     46 C         -58.1481  -47.2257  -22.5213 C.ar    1  UNL1        0.0000
@<TRIPOS>BOND
     1    13    14    1
     2    14     7    1
     3     7     8    1
     4     8     9    1
     5     9    15    1
     6    15    16    1
     7    16    17    1
     8    17    18   ar
     9    18    19   ar
    10    19    20   ar
    11    20    21   ar
    12    21    23    1
    13    23    24    2
    14    23    25    1
    15    21    22   ar
    16     9    10    1
    17    10    11    1
    18    11    12    1
    19    12     1    1
    20     1     2   ar
    21     2     3   ar
    22     3     4   ar
    23     4    27    1
    24    27    28   am
    25    28    29    2
    26    28    31    1
    27    31    32   ar
    28    32    33   ar
    29    33    34   ar
    30    34    35   ar
    31    35    36   ar
    32    36    41    1
    33    41    42   ar
    34    42    43   ar
    35    43    44   ar
    36    44    45   ar
    37    45    46   ar
    38    36    37   ar
    39    37    38   ar
    40    38    39   ar
    41    39    40    1
    42     4     5   ar
    43     5     6   ar
    44    12     7    1
    45     6     1   ar
    46    22    17   ar
    47    39    31   ar
    48    38    33   ar
    49    46    41   ar
    50    25    26    1
    51    27    30    1
@<TRIPOS>MOLECULE
*****
 46 51 0 0 0
SMALL
GASTEIGER

@<TRIPOS>ATOM
      1 C         -66.9470  -54.9363  -25.7534 C.ar    1  UNL1        0.1334
      2 C         -65.9974  -54.3911  -26.6329 C.ar    1  UNL1        0.0357
      3 C         -65.0251  -53.5172  -26.1439 C.ar    1  UNL1        0.0191
      4 C         -64.9904  -53.1953  -24.7787 C.ar    1  UNL1        0.0702
      5 C         -65.9743  -53.7328  -23.9405 C.ar    1  UNL1        0.1149
      6 N         -66.9102  -54.5832  -24.4382 N.ar    1  UNL1       -0.2278
      7 C         -68.9571  -56.4148  -25.2845 C.3     1  UNL1        0.1934
      8 C         -70.0847  -57.1352  -26.0562 C.3     1  UNL1        0.0547
      9 C         -70.5091  -56.2978  -27.2765 C.3     1  UNL1        0.0496
     10 C         -69.3343  -56.1456  -28.2749 C.3     1  UNL1        0.0254
     11 C         -67.9478  -56.2921  -27.6227 C.3     1  UNL1        0.0945
     12 N         -67.9610  -55.8520  -26.2193 N.pl3   1  UNL1       -0.2716
     13 C         -70.1636  -55.8465  -23.3708 C.3     1  UNL1        0.1761
     14 O         -69.5206  -55.3538  -24.5269 O.3     1  UNL1       -0.3349
     15 C         -71.7670  -56.8905  -27.9418 C.3     1  UNL1        0.2055
     16 O         -72.0588  -56.2144  -29.1678 O.3     1  UNL1       -0.4755
     17 C         -72.9726  -55.1623  -29.3451 C.ar    1  UNL1        0.1388
     18 C         -73.6038  -54.8933  -30.5743 C.ar    1  UNL1        0.0369
     19 C         -74.5025  -53.8303  -30.6845 C.ar    1  UNL1        0.0033
     20 C         -74.7899  -53.0323  -29.5755 C.ar    1  UNL1        0.0066
     21 C         -74.1829  -53.2944  -28.3366 C.ar    1  UNL1        0.0785
     22 C         -73.2785  -54.3672  -28.2331 C.ar    1  UNL1        0.0433
     23 C         -74.4929  -52.4518  -27.1604 C.2     1  UNL1        0.3381
     24 O         -74.6904  -51.2138  -27.2955 O.2     1  UNL1       -0.2451
     25 O         -74.5697  -53.0193  -25.8910 O.3     1  UNL1       -0.4771
     26 H         -74.7814  -52.4515  -25.0792 H       1  UNL1        0.2954
     27 N         -64.0235  -52.2789  -24.2395 N.am    1  UNL1       -0.2766
     28 C         -64.0298  -50.8619  -24.4878 C.2     1  UNL1        0.2839
     29 O         -64.9597  -50.3343  -25.1543 O.2     1  UNL1       -0.2665
     30 H         -63.2438  -52.6874  -23.6797 H       1  UNL1        0.1553
     31 C         -62.9699  -49.9893  -23.9536 C.ar    1  UNL1        0.1946
     32 O         -62.3181  -50.2716  -22.8392 O.2     1  UNL1       -0.4492
     33 C         -61.4425  -49.3185  -22.6322 C.ar    1  UNL1        0.1452
     34 C         -60.5402  -49.2127  -21.5795 C.ar    1  UNL1        0.0375
     35 C         -59.6867  -48.0958  -21.5517 C.ar    1  UNL1        0.0031
     36 C         -59.7477  -47.1063  -22.5703 C.ar    1  UNL1        0.0002
     37 C         -60.6819  -47.2525  -23.6239 C.ar    1  UNL1        0.0028
     38 C         -61.5111  -48.3741  -23.6199 C.ar    1  UNL1        0.0337
     39 C         -62.5098  -48.7771  -24.4832 C.ar    1  UNL1        0.0202
     40 C         -63.0000  -48.0378  -25.6912 C.3     1  UNL1        0.0345
     41 C         -58.8414  -45.9307  -22.5306 C.ar    1  UNL1        0.0000
     42 C         -57.4454  -46.1044  -22.4744 C.ar    1  UNL1        0.0000
     43 C         -56.5945  -44.9954  -22.4360 C.ar    1  UNL1        0.0000
     44 C         -57.1251  -43.7037  -22.4540 C.ar    1  UNL1        0.0000
     45 C         -58.5081  -43.5181  -22.5099 C.ar    1  UNL1        0.0000
     46 C         -59.3638  -44.6233  -22.5475 C.ar    1  UNL1        0.0000
@<TRIPOS>BOND
     1    13    14    1
     2    14     7    1
     3     7     8    1
     4     8     9    1
     5     9    15    1
     6    15    16    1
     7    16    17    1
     8    17    18   ar
     9    18    19   ar
    10    19    20   ar
    11    20    21   ar
    12    21    23    1
    13    23    24    2
    14    23    25    1
    15    21    22   ar
    16     9    10    1
    17    10    11    1
    18    11    12    1
    19    12     1    1
    20     1     2   ar
    21     2     3   ar
    22     3     4   ar
    23     4    27    1
    24    27    28   am
    25    28    29    2
    26    28    31    1
    27    31    32   ar
    28    32    33   ar
    29    33    34   ar
    30    34    35   ar
    31    35    36   ar
    32    36    41    1
    33    41    42   ar
    34    42    43   ar
    35    43    44   ar
    36    44    45   ar
    37    45    46   ar
    38    36    37   ar
    39    37    38   ar
    40    38    39   ar
    41    39    40    1
    42     4     5   ar
    43     5     6   ar
    44    12     7    1
    45     6     1   ar
    46    22    17   ar
    47    39    31   ar
    48    38    33   ar
    49    46    41   ar
    50    25    26    1
    51    27    30    1
