@<TRIPOS>MOLECULE
*****
 45 50 0 0 0
SMALL
GASTEIGER

@<TRIPOS>ATOM
      1 C          12.5479   82.2363   25.1806 C.ar    1  UNL1        0.0702
      2 C          13.3363   82.9278   26.1136 C.ar    1  UNL1        0.0191
      3 C          14.0959   84.0275   25.7112 C.ar    1  UNL1        0.0356
      4 C          14.0470   84.4518   24.3740 C.ar    1  UNL1        0.1318
      5 N          13.2703   83.7682   23.4882 N.ar    1  UNL1       -0.2279
      6 C          12.5229   82.6947   23.8574 C.ar    1  UNL1        0.1149
      7 N          14.8334   85.5683   23.9167 N.pl3   1  UNL1       -0.2932
      8 C          14.8174   86.8171   24.6931 C.3     1  UNL1        0.0923
      9 C          15.4890   87.9679   23.9278 C.3     1  UNL1        0.0252
     10 C          15.0851   87.9227   22.4427 C.3     1  UNL1        0.0472
     11 C          15.5242   86.5925   21.7711 C.3     1  UNL1        0.0252
     12 C          15.7477   85.4467   22.7725 C.3     1  UNL1        0.0923
     13 C          15.6487   89.1439   21.6915 C.3     1  UNL1        0.2054
     14 O          15.5501   88.9677   20.2770 O.3     1  UNL1       -0.4755
     15 C          14.3791   89.1113   19.5147 C.ar    1  UNL1        0.1388
     16 C          13.1222   89.3753   20.0914 C.ar    1  UNL1        0.0369
     17 C          11.9920   89.5062   19.2821 C.ar    1  UNL1        0.0033
     18 C          12.1000   89.3802   17.8957 C.ar    1  UNL1        0.0066
     19 C          13.3474   89.1228   17.3010 C.ar    1  UNL1        0.0785
     20 C          14.4810   88.9924   18.1228 C.ar    1  UNL1        0.0433
     21 C          13.4698   88.9898   15.8324 C.2     1  UNL1        0.3381
     22 O          12.4417   88.9974   15.1024 O.2     1  UNL1       -0.2451
     23 O          14.7237   88.8549   15.2417 O.3     1  UNL1       -0.4771
     24 H          14.8187   88.7631   14.2374 H       1  UNL1        0.2954
     25 C          12.1533   79.7439   25.4591 C.2     1  UNL1        0.2839
     26 O          13.1746   79.4415   24.7852 O.2     1  UNL1       -0.2665
     27 N          11.7329   81.1142   25.5604 N.am    1  UNL1       -0.2766
     28 H          10.7462   81.3043   25.8481 H       1  UNL1        0.1553
     29 C           8.9914   79.2775   25.2181 C.3     1  UNL1        0.0345
     30 C           9.9814   78.4770   26.0097 C.ar    1  UNL1        0.0202
     31 C          11.3615   78.6846   26.1128 C.ar    1  UNL1        0.1946
     32 O          11.8981   77.7712   26.9023 O.2     1  UNL1       -0.4492
     33 C          10.9373   76.9823   27.3170 C.ar    1  UNL1        0.1452
     34 C          11.0523   75.8855   28.1639 C.ar    1  UNL1        0.0375
     35 C           9.8841   75.1711   28.4813 C.ar    1  UNL1        0.0031
     36 C           8.6248   75.5612   27.9505 C.ar    1  UNL1        0.0002
     37 C           8.5515   76.6845   27.0921 C.ar    1  UNL1        0.0028
     38 C           9.7311   77.3706   26.7986 C.ar    1  UNL1        0.0337
     39 C           7.3974   74.7987   28.2927 C.ar    1  UNL1        0.0000
     40 C           6.8025   73.9395   27.3497 C.ar    1  UNL1        0.0005
     41 C           5.6463   73.2232   27.6739 C.ar    1  UNL1        0.0067
     42 C           5.0712   73.3547   28.9408 C.ar    1  UNL1        0.0346
     43 BR          3.4922   72.3745   29.3807 Br      1  UNL1       -0.0490
     44 C           5.6533   74.2045   29.8853 C.ar    1  UNL1        0.0067
     45 C           6.8090   74.9235   29.5653 C.ar    1  UNL1        0.0005
@<TRIPOS>BOND
     1    29    30    1
     2    30    31   ar
     3    31    25    1
     4    25    26    2
     5    25    27   am
     6    27     1    1
     7     1     2   ar
     8     2     3   ar
     9     3     4   ar
    10     4     7    1
    11     7     8    1
    12     8     9    1
    13     9    10    1
    14    10    13    1
    15    13    14    1
    16    14    15    1
    17    15    16   ar
    18    16    17   ar
    19    17    18   ar
    20    18    19   ar
    21    19    21    1
    22    21    22    2
    23    21    23    1
    24    19    20   ar
    25    10    11    1
    26    11    12    1
    27     4     5   ar
    28     5     6   ar
    29    31    32   ar
    30    32    33   ar
    31    33    34   ar
    32    34    35   ar
    33    35    36   ar
    34    36    39    1
    35    39    40   ar
    36    40    41   ar
    37    41    42   ar
    38    42    43    1
    39    42    44   ar
    40    44    45   ar
    41    36    37   ar
    42    37    38   ar
    43    38    30   ar
    44     6     1   ar
    45    38    33   ar
    46    12     7    1
    47    45    39   ar
    48    20    15   ar
    49    27    28    1
    50    23    24    1
@<TRIPOS>MOLECULE
*****
 45 50 0 0 0
SMALL
GASTEIGER

@<TRIPOS>ATOM
      1 C          12.2653   81.8085   25.6790 C.ar    1  UNL1        0.0702
      2 C          13.2568   82.5751   26.3112 C.ar    1  UNL1        0.0191
      3 C          13.9050   83.5955   25.6134 C.ar    1  UNL1        0.0356
      4 C          13.5417   83.8659   24.2847 C.ar    1  UNL1        0.1318
      5 N          12.5729   83.1122   23.6944 N.ar    1  UNL1       -0.2279
      6 C          11.9288   82.1136   24.3541 C.ar    1  UNL1        0.1149
      7 N          14.2030   84.8959   23.5258 N.pl3   1  UNL1       -0.2932
      8 C          14.1359   86.2860   24.0009 C.3     1  UNL1        0.0923
      9 C          14.6600   87.2710   22.9447 C.3     1  UNL1        0.0252
     10 C          14.1653   86.8600   21.5457 C.3     1  UNL1        0.0472
     11 C          14.6668   85.4422   21.1559 C.3     1  UNL1        0.0252
     12 C          15.0477   84.5740   22.3669 C.3     1  UNL1        0.0923
     13 C          14.5773   87.9096   20.4962 C.3     1  UNL1        0.2054
     14 O          13.6741   87.9115   19.3891 O.3     1  UNL1       -0.4755
     15 C          14.0161   87.6387   18.0543 C.ar    1  UNL1        0.1388
     16 C          14.0929   88.6399   17.0675 C.ar    1  UNL1        0.0369
     17 C          14.4364   88.3078   15.7556 C.ar    1  UNL1        0.0033
     18 C          14.7099   86.9820   15.4132 C.ar    1  UNL1        0.0066
     19 C          14.6444   85.9693   16.3858 C.ar    1  UNL1        0.0785
     20 C          14.2978   86.3118   17.7050 C.ar    1  UNL1        0.0433
     21 C          14.9346   84.5625   16.0308 C.2     1  UNL1        0.3381
     22 O          16.0060   84.0160   16.4096 O.2     1  UNL1       -0.2451
     23 O          14.0257   83.8276   15.2736 O.3     1  UNL1       -0.4771
     24 H          14.2147   82.8639   15.0250 H       1  UNL1        0.2954
     25 C          10.8479   80.9564   27.6052 C.2     1  UNL1        0.2839
     26 O          11.0253   82.0038   28.2836 O.2     1  UNL1       -0.2665
     27 N          11.5578   80.7651   26.3706 N.am    1  UNL1       -0.2766
     28 H          11.6360   79.7926   25.9956 H       1  UNL1        0.1553
     29 C           9.3841   78.7024   25.8587 C.3     1  UNL1        0.0345
     30 C           9.2997   78.9173   27.3400 C.ar    1  UNL1        0.0202
     31 C           9.9400   79.9035   28.0988 C.ar    1  UNL1        0.1946
     32 O           9.6212   79.7706   29.3740 O.2     1  UNL1       -0.4492
     33 C           8.8067   78.7496   29.4814 C.ar    1  UNL1        0.1452
     34 C           8.2250   78.2526   30.6425 C.ar    1  UNL1        0.0375
     35 C           7.3766   77.1375   30.5308 C.ar    1  UNL1        0.0031
     36 C           7.1231   76.5387   29.2671 C.ar    1  UNL1        0.0002
     37 C           7.7351   77.0762   28.1092 C.ar    1  UNL1        0.0028
     38 C           8.5714   78.1839   28.2570 C.ar    1  UNL1        0.0337
     39 C           6.2250   75.3608   29.1613 C.ar    1  UNL1        0.0000
     40 C           5.2068   75.1498   30.1101 C.ar    1  UNL1        0.0005
     41 C           4.3630   74.0396   30.0089 C.ar    1  UNL1        0.0067
     42 C           4.5241   73.1285   28.9615 C.ar    1  UNL1        0.0346
     43 BR          3.3696   71.6131   28.8258 Br      1  UNL1       -0.0490
     44 C           5.5315   73.3279   28.0135 C.ar    1  UNL1        0.0067
     45 C           6.3782   74.4363   28.1111 C.ar    1  UNL1        0.0005
@<TRIPOS>BOND
     1    29    30    1
     2    30    31   ar
     3    31    25    1
     4    25    26    2
     5    25    27   am
     6    27     1    1
     7     1     2   ar
     8     2     3   ar
     9     3     4   ar
    10     4     7    1
    11     7     8    1
    12     8     9    1
    13     9    10    1
    14    10    13    1
    15    13    14    1
    16    14    15    1
    17    15    16   ar
    18    16    17   ar
    19    17    18   ar
    20    18    19   ar
    21    19    21    1
    22    21    22    2
    23    21    23    1
    24    19    20   ar
    25    10    11    1
    26    11    12    1
    27     4     5   ar
    28     5     6   ar
    29    31    32   ar
    30    32    33   ar
    31    33    34   ar
    32    34    35   ar
    33    35    36   ar
    34    36    39    1
    35    39    40   ar
    36    40    41   ar
    37    41    42   ar
    38    42    43    1
    39    42    44   ar
    40    44    45   ar
    41    36    37   ar
    42    37    38   ar
    43    38    30   ar
    44     6     1   ar
    45    38    33   ar
    46    12     7    1
    47    45    39   ar
    48    20    15   ar
    49    27    28    1
    50    23    24    1
@<TRIPOS>MOLECULE
*****
 45 50 0 0 0
SMALL
GASTEIGER

@<TRIPOS>ATOM
      1 C          12.6143   82.2734   25.3292 C.ar    1  UNL1        0.0702
      2 C          13.3309   82.9911   26.2996 C.ar    1  UNL1        0.0191
      3 C          14.0973   84.0973   25.9294 C.ar    1  UNL1        0.0356
      4 C          14.1268   84.5017   24.5855 C.ar    1  UNL1        0.1318
      5 N          13.4187   83.7929   23.6628 N.ar    1  UNL1       -0.2279
      6 C          12.6662   82.7125   24.0002 C.ar    1  UNL1        0.1149
      7 N          14.9231   85.6244   24.1620 N.pl3   1  UNL1       -0.2932
      8 C          14.8276   86.8881   24.9080 C.3     1  UNL1        0.0923
      9 C          15.5311   88.0366   24.1684 C.3     1  UNL1        0.0252
     10 C          15.2367   87.9533   22.6593 C.3     1  UNL1        0.0472
     11 C          15.7482   86.6189   22.0500 C.3     1  UNL1        0.0252
     12 C          15.9201   85.4984   23.0894 C.3     1  UNL1        0.0923
     13 C          15.8302   89.1701   21.9244 C.3     1  UNL1        0.2054
     14 O          15.0502   89.5077   20.7759 O.3     1  UNL1       -0.4755
     15 C          14.0171   88.7275   20.2310 C.ar    1  UNL1        0.1388
     16 C          12.6567   88.9672   20.5030 C.ar    1  UNL1        0.0369
     17 C          11.6732   88.1562   19.9334 C.ar    1  UNL1        0.0033
     18 C          12.0307   87.1045   19.0873 C.ar    1  UNL1        0.0066
     19 C          13.3833   86.8533   18.7988 C.ar    1  UNL1        0.0785
     20 C          14.3679   87.6746   19.3763 C.ar    1  UNL1        0.0433
     21 C          13.7695   85.7418   17.9017 C.2     1  UNL1        0.3381
     22 O          14.6509   85.9124   17.0162 O.2     1  UNL1       -0.2451
     23 O          13.1620   84.4950   18.0269 O.3     1  UNL1       -0.4771
     24 H          13.4190   83.7274   17.4178 H       1  UNL1        0.2954
     25 C          12.2086   79.7752   25.5288 C.2     1  UNL1        0.2839
     26 O          13.2284   79.4898   24.8453 O.2     1  UNL1       -0.2665
     27 N          11.7944   81.1435   25.6737 N.am    1  UNL1       -0.2766
     28 H          10.8086   81.3288   25.9676 H       1  UNL1        0.1553
     29 C           9.0248   79.4247   25.4121 C.3     1  UNL1        0.0345
     30 C          10.0226   78.5422   26.0999 C.ar    1  UNL1        0.0202
     31 C          11.4123   78.6993   26.1491 C.ar    1  UNL1        0.1946
     32 O          11.9535   77.7185   26.8495 O.2     1  UNL1       -0.4492
     33 C          10.9866   76.9336   27.2576 C.ar    1  UNL1        0.1452
     34 C          11.1032   75.7791   28.0237 C.ar    1  UNL1        0.0375
     35 C           9.9273   75.0815   28.3498 C.ar    1  UNL1        0.0031
     36 C           8.6588   75.5455   27.9080 C.ar    1  UNL1        0.0002
     37 C           8.5840   76.7259   27.1301 C.ar    1  UNL1        0.0028
     38 C           9.7715   77.3933   26.8254 C.ar    1  UNL1        0.0337
     39 C           7.4232   74.8001   28.2585 C.ar    1  UNL1        0.0000
     40 C           6.8675   74.9018   29.5478 C.ar    1  UNL1        0.0005
     41 C           5.7047   74.1983   29.8758 C.ar    1  UNL1        0.0067
     42 C           5.0828   73.3868   28.9229 C.ar    1  UNL1        0.0346
     43 BR          3.4942   72.4274   29.3739 Br      1  UNL1       -0.0490
     44 C           5.6254   73.2783   27.6396 C.ar    1  UNL1        0.0067
     45 C           6.7886   73.9793   27.3073 C.ar    1  UNL1        0.0005
@<TRIPOS>BOND
     1    29    30    1
     2    30    31   ar
     3    31    25    1
     4    25    26    2
     5    25    27   am
     6    27     1    1
     7     1     2   ar
     8     2     3   ar
     9     3     4   ar
    10     4     7    1
    11     7     8    1
    12     8     9    1
    13     9    10    1
    14    10    13    1
    15    13    14    1
    16    14    15    1
    17    15    16   ar
    18    16    17   ar
    19    17    18   ar
    20    18    19   ar
    21    19    21    1
    22    21    22    2
    23    21    23    1
    24    19    20   ar
    25    10    11    1
    26    11    12    1
    27     4     5   ar
    28     5     6   ar
    29    31    32   ar
    30    32    33   ar
    31    33    34   ar
    32    34    35   ar
    33    35    36   ar
    34    36    39    1
    35    39    40   ar
    36    40    41   ar
    37    41    42   ar
    38    42    43    1
    39    42    44   ar
    40    44    45   ar
    41    36    37   ar
    42    37    38   ar
    43    38    30   ar
    44     6     1   ar
    45    38    33   ar
    46    12     7    1
    47    45    39   ar
    48    20    15   ar
    49    27    28    1
    50    23    24    1
@<TRIPOS>MOLECULE
*****
 45 50 0 0 0
SMALL
GASTEIGER

@<TRIPOS>ATOM
      1 C          11.4799   80.7379   24.6551 C.ar    1  UNL1        0.0702
      2 C          12.8635   80.5232   24.7542 C.ar    1  UNL1        0.0191
      3 C          13.6893   81.5113   25.2927 C.ar    1  UNL1        0.0356
      4 C          13.1246   82.7098   25.7566 C.ar    1  UNL1        0.1318
      5 N          11.7787   82.8928   25.6551 N.ar    1  UNL1       -0.2279
      6 C          10.9555   81.9451   25.1340 C.ar    1  UNL1        0.1149
      7 N          13.9466   83.7609   26.2981 N.pl3   1  UNL1       -0.2932
      8 C          14.3493   83.6951   27.7110 C.3     1  UNL1        0.0923
      9 C          14.9883   85.0115   28.1793 C.3     1  UNL1        0.0252
     10 C          14.2117   86.2107   27.6051 C.3     1  UNL1        0.0472
     11 C          14.2242   86.2088   26.0516 C.3     1  UNL1        0.0252
     12 C          14.4976   84.8226   25.4441 C.3     1  UNL1        0.0923
     13 C          14.7640   87.5333   28.1697 C.3     1  UNL1        0.2054
     14 O          15.1735   88.4098   27.1182 O.3     1  UNL1       -0.4755
     15 C          16.5011   88.6668   26.7383 C.ar    1  UNL1        0.1388
     16 C          17.4373   89.2690   27.6002 C.ar    1  UNL1        0.0369
     17 C          18.7437   89.5014   27.1657 C.ar    1  UNL1        0.0033
     18 C          19.1325   89.1353   25.8756 C.ar    1  UNL1        0.0066
     19 C          18.2138   88.5273   25.0026 C.ar    1  UNL1        0.0785
     20 C          16.8999   88.2965   25.4476 C.ar    1  UNL1        0.0433
     21 C          18.6191   88.1349   23.6347 C.2     1  UNL1        0.3381
     22 O          17.7558   87.7610   22.7951 O.2     1  UNL1       -0.2451
     23 O          19.9601   88.1750   23.2610 O.3     1  UNL1       -0.4771
     24 H          20.2483   87.9084   22.3272 H       1  UNL1        0.2954
     25 C          10.4424   78.4211   24.6890 C.2     1  UNL1        0.2839
     26 O          11.2785   77.9886   25.5272 O.2     1  UNL1       -0.2665
     27 N          10.5930   79.7358   24.1291 N.am    1  UNL1       -0.2766
     28 H          10.0916   79.9492   23.2371 H       1  UNL1        0.1553
     29 C           8.2887   79.0776   22.4078 C.3     1  UNL1        0.0345
     30 C           8.3858   77.8433   23.2531 C.ar    1  UNL1        0.0202
     31 C           9.3275   77.5609   24.2490 C.ar    1  UNL1        0.1946
     32 O           9.0894   76.3712   24.7719 O.2     1  UNL1       -0.4492
     33 C           8.0414   75.8677   24.1672 C.ar    1  UNL1        0.1452
     34 C           7.4436   74.6343   24.4012 C.ar    1  UNL1        0.0375
     35 C           6.3199   74.2885   23.6309 C.ar    1  UNL1        0.0031
     36 C           5.8127   75.1756   22.6432 C.ar    1  UNL1        0.0002
     37 C           6.4508   76.4223   22.4369 C.ar    1  UNL1        0.0028
     38 C           7.5638   76.7331   23.2198 C.ar    1  UNL1        0.0337
     39 C           4.6250   74.7994   21.8353 C.ar    1  UNL1        0.0000
     40 C           3.5241   75.6706   21.7326 C.ar    1  UNL1        0.0005
     41 C           2.4065   75.3137   20.9720 C.ar    1  UNL1        0.0067
     42 C           2.3741   74.0859   20.3052 C.ar    1  UNL1        0.0346
     43 BR          0.8463   73.6015   19.2667 Br      1  UNL1       -0.0490
     44 C           3.4615   73.2130   20.3997 C.ar    1  UNL1        0.0067
     45 C           4.5808   73.5652   21.1599 C.ar    1  UNL1        0.0005
@<TRIPOS>BOND
     1    29    30    1
     2    30    31   ar
     3    31    25    1
     4    25    26    2
     5    25    27   am
     6    27     1    1
     7     1     2   ar
     8     2     3   ar
     9     3     4   ar
    10     4     7    1
    11     7     8    1
    12     8     9    1
    13     9    10    1
    14    10    13    1
    15    13    14    1
    16    14    15    1
    17    15    16   ar
    18    16    17   ar
    19    17    18   ar
    20    18    19   ar
    21    19    21    1
    22    21    22    2
    23    21    23    1
    24    19    20   ar
    25    10    11    1
    26    11    12    1
    27     4     5   ar
    28     5     6   ar
    29    31    32   ar
    30    32    33   ar
    31    33    34   ar
    32    34    35   ar
    33    35    36   ar
    34    36    39    1
    35    39    40   ar
    36    40    41   ar
    37    41    42   ar
    38    42    43    1
    39    42    44   ar
    40    44    45   ar
    41    36    37   ar
    42    37    38   ar
    43    38    30   ar
    44     6     1   ar
    45    38    33   ar
    46    12     7    1
    47    45    39   ar
    48    20    15   ar
    49    27    28    1
    50    23    24    1
@<TRIPOS>MOLECULE
*****
 45 50 0 0 0
SMALL
GASTEIGER

@<TRIPOS>ATOM
      1 C          11.3558   81.2895   25.0550 C.ar    1  UNL1        0.0702
      2 C          12.3363   81.8970   24.2551 C.ar    1  UNL1        0.0191
      3 C          13.2141   82.8299   24.8096 C.ar    1  UNL1        0.0356
      4 C          13.1259   83.1376   26.1763 C.ar    1  UNL1        0.1318
      5 N          12.1699   82.5311   26.9334 N.ar    1  UNL1       -0.2279
      6 C          11.3044   81.6203   26.4150 C.ar    1  UNL1        0.1149
      7 N          13.9995   84.1108   26.7794 N.pl3   1  UNL1       -0.2932
      8 C          14.3697   83.9569   28.1942 C.3     1  UNL1        0.0923
      9 C          15.0782   85.2092   28.7334 C.3     1  UNL1        0.0252
     10 C          14.3871   86.4784   28.2021 C.3     1  UNL1        0.0472
     11 C          14.4299   86.5457   26.6506 C.3     1  UNL1        0.0252
     12 C          14.6305   85.1740   25.9845 C.3     1  UNL1        0.0923
     13 C          15.0076   87.7379   28.8361 C.3     1  UNL1        0.2054
     14 O          15.3535   88.6990   27.8372 O.3     1  UNL1       -0.4755
     15 C          16.6279   88.8674   27.2709 C.ar    1  UNL1        0.1388
     16 C          17.7269   89.3594   28.0005 C.ar    1  UNL1        0.0369
     17 C          18.9702   89.5072   27.3829 C.ar    1  UNL1        0.0033
     18 C          19.1343   89.1649   26.0391 C.ar    1  UNL1        0.0066
     19 C          18.0504   88.6663   25.2958 C.ar    1  UNL1        0.0785
     20 C          16.8013   88.5203   25.9251 C.ar    1  UNL1        0.0433
     21 C          18.2172   88.2999   23.8720 C.2     1  UNL1        0.3381
     22 O          17.3131   88.5651   23.0339 O.2     1  UNL1       -0.2451
     23 O          19.3761   87.6576   23.4433 O.3     1  UNL1       -0.4771
     24 H          19.5003   87.4022   22.4709 H       1  UNL1        0.2954
     25 C          10.4427   78.9244   24.9207 C.2     1  UNL1        0.2839
     26 O          11.4114   78.4448   25.5690 O.2     1  UNL1       -0.2665
     27 N          10.4490   80.3064   24.5270 N.am    1  UNL1       -0.2766
     28 H           9.8135   80.5977   23.7500 H       1  UNL1        0.1553
     29 C           8.5831   79.2379   22.3290 C.3     1  UNL1        0.0345
     30 C           8.5030   78.1889   23.3970 C.ar    1  UNL1        0.0202
     31 C           9.3167   78.0561   24.5278 C.ar    1  UNL1        0.1946
     32 O           8.9396   77.0059   25.2352 O.2     1  UNL1       -0.4492
     33 C           7.9229   76.4511   24.6220 C.ar    1  UNL1        0.1452
     34 C           7.2145   75.3210   25.0152 C.ar    1  UNL1        0.0375
     35 C           6.1510   74.8924   24.2023 C.ar    1  UNL1        0.0031
     36 C           5.8126   75.5957   23.0146 C.ar    1  UNL1        0.0002
     37 C           6.5592   76.7420   22.6504 C.ar    1  UNL1        0.0028
     38 C           7.6082   77.1393   23.4810 C.ar    1  UNL1        0.0337
     39 C           4.6871   75.1333   22.1634 C.ar    1  UNL1        0.0000
     40 C           4.8137   73.9719   21.3783 C.ar    1  UNL1        0.0005
     41 C           3.7528   73.5391   20.5770 C.ar    1  UNL1        0.0067
     42 C           2.5547   74.2580   20.5500 C.ar    1  UNL1        0.0346
     43 BR          1.1073   73.6639   19.4547 Br      1  UNL1       -0.0490
     44 C           2.4174   75.4125   21.3255 C.ar    1  UNL1        0.0067
     45 C           3.4759   75.8497   22.1277 C.ar    1  UNL1        0.0005
@<TRIPOS>BOND
     1    29    30    1
     2    30    31   ar
     3    31    25    1
     4    25    26    2
     5    25    27   am
     6    27     1    1
     7     1     2   ar
     8     2     3   ar
     9     3     4   ar
    10     4     7    1
    11     7     8    1
    12     8     9    1
    13     9    10    1
    14    10    13    1
    15    13    14    1
    16    14    15    1
    17    15    16   ar
    18    16    17   ar
    19    17    18   ar
    20    18    19   ar
    21    19    21    1
    22    21    22    2
    23    21    23    1
    24    19    20   ar
    25    10    11    1
    26    11    12    1
    27     4     5   ar
    28     5     6   ar
    29    31    32   ar
    30    32    33   ar
    31    33    34   ar
    32    34    35   ar
    33    35    36   ar
    34    36    39    1
    35    39    40   ar
    36    40    41   ar
    37    41    42   ar
    38    42    43    1
    39    42    44   ar
    40    44    45   ar
    41    36    37   ar
    42    37    38   ar
    43    38    30   ar
    44     6     1   ar
    45    38    33   ar
    46    12     7    1
    47    45    39   ar
    48    20    15   ar
    49    27    28    1
    50    23    24    1
@<TRIPOS>MOLECULE
*****
 45 50 0 0 0
SMALL
GASTEIGER

@<TRIPOS>ATOM
      1 C          10.6026   80.4023   24.0424 C.ar    1  UNL1        0.0702
      2 C          11.9412   79.9924   24.1445 C.ar    1  UNL1        0.0191
      3 C          12.8858   80.8264   24.7449 C.ar    1  UNL1        0.0356
      4 C          12.4837   82.0657   25.2676 C.ar    1  UNL1        0.1318
      5 N          11.1781   82.4392   25.1617 N.ar    1  UNL1       -0.2279
      6 C          10.2415   81.6438   24.5808 C.ar    1  UNL1        0.1149
      7 N          13.4331   82.9624   25.8745 N.pl3   1  UNL1       -0.2932
      8 C          13.6726   82.8737   27.3227 C.3     1  UNL1        0.0923
      9 C          14.5013   84.0626   27.8332 C.3     1  UNL1        0.0252
     10 C          14.0294   85.3647   27.1603 C.3     1  UNL1        0.0472
     11 C          14.1965   85.3036   25.6170 C.3     1  UNL1        0.0252
     12 C          14.2593   83.8694   25.0651 C.3     1  UNL1        0.0923
     13 C          14.7650   86.5794   27.7572 C.3     1  UNL1        0.2054
     14 O          15.0386   87.5588   26.7535 O.3     1  UNL1       -0.4755
     15 C          16.3016   88.0997   26.4615 C.ar    1  UNL1        0.1388
     16 C          17.0611   88.8151   27.4067 C.ar    1  UNL1        0.0369
     17 C          18.3105   89.3315   27.0577 C.ar    1  UNL1        0.0033
     18 C          18.8176   89.1394   25.7710 C.ar    1  UNL1        0.0066
     19 C          18.0767   88.4227   24.8153 C.ar    1  UNL1        0.0785
     20 C          16.8193   87.9056   25.1745 C.ar    1  UNL1        0.0433
     21 C          18.6084   88.2137   23.4504 C.2     1  UNL1        0.3381
     22 O          17.8371   88.2413   22.4532 O.2     1  UNL1       -0.2451
     23 O          19.9678   87.9841   23.2540 O.3     1  UNL1       -0.4771
     24 H          20.3421   87.8396   22.3238 H       1  UNL1        0.2954
     25 C           9.6718   78.1282   23.4039 C.2     1  UNL1        0.2839
     26 O          10.7597   77.5418   23.6517 O.2     1  UNL1       -0.2665
     27 N           9.5955   79.5623   23.4528 N.am    1  UNL1       -0.2766
     28 H           8.8022   80.0282   22.9566 H       1  UNL1        0.1553
     29 C           7.4169   78.9605   21.2835 C.3     1  UNL1        0.0345
     30 C           7.4960   77.7032   22.0963 C.ar    1  UNL1        0.0202
     31 C           8.4821   77.3440   23.0219 C.ar    1  UNL1        0.1946
     32 O           8.2089   76.1581   23.5361 O.2     1  UNL1       -0.4492
     33 C           7.0960   75.7298   22.9923 C.ar    1  UNL1        0.1452
     34 C           6.4431   74.5277   23.2412 C.ar    1  UNL1        0.0375
     35 C           5.2534   74.2650   22.5403 C.ar    1  UNL1        0.0031
     36 C           4.7362   75.2027   21.6059 C.ar    1  UNL1        0.0002
     37 C           5.4319   76.4151   21.3822 C.ar    1  UNL1        0.0028
     38 C           6.6097   76.6431   22.0957 C.ar    1  UNL1        0.0337
     39 C           3.4785   74.9142   20.8711 C.ar    1  UNL1        0.0000
     40 C           2.8684   75.9058   20.0800 C.ar    1  UNL1        0.0005
     41 C           1.6836   75.6321   19.3898 C.ar    1  UNL1        0.0067
     42 C           1.0948   74.3678   19.4798 C.ar    1  UNL1        0.0346
     43 BR         -0.5233   73.9970   18.5354 Br      1  UNL1       -0.0490
     44 C           1.6917   73.3755   20.2621 C.ar    1  UNL1        0.0067
     45 C           2.8760   73.6448   20.9548 C.ar    1  UNL1        0.0005
@<TRIPOS>BOND
     1    29    30    1
     2    30    31   ar
     3    31    25    1
     4    25    26    2
     5    25    27   am
     6    27     1    1
     7     1     2   ar
     8     2     3   ar
     9     3     4   ar
    10     4     7    1
    11     7     8    1
    12     8     9    1
    13     9    10    1
    14    10    13    1
    15    13    14    1
    16    14    15    1
    17    15    16   ar
    18    16    17   ar
    19    17    18   ar
    20    18    19   ar
    21    19    21    1
    22    21    22    2
    23    21    23    1
    24    19    20   ar
    25    10    11    1
    26    11    12    1
    27     4     5   ar
    28     5     6   ar
    29    31    32   ar
    30    32    33   ar
    31    33    34   ar
    32    34    35   ar
    33    35    36   ar
    34    36    39    1
    35    39    40   ar
    36    40    41   ar
    37    41    42   ar
    38    42    43    1
    39    42    44   ar
    40    44    45   ar
    41    36    37   ar
    42    37    38   ar
    43    38    30   ar
    44     6     1   ar
    45    38    33   ar
    46    12     7    1
    47    45    39   ar
    48    20    15   ar
    49    27    28    1
    50    23    24    1
