@<TRIPOS>MOLECULE
*****
 42 46 0 0 0
SMALL
GASTEIGER

@<TRIPOS>ATOM
      1 C          46.0047   12.2037  -31.5895 C.3     1  UNL1        0.0323
      2 C          46.1517   12.3725  -30.1016 C.ar    1  UNL1       -0.0083
      3 C          45.8324   13.6059  -29.5117 C.ar    1  UNL1       -0.0018
      4 C          45.9612   13.7885  -28.1339 C.ar    1  UNL1        0.0144
      5 C          46.4092   12.7434  -27.3176 C.ar    1  UNL1        0.0518
      6 C          46.6923   11.4956  -27.8969 C.ar    1  UNL1        0.0290
      7 C          46.5862   11.3037  -29.2858 C.ar    1  UNL1        0.0477
      8 N          46.5099   12.9474  -25.8976 N.am    1  UNL1       -0.2803
      9 C          47.5726   12.4105  -25.0915 C.2     1  UNL1        0.2495
     10 O          48.6710   12.1031  -25.6312 O.2     1  UNL1       -0.2698
     11 H          45.8407   13.6132  -25.4495 H       1  UNL1        0.1552
     12 C          47.4117   12.2543  -23.6255 C.ar    1  UNL1        0.0537
     13 C          47.5195   13.3601  -22.7641 C.ar    1  UNL1        0.0042
     14 C          47.3502   13.2057  -21.3853 C.ar    1  UNL1       -0.0028
     15 C          47.0490   11.9476  -20.8399 C.ar    1  UNL1       -0.0061
     16 C          46.9620   10.8389  -21.6970 C.ar    1  UNL1       -0.0028
     17 C          47.1295   10.9919  -23.0756 C.ar    1  UNL1        0.0042
     18 C          46.8522   11.7768  -19.3460 C.3     1  UNL1        0.0992
     19 N          48.0841   11.3974  -18.6168 N.3     1  UNL1       -0.2665
     20 C          48.7316   12.5282  -17.9151 C.3     1  UNL1        0.0899
     21 C          50.1359   12.1389  -17.4341 C.3     1  UNL1        0.0897
     22 N          51.0269   11.7472  -18.5566 N.3     1  UNL1       -0.2691
     23 C          51.9529   12.8341  -18.9105 C.3     1  UNL1        0.0897
     24 C          50.3024   11.2773  -19.7612 C.3     1  UNL1        0.0897
     25 C          49.0142   10.5343  -19.3829 C.3     1  UNL1        0.0899
     26 N          46.8608   10.0117  -29.8577 N.pl3   1  UNL1       -0.2827
     27 H          46.1775    9.6064  -30.5363 H       1  UNL1        0.1551
     28 C          48.0605    9.2688  -29.6001 C.ar    1  UNL1        0.2207
     29 N          48.4690    8.2875  -30.4499 N.ar    1  UNL1       -0.2120
     30 C          49.5922    7.5680  -30.2002 C.ar    1  UNL1        0.1034
     31 C          50.3418    7.8228  -29.0533 C.ar    1  UNL1        0.0400
     32 C          49.9060    8.8237  -28.1739 C.ar    1  UNL1        0.0869
     33 N          48.7766    9.5216  -28.4725 N.ar    1  UNL1       -0.2135
     34 C          50.6680    9.1425  -26.9416 C.ar    1  UNL1        0.0338
     35 C          50.2097    8.6576  -25.7043 C.ar    1  UNL1        0.0043
     36 C          50.9291    8.9066  -24.5369 C.ar    1  UNL1        0.0207
     37 C          52.1106    9.6394  -24.6071 C.ar    1  UNL1        0.0985
     38 N          52.5453   10.1143  -25.8024 N.ar    1  UNL1       -0.2456
     39 CA         51.8640    9.9051  -26.9646 C.ar    1  UNL1        0.0899
     40 C          52.4197   10.4849  -28.2429 C.3     1  UNL1        0.1829
     41 O          53.4160   11.4356  -27.9756 O.3     1  UNL1       -0.3760
     42 H          52.9498   12.2543  -27.6614 H       1  UNL1        0.2110
@<TRIPOS>BOND
     1     1     2    1
     2     2     3   ar
     3     3     4   ar
     4     4     5   ar
     5     5     8    1
     6     8     9   am
     7     9    10    2
     8     9    12    1
     9    12    13   ar
    10    13    14   ar
    11    14    15   ar
    12    15    18    1
    13    18    19    1
    14    19    20    1
    15    20    21    1
    16    21    22    1
    17    22    23    1
    18    22    24    1
    19    24    25    1
    20    15    16   ar
    21    16    17   ar
    22     5     6   ar
    23     6     7   ar
    24     7    26    1
    25    26    28    1
    26    28    29   ar
    27    29    30   ar
    28    30    31   ar
    29    31    32   ar
    30    32    34    1
    31    34    35   ar
    32    35    36   ar
    33    36    37   ar
    34    37    38   ar
    35    38    39   ar
    36    39    40    1
    37    40    41    1
    38    32    33   ar
    39     7     2   ar
    40    33    28   ar
    41    17    12   ar
    42    39    34   ar
    43    25    19    1
    44     8    11    1
    45    26    27    1
    46    41    42    1
@<TRIPOS>MOLECULE
*****
 42 46 0 0 0
SMALL
GASTEIGER

@<TRIPOS>ATOM
      1 C          45.7520   12.0712  -31.6924 C.3     1  UNL1        0.0323
      2 C          46.0424   12.4018  -30.2536 C.ar    1  UNL1       -0.0083
      3 C          45.7944   13.6998  -29.7796 C.ar    1  UNL1       -0.0018
      4 C          46.0563   14.0323  -28.4496 C.ar    1  UNL1        0.0144
      5 C          46.5690   13.0754  -27.5659 C.ar    1  UNL1        0.0518
      6 C          46.7818   11.7650  -28.0243 C.ar    1  UNL1        0.0290
      7 C          46.5413   11.4215  -29.3664 C.ar    1  UNL1        0.0477
      8 N          46.8072   13.4344  -26.1938 N.am    1  UNL1       -0.2803
      9 C          47.8241   14.3632  -25.7809 C.2     1  UNL1        0.2495
     10 O          48.2640   15.2131  -26.6033 O.2     1  UNL1       -0.2698
     11 H          46.1332   13.0903  -25.4732 H       1  UNL1        0.1552
     12 C          48.3323   14.3659  -24.3876 C.ar    1  UNL1        0.0537
     13 C          48.4861   15.5687  -23.6761 C.ar    1  UNL1        0.0042
     14 C          48.9504   15.5597  -22.3579 C.ar    1  UNL1       -0.0028
     15 C          49.2510   14.3481  -21.7155 C.ar    1  UNL1       -0.0061
     16 C          49.1179   13.1480  -22.4320 C.ar    1  UNL1       -0.0028
     17 C          48.6524   13.1552  -23.7493 C.ar    1  UNL1        0.0042
     18 C          49.7434   14.3319  -20.2813 C.3     1  UNL1        0.0992
     19 N          49.7580   12.9849  -19.6658 N.3     1  UNL1       -0.2665
     20 C          48.6905   12.7785  -18.6618 C.3     1  UNL1        0.0899
     21 C          48.9365   11.4924  -17.8615 C.3     1  UNL1        0.0897
     22 N          50.2299   11.5226  -17.1311 N.3     1  UNL1       -0.2691
     23 C          50.0331   11.8231  -15.7045 C.3     1  UNL1        0.0897
     24 C          51.2281   12.4479  -17.7177 C.3     1  UNL1        0.0897
     25 C          51.0986   12.5126  -19.2454 C.3     1  UNL1        0.0899
     26 N          46.7459   10.0682  -29.8117 N.pl3   1  UNL1       -0.2827
     27 H          45.9919    9.6007  -30.3636 H       1  UNL1        0.1551
     28 C          47.9619    9.3379  -29.5979 C.ar    1  UNL1        0.2207
     29 N          48.3600    8.3750  -30.4733 N.ar    1  UNL1       -0.2120
     30 C          49.4990    7.6672  -30.2649 C.ar    1  UNL1        0.1034
     31 C          50.2760    7.9151  -29.1349 C.ar    1  UNL1        0.0400
     32 C          49.8510    8.8967  -28.2289 C.ar    1  UNL1        0.0869
     33 N          48.7048    9.5836  -28.4862 N.ar    1  UNL1       -0.2135
     34 C          50.6420    9.2073  -27.0128 C.ar    1  UNL1        0.0338
     35 C          50.1477    8.8238  -25.7539 C.ar    1  UNL1        0.0043
     36 C          50.8900    9.0656  -24.5993 C.ar    1  UNL1        0.0207
     37 C          52.1300    9.6895  -24.7039 C.ar    1  UNL1        0.0985
     38 N          52.5999   10.0671  -25.9203 N.ar    1  UNL1       -0.2456
     39 CA         51.8991    9.8618  -27.0717 C.ar    1  UNL1        0.0899
     40 C          52.4985   10.3294  -28.3759 C.3     1  UNL1        0.1829
     41 O          53.1373   11.5689  -28.2233 O.3     1  UNL1       -0.3760
     42 H          52.4195   12.2527  -28.1654 H       1  UNL1        0.2110
@<TRIPOS>BOND
     1     1     2    1
     2     2     3   ar
     3     3     4   ar
     4     4     5   ar
     5     5     8    1
     6     8     9   am
     7     9    10    2
     8     9    12    1
     9    12    13   ar
    10    13    14   ar
    11    14    15   ar
    12    15    18    1
    13    18    19    1
    14    19    20    1
    15    20    21    1
    16    21    22    1
    17    22    23    1
    18    22    24    1
    19    24    25    1
    20    15    16   ar
    21    16    17   ar
    22     5     6   ar
    23     6     7   ar
    24     7    26    1
    25    26    28    1
    26    28    29   ar
    27    29    30   ar
    28    30    31   ar
    29    31    32   ar
    30    32    34    1
    31    34    35   ar
    32    35    36   ar
    33    36    37   ar
    34    37    38   ar
    35    38    39   ar
    36    39    40    1
    37    40    41    1
    38    32    33   ar
    39     7     2   ar
    40    33    28   ar
    41    17    12   ar
    42    39    34   ar
    43    25    19    1
    44     8    11    1
    45    26    27    1
    46    41    42    1
@<TRIPOS>MOLECULE
*****
 42 46 0 0 0
SMALL
GASTEIGER

@<TRIPOS>ATOM
      1 C          45.8740   12.4896  -31.8361 C.3     1  UNL1        0.0323
      2 C          46.0168   12.6091  -30.3430 C.ar    1  UNL1       -0.0083
      3 C          45.6726   13.8144  -29.7106 C.ar    1  UNL1       -0.0018
      4 C          45.7970   13.9512  -28.3272 C.ar    1  UNL1        0.0144
      5 C          46.2656   12.8873  -27.5474 C.ar    1  UNL1        0.0518
      6 C          46.5739   11.6665  -28.1698 C.ar    1  UNL1        0.0290
      7 C          46.4723   11.5212  -29.5647 C.ar    1  UNL1        0.0477
      8 N          46.3615   13.0434  -26.1210 N.am    1  UNL1       -0.2803
      9 C          47.6019   12.9791  -25.3967 C.2     1  UNL1        0.2495
     10 O          48.6881   13.2043  -25.9981 O.2     1  UNL1       -0.2698
     11 H          45.5022   13.3311  -25.6007 H       1  UNL1        0.1552
     12 C          47.6196   12.6956  -23.9411 C.ar    1  UNL1        0.0537
     13 C          47.9689   13.6931  -23.0140 C.ar    1  UNL1        0.0042
     14 C          47.9671   13.4208  -21.6431 C.ar    1  UNL1       -0.0028
     15 C          47.5962   12.1528  -21.1680 C.ar    1  UNL1       -0.0061
     16 C          47.2676   11.1498  -22.0940 C.ar    1  UNL1       -0.0028
     17 C          47.2675   11.4209  -23.4646 C.ar    1  UNL1        0.0042
     18 C          47.5805   11.8557  -19.6811 C.3     1  UNL1        0.0992
     19 N          48.6839   12.4957  -18.9285 N.3     1  UNL1       -0.2665
     20 C          49.7485   11.5531  -18.5179 C.3     1  UNL1        0.0899
     21 C          50.6973   12.2097  -17.5061 C.3     1  UNL1        0.0897
     22 N          49.9919   12.6438  -16.2728 N.3     1  UNL1       -0.2691
     23 C          50.2130   11.6982  -15.1677 C.3     1  UNL1        0.0897
     24 C          48.5412   12.8805  -16.4635 C.3     1  UNL1        0.0897
     25 C          48.2454   13.4305  -17.8652 C.3     1  UNL1        0.0899
     26 N          46.7731   10.2558  -30.1811 N.pl3   1  UNL1       -0.2827
     27 H          46.2873   10.0015  -31.0706 H       1  UNL1        0.1551
     28 C          47.7582    9.3425  -29.6782 C.ar    1  UNL1        0.2207
     29 N          47.7934    9.0121  -28.3586 N.ar    1  UNL1       -0.2120
     30 C          48.7359    8.1643  -27.8742 C.ar    1  UNL1        0.1034
     31 C          49.6938    7.6251  -28.7308 C.ar    1  UNL1        0.0400
     32 C          49.6616    7.9829  -30.0857 C.ar    1  UNL1        0.0869
     33 N          48.6923    8.8317  -30.5236 N.ar    1  UNL1       -0.2135
     34 C          50.6521    7.4342  -31.0443 C.ar    1  UNL1        0.0338
     35 C          52.0105    7.7635  -30.8943 C.ar    1  UNL1        0.0043
     36 C          52.9670    7.2283  -31.7550 C.ar    1  UNL1        0.0207
     37 C          52.5651    6.3598  -32.7659 C.ar    1  UNL1        0.0985
     38 N          51.2512    6.0513  -32.9138 N.ar    1  UNL1       -0.2456
     39 CA         50.2831    6.5644  -32.1024 C.ar    1  UNL1        0.0899
     40 C          48.8469    6.1732  -32.3539 C.3     1  UNL1        0.1829
     41 O          48.6852    5.6446  -33.6431 O.3     1  UNL1       -0.3760
     42 H          48.7152    6.4135  -34.2709 H       1  UNL1        0.2110
@<TRIPOS>BOND
     1     1     2    1
     2     2     3   ar
     3     3     4   ar
     4     4     5   ar
     5     5     8    1
     6     8     9   am
     7     9    10    2
     8     9    12    1
     9    12    13   ar
    10    13    14   ar
    11    14    15   ar
    12    15    18    1
    13    18    19    1
    14    19    20    1
    15    20    21    1
    16    21    22    1
    17    22    23    1
    18    22    24    1
    19    24    25    1
    20    15    16   ar
    21    16    17   ar
    22     5     6   ar
    23     6     7   ar
    24     7    26    1
    25    26    28    1
    26    28    29   ar
    27    29    30   ar
    28    30    31   ar
    29    31    32   ar
    30    32    34    1
    31    34    35   ar
    32    35    36   ar
    33    36    37   ar
    34    37    38   ar
    35    38    39   ar
    36    39    40    1
    37    40    41    1
    38    32    33   ar
    39     7     2   ar
    40    33    28   ar
    41    17    12   ar
    42    39    34   ar
    43    25    19    1
    44     8    11    1
    45    26    27    1
    46    41    42    1
@<TRIPOS>MOLECULE
*****
 42 46 0 0 0
SMALL
GASTEIGER

@<TRIPOS>ATOM
      1 C          45.8548   12.0215  -20.3484 C.3     1  UNL1        0.0323
      2 C          46.8452   11.5518  -21.3791 C.ar    1  UNL1       -0.0083
      3 C          47.4961   10.3207  -21.2008 C.ar    1  UNL1       -0.0018
      4 C          48.4199    9.8631  -22.1417 C.ar    1  UNL1        0.0144
      5 C          48.7109   10.6240  -23.2800 C.ar    1  UNL1        0.0518
      6 C          48.0336   11.8376  -23.4833 C.ar    1  UNL1        0.0290
      7 C          47.1155   12.3201  -22.5339 C.ar    1  UNL1        0.0477
      8 N          49.6474   10.1203  -24.2481 N.am    1  UNL1       -0.2803
      9 C          50.7567   10.8838  -24.7520 C.2     1  UNL1        0.2495
     10 O          51.2070   11.8502  -24.0770 O.2     1  UNL1       -0.2698
     11 H          49.5845    9.1111  -24.5118 H       1  UNL1        0.1552
     12 C          51.4088   10.5236  -26.0343 C.ar    1  UNL1        0.0537
     13 C          52.4571   11.3016  -26.5564 C.ar    1  UNL1        0.0042
     14 C          53.0763   10.9449  -27.7575 C.ar    1  UNL1       -0.0028
     15 C          52.6759    9.7923  -28.4519 C.ar    1  UNL1       -0.0061
     16 C          51.6151    9.0265  -27.9424 C.ar    1  UNL1       -0.0028
     17 C          50.9961    9.3808  -26.7411 C.ar    1  UNL1        0.0042
     18 C          53.3526    9.3940  -29.7492 C.3     1  UNL1        0.0992
     19 N          54.4041    8.3637  -29.5871 N.3     1  UNL1       -0.2665
     20 C          55.7599    8.8365  -29.9454 C.3     1  UNL1        0.0899
     21 C          56.7406    7.6597  -30.0381 C.3     1  UNL1        0.0897
     22 N          56.3331    6.6671  -31.0657 N.3     1  UNL1       -0.2691
     23 C          57.1197    6.8191  -32.2996 C.3     1  UNL1        0.0897
     24 C          54.8837    6.6852  -31.3753 C.3     1  UNL1        0.0897
     25 C          54.0523    7.0312  -30.1328 C.3     1  UNL1        0.0899
     26 N          46.4165   13.5558  -22.7706 N.pl3   1  UNL1       -0.2827
     27 H          45.9208   14.0141  -21.9732 H       1  UNL1        0.1551
     28 C          46.4146   14.2370  -24.0329 C.ar    1  UNL1        0.2207
     29 N          45.4145   14.0342  -24.9332 N.ar    1  UNL1       -0.2120
     30 C          45.4185   14.6608  -26.1370 C.ar    1  UNL1        0.1034
     31 C          46.4635   15.5201  -26.4712 C.ar    1  UNL1        0.0400
     32 C          47.4989   15.7113  -25.5458 C.ar    1  UNL1        0.0869
     33 N          47.4453   15.0650  -24.3494 N.ar    1  UNL1       -0.2135
     34 C          48.6328   16.6198  -25.8453 C.ar    1  UNL1        0.0338
     35 C          48.3865   17.9923  -26.0235 C.ar    1  UNL1        0.0043
     36 C          49.4386   18.8741  -26.2639 C.ar    1  UNL1        0.0207
     37 C          50.7398   18.3833  -26.3234 C.ar    1  UNL1        0.0985
     38 N          50.9731   17.0558  -26.1602 N.ar    1  UNL1       -0.2456
     39 CA         49.9711   16.1585  -25.9376 C.ar    1  UNL1        0.0899
     40 C          50.3280   14.6999  -25.7824 C.3     1  UNL1        0.1829
     41 O          50.1874   14.2840  -24.4501 O.3     1  UNL1       -0.3760
     42 H          50.9637   14.6543  -23.9538 H       1  UNL1        0.2110
@<TRIPOS>BOND
     1     1     2    1
     2     2     3   ar
     3     3     4   ar
     4     4     5   ar
     5     5     8    1
     6     8     9   am
     7     9    10    2
     8     9    12    1
     9    12    13   ar
    10    13    14   ar
    11    14    15   ar
    12    15    18    1
    13    18    19    1
    14    19    20    1
    15    20    21    1
    16    21    22    1
    17    22    23    1
    18    22    24    1
    19    24    25    1
    20    15    16   ar
    21    16    17   ar
    22     5     6   ar
    23     6     7   ar
    24     7    26    1
    25    26    28    1
    26    28    29   ar
    27    29    30   ar
    28    30    31   ar
    29    31    32   ar
    30    32    34    1
    31    34    35   ar
    32    35    36   ar
    33    36    37   ar
    34    37    38   ar
    35    38    39   ar
    36    39    40    1
    37    40    41    1
    38    32    33   ar
    39     7     2   ar
    40    33    28   ar
    41    17    12   ar
    42    39    34   ar
    43    25    19    1
    44     8    11    1
    45    26    27    1
    46    41    42    1
@<TRIPOS>MOLECULE
*****
 42 46 0 0 0
SMALL
GASTEIGER

@<TRIPOS>ATOM
      1 C          49.1115    7.6284  -30.9775 C.3     1  UNL1        0.0323
      2 C          49.4205    8.3189  -29.6768 C.ar    1  UNL1       -0.0083
      3 C          50.6857    8.1539  -29.0910 C.ar    1  UNL1       -0.0018
      4 C          50.9970    8.7827  -27.8844 C.ar    1  UNL1        0.0144
      5 C          50.0525    9.5900  -27.2397 C.ar    1  UNL1        0.0518
      6 C          48.7991    9.7903  -27.8410 C.ar    1  UNL1        0.0290
      7 C          48.4652    9.1472  -29.0459 C.ar    1  UNL1        0.0477
      8 N          50.4046   10.2478  -26.0103 N.am    1  UNL1       -0.2803
      9 C          50.3607    9.6052  -24.7248 C.2     1  UNL1        0.2495
     10 O          50.4230    8.3468  -24.6538 O.2     1  UNL1       -0.2698
     11 H          50.8216   11.2042  -26.0683 H       1  UNL1        0.1552
     12 C          50.2882   10.4032  -23.4769 C.ar    1  UNL1        0.0537
     13 C          50.6179   11.7698  -23.4720 C.ar    1  UNL1        0.0042
     14 C          50.5309   12.5173  -22.2942 C.ar    1  UNL1       -0.0028
     15 C          50.0928   11.9207  -21.1012 C.ar    1  UNL1       -0.0061
     16 C          49.7836   10.5511  -21.1002 C.ar    1  UNL1       -0.0028
     17 C          49.8686    9.8029  -22.2771 C.ar    1  UNL1        0.0042
     18 C          49.9849   12.7300  -19.8233 C.3     1  UNL1        0.0992
     19 N          50.2856   11.9582  -18.5956 N.3     1  UNL1       -0.2665
     20 C          49.2428   12.0719  -17.5516 C.3     1  UNL1        0.0899
     21 C          49.7426   11.5011  -16.2177 C.3     1  UNL1        0.0897
     22 N          50.9476   12.2119  -15.7176 N.3     1  UNL1       -0.2691
     23 C          50.6039   13.1649  -14.6510 C.3     1  UNL1        0.0897
     24 C          51.7279   12.8897  -16.7800 C.3     1  UNL1        0.0897
     25 C          51.6739   12.1057  -18.0980 C.3     1  UNL1        0.0899
     26 N          47.1832    9.3817  -29.6567 N.pl3   1  UNL1       -0.2827
     27 H          46.5489    8.5683  -29.8233 H       1  UNL1        0.1551
     28 C          46.6916   10.6865  -29.9936 C.ar    1  UNL1        0.2207
     29 N          46.3748   11.0017  -31.2789 N.ar    1  UNL1       -0.2120
     30 C          45.9285   12.2409  -31.6061 C.ar    1  UNL1        0.1034
     31 C          45.7981   13.2170  -30.6199 C.ar    1  UNL1        0.0400
     32 C          46.1421   12.8901  -29.3009 C.ar    1  UNL1        0.0869
     33 N          46.5785   11.6315  -29.0229 N.ar    1  UNL1       -0.2135
     34 C          46.0167   13.8871  -28.2095 C.ar    1  UNL1        0.0338
     35 C          45.7114   15.2218  -28.5284 C.ar    1  UNL1        0.0043
     36 C          45.5463   16.1697  -27.5201 C.ar    1  UNL1        0.0207
     37 C          45.6838   15.7818  -26.1903 C.ar    1  UNL1        0.0985
     38 N          45.9880   14.4941  -25.8863 N.ar    1  UNL1       -0.2456
     39 CA         46.1716   13.5400  -26.8428 C.ar    1  UNL1        0.0899
     40 C          46.5212   12.1375  -26.4073 C.3     1  UNL1        0.1829
     41 O          45.3975   11.2989  -26.4534 O.3     1  UNL1       -0.3760
     42 H          44.8352   11.5348  -25.6696 H       1  UNL1        0.2110
@<TRIPOS>BOND
     1     1     2    1
     2     2     3   ar
     3     3     4   ar
     4     4     5   ar
     5     5     8    1
     6     8     9   am
     7     9    10    2
     8     9    12    1
     9    12    13   ar
    10    13    14   ar
    11    14    15   ar
    12    15    18    1
    13    18    19    1
    14    19    20    1
    15    20    21    1
    16    21    22    1
    17    22    23    1
    18    22    24    1
    19    24    25    1
    20    15    16   ar
    21    16    17   ar
    22     5     6   ar
    23     6     7   ar
    24     7    26    1
    25    26    28    1
    26    28    29   ar
    27    29    30   ar
    28    30    31   ar
    29    31    32   ar
    30    32    34    1
    31    34    35   ar
    32    35    36   ar
    33    36    37   ar
    34    37    38   ar
    35    38    39   ar
    36    39    40    1
    37    40    41    1
    38    32    33   ar
    39     7     2   ar
    40    33    28   ar
    41    17    12   ar
    42    39    34   ar
    43    25    19    1
    44     8    11    1
    45    26    27    1
    46    41    42    1
@<TRIPOS>MOLECULE
*****
 42 46 0 0 0
SMALL
GASTEIGER

@<TRIPOS>ATOM
      1 C          45.9892   12.0811  -30.9197 C.3     1  UNL1        0.0323
      2 C          46.1887   12.3172  -29.4471 C.ar    1  UNL1       -0.0083
      3 C          45.8080   13.5471  -28.8871 C.ar    1  UNL1       -0.0018
      4 C          45.9835   13.7914  -27.5242 C.ar    1  UNL1        0.0144
      5 C          46.5406   12.8126  -26.6930 C.ar    1  UNL1        0.0518
      6 C          46.8867   11.5662  -27.2402 C.ar    1  UNL1        0.0290
      7 C          46.7339   11.3137  -28.6150 C.ar    1  UNL1        0.0477
      8 N          46.6884   13.0779  -25.2873 N.am    1  UNL1       -0.2803
      9 C          47.8267   12.6586  -24.5153 C.2     1  UNL1        0.2495
     10 O          48.9210   12.4194  -25.0965 O.2     1  UNL1       -0.2698
     11 H          45.9882   13.7048  -24.8306 H       1  UNL1        0.1552
     12 C          47.7455   12.5460  -23.0388 C.ar    1  UNL1        0.0537
     13 C          48.4180   13.4573  -22.2058 C.ar    1  UNL1        0.0042
     14 C          48.3223   13.3528  -20.8154 C.ar    1  UNL1       -0.0028
     15 C          47.5362   12.3489  -20.2277 C.ar    1  UNL1       -0.0061
     16 C          46.8814   11.4255  -21.0583 C.ar    1  UNL1       -0.0028
     17 C          46.9748   11.5295  -22.4484 C.ar    1  UNL1        0.0042
     18 C          47.4191   12.2386  -18.7198 C.3     1  UNL1        0.0992
     19 N          48.6032   12.7418  -17.9864 N.3     1  UNL1       -0.2665
     20 C          49.6053   11.6950  -17.6857 C.3     1  UNL1        0.0899
     21 C          50.6485   12.2106  -16.6852 C.3     1  UNL1        0.0897
     22 N          50.0365   12.6199  -15.3948 N.3     1  UNL1       -0.2691
     23 C          50.2296   11.5922  -14.3600 C.3     1  UNL1        0.0897
     24 C          48.6027   12.9805  -15.4989 C.3     1  UNL1        0.0897
     25 C          48.2899   13.6392  -16.8491 C.3     1  UNL1        0.0899
     26 N          47.0752   10.0230  -29.1528 N.pl3   1  UNL1       -0.2827
     27 H          46.3931    9.5444  -29.7833 H       1  UNL1        0.1551
     28 C          48.3357    9.3770  -28.9261 C.ar    1  UNL1        0.2207
     29 N          48.5929    8.1473  -29.4491 N.ar    1  UNL1       -0.2120
     30 C          49.7761    7.5230  -29.2208 C.ar    1  UNL1        0.1034
     31 C          50.7466    8.1374  -28.4316 C.ar    1  UNL1        0.0400
     32 C          50.4683    9.3967  -27.8825 C.ar    1  UNL1        0.0869
     33 N          49.2694    9.9839  -28.1464 N.ar    1  UNL1       -0.2135
     34 C          51.4668   10.1004  -27.0406 C.ar    1  UNL1        0.0338
     35 C          52.3801   10.9806  -27.6467 C.ar    1  UNL1        0.0043
     36 C          53.3007   11.6865  -26.8744 C.ar    1  UNL1        0.0207
     37 C          53.3065   11.5142  -25.4931 C.ar    1  UNL1        0.0985
     38 N          52.4294   10.6561  -24.9120 N.ar    1  UNL1       -0.2456
     39 CA         51.5229    9.9365  -25.6326 C.ar    1  UNL1        0.0899
     40 C          50.5976    8.9968  -24.8981 C.3     1  UNL1        0.1829
     41 O          49.5414    9.6959  -24.2952 O.3     1  UNL1       -0.3760
     42 H          49.9196   10.1467  -23.4952 H       1  UNL1        0.2110
@<TRIPOS>BOND
     1     1     2    1
     2     2     3   ar
     3     3     4   ar
     4     4     5   ar
     5     5     8    1
     6     8     9   am
     7     9    10    2
     8     9    12    1
     9    12    13   ar
    10    13    14   ar
    11    14    15   ar
    12    15    18    1
    13    18    19    1
    14    19    20    1
    15    20    21    1
    16    21    22    1
    17    22    23    1
    18    22    24    1
    19    24    25    1
    20    15    16   ar
    21    16    17   ar
    22     5     6   ar
    23     6     7   ar
    24     7    26    1
    25    26    28    1
    26    28    29   ar
    27    29    30   ar
    28    30    31   ar
    29    31    32   ar
    30    32    34    1
    31    34    35   ar
    32    35    36   ar
    33    36    37   ar
    34    37    38   ar
    35    38    39   ar
    36    39    40    1
    37    40    41    1
    38    32    33   ar
    39     7     2   ar
    40    33    28   ar
    41    17    12   ar
    42    39    34   ar
    43    25    19    1
    44     8    11    1
    45    26    27    1
    46    41    42    1
@<TRIPOS>MOLECULE
*****
 42 46 0 0 0
SMALL
GASTEIGER

@<TRIPOS>ATOM
      1 C          46.0010   11.9181  -20.2675 C.3     1  UNL1        0.0323
      2 C          47.0245   11.5170  -21.2948 C.ar    1  UNL1       -0.0083
      3 C          47.8240   10.3854  -21.0678 C.ar    1  UNL1       -0.0018
      4 C          48.7814    9.9929  -22.0045 C.ar    1  UNL1        0.0144
      5 C          48.9586   10.7207  -23.1870 C.ar    1  UNL1        0.0518
      6 C          48.1347   11.8304  -23.4375 C.ar    1  UNL1        0.0290
      7 C          47.1801   12.2487  -22.4936 C.ar    1  UNL1        0.0477
      8 N          49.9338   10.2826  -24.1488 N.am    1  UNL1       -0.2803
      9 C          50.7618   11.1816  -24.9062 C.2     1  UNL1        0.2495
     10 O          50.9758   12.3474  -24.4732 O.2     1  UNL1       -0.2698
     11 H          50.1294    9.2584  -24.2166 H       1  UNL1        0.1552
     12 C          51.4054   10.7431  -26.1683 C.ar    1  UNL1        0.0537
     13 C          52.4603   11.4789  -26.7360 C.ar    1  UNL1        0.0042
     14 C          53.0713   11.0488  -27.9172 C.ar    1  UNL1       -0.0028
     15 C          52.6557    9.8638  -28.5450 C.ar    1  UNL1       -0.0061
     16 C          51.5883    9.1396  -27.9904 C.ar    1  UNL1       -0.0028
     17 C          50.9776    9.5673  -26.8089 C.ar    1  UNL1        0.0042
     18 C          53.3234    9.3862  -29.8200 C.3     1  UNL1        0.0992
     19 N          54.3624    8.3532  -29.6038 N.3     1  UNL1       -0.2665
     20 C          55.7322    8.8111  -29.9270 C.3     1  UNL1        0.0899
     21 C          56.7078    7.6272  -29.9650 C.3     1  UNL1        0.0897
     22 N          56.3275    6.6170  -30.9858 N.3     1  UNL1       -0.2691
     23 C          57.1545    6.7402  -32.1962 C.3     1  UNL1        0.0897
     24 C          54.8891    6.6374  -31.3426 C.3     1  UNL1        0.0897
     25 C          54.0201    7.0123  -30.1347 C.3     1  UNL1        0.0899
     26 N          46.3314   13.3758  -22.7781 N.pl3   1  UNL1       -0.2827
     27 H          45.7035   13.7356  -22.0243 H       1  UNL1        0.1551
     28 C          46.3437   14.0834  -24.0257 C.ar    1  UNL1        0.2207
     29 N          45.4048   13.8332  -24.9785 N.ar    1  UNL1       -0.2120
     30 C          45.4240   14.4853  -26.1685 C.ar    1  UNL1        0.1034
     31 C          46.4221   15.4210  -26.4337 C.ar    1  UNL1        0.0400
     32 C          47.3957   15.6615  -25.4543 C.ar    1  UNL1        0.0869
     33 N          47.3289   14.9865  -24.2746 N.ar    1  UNL1       -0.2135
     34 C          48.4774   16.6515  -25.6795 C.ar    1  UNL1        0.0338
     35 C          49.6765   16.2352  -26.2837 C.ar    1  UNL1        0.0043
     36 C          50.6922   17.1528  -26.5453 C.ar    1  UNL1        0.0207
     37 C          50.5078   18.4899  -26.2046 C.ar    1  UNL1        0.0985
     38 N          49.3523   18.8868  -25.6126 N.ar    1  UNL1       -0.2456
     39 CA         48.3405   18.0187  -25.3268 C.ar    1  UNL1        0.0899
     40 C          47.0987   18.5520  -24.6543 C.3     1  UNL1        0.1829
     41 O          46.7732   17.7943  -23.5195 O.3     1  UNL1       -0.3760
     42 H          46.3794   16.9444  -23.8492 H       1  UNL1        0.2110
@<TRIPOS>BOND
     1     1     2    1
     2     2     3   ar
     3     3     4   ar
     4     4     5   ar
     5     5     8    1
     6     8     9   am
     7     9    10    2
     8     9    12    1
     9    12    13   ar
    10    13    14   ar
    11    14    15   ar
    12    15    18    1
    13    18    19    1
    14    19    20    1
    15    20    21    1
    16    21    22    1
    17    22    23    1
    18    22    24    1
    19    24    25    1
    20    15    16   ar
    21    16    17   ar
    22     5     6   ar
    23     6     7   ar
    24     7    26    1
    25    26    28    1
    26    28    29   ar
    27    29    30   ar
    28    30    31   ar
    29    31    32   ar
    30    32    34    1
    31    34    35   ar
    32    35    36   ar
    33    36    37   ar
    34    37    38   ar
    35    38    39   ar
    36    39    40    1
    37    40    41    1
    38    32    33   ar
    39     7     2   ar
    40    33    28   ar
    41    17    12   ar
    42    39    34   ar
    43    25    19    1
    44     8    11    1
    45    26    27    1
    46    41    42    1
@<TRIPOS>MOLECULE
*****
 42 46 0 0 0
SMALL
GASTEIGER

@<TRIPOS>ATOM
      1 C          49.2370    6.9389  -31.3740 C.3     1  UNL1        0.0323
      2 C          49.8109    7.7784  -30.2650 C.ar    1  UNL1       -0.0083
      3 C          51.1650    7.6371  -29.9219 C.ar    1  UNL1       -0.0018
      4 C          51.7213    8.4032  -28.8963 C.ar    1  UNL1        0.0144
      5 C          50.9378    9.3266  -28.1943 C.ar    1  UNL1        0.0518
      6 C          49.5927    9.5004  -28.5595 C.ar    1  UNL1        0.0290
      7 C          49.0143    8.7212  -29.5771 C.ar    1  UNL1        0.0477
      8 N          51.5391   10.1226  -27.1584 N.am    1  UNL1       -0.2803
      9 C          51.1073   10.0992  -25.7872 C.2     1  UNL1        0.2495
     10 O          50.4828    9.0951  -25.3466 O.2     1  UNL1       -0.2698
     11 H          52.4055   10.6578  -27.3924 H       1  UNL1        0.1552
     12 C          51.4249   11.2204  -24.8698 C.ar    1  UNL1        0.0537
     13 C          50.4087   12.0457  -24.3573 C.ar    1  UNL1        0.0042
     14 C          50.7161   13.0898  -23.4805 C.ar    1  UNL1       -0.0028
     15 C          52.0424   13.3187  -23.0808 C.ar    1  UNL1       -0.0061
     16 C          53.0604   12.5085  -23.6085 C.ar    1  UNL1       -0.0028
     17 C          52.7545   11.4634  -24.4838 C.ar    1  UNL1        0.0042
     18 C          52.3800   14.4424  -22.1201 C.3     1  UNL1        0.0992
     19 N          51.8713   14.2312  -20.7453 N.3     1  UNL1       -0.2665
     20 C          52.4285   13.0306  -20.0832 C.3     1  UNL1        0.0899
     21 C          51.6538   12.7077  -18.7985 C.3     1  UNL1        0.0897
     22 N          50.2160   12.4404  -19.0604 N.3     1  UNL1       -0.2691
     23 C          49.9277   10.9979  -19.0466 C.3     1  UNL1        0.0897
     24 C          49.7106   13.0530  -20.3119 C.3     1  UNL1        0.0897
     25 C          50.4051   14.3911  -20.5979 C.3     1  UNL1        0.0899
     26 N          47.6399    8.9289  -29.9505 N.pl3   1  UNL1       -0.2827
     27 H          47.0626    8.1022  -30.2244 H       1  UNL1        0.1551
     28 C          46.9898   10.2067  -29.9054 C.ar    1  UNL1        0.2207
     29 N          46.6795   10.8719  -31.0513 N.ar    1  UNL1       -0.2120
     30 C          46.0828   12.0903  -31.0138 C.ar    1  UNL1        0.1034
     31 C          45.7874   12.6835  -29.7878 C.ar    1  UNL1        0.0400
     32 C          46.1250   11.9999  -28.6115 C.ar    1  UNL1        0.0869
     33 N          46.7163   10.7776  -28.7024 N.ar    1  UNL1       -0.2135
     34 C          45.8280   12.5803  -27.2788 C.ar    1  UNL1        0.0338
     35 C          45.4303   11.7311  -26.2315 C.ar    1  UNL1        0.0043
     36 C          45.1860   12.2443  -24.9591 C.ar    1  UNL1        0.0207
     37 C          45.3424   13.6089  -24.7325 C.ar    1  UNL1        0.0985
     38 N          45.7175   14.4275  -25.7485 N.ar    1  UNL1       -0.2456
     39 CA         45.9521   13.9677  -27.0104 C.ar    1  UNL1        0.0899
     40 C          46.3517   14.9574  -28.0779 C.3     1  UNL1        0.1829
     41 O          47.6599   15.4209  -27.8735 O.3     1  UNL1       -0.3760
     42 H          47.6181   16.0644  -27.1183 H       1  UNL1        0.2110
@<TRIPOS>BOND
     1     1     2    1
     2     2     3   ar
     3     3     4   ar
     4     4     5   ar
     5     5     8    1
     6     8     9   am
     7     9    10    2
     8     9    12    1
     9    12    13   ar
    10    13    14   ar
    11    14    15   ar
    12    15    18    1
    13    18    19    1
    14    19    20    1
    15    20    21    1
    16    21    22    1
    17    22    23    1
    18    22    24    1
    19    24    25    1
    20    15    16   ar
    21    16    17   ar
    22     5     6   ar
    23     6     7   ar
    24     7    26    1
    25    26    28    1
    26    28    29   ar
    27    29    30   ar
    28    30    31   ar
    29    31    32   ar
    30    32    34    1
    31    34    35   ar
    32    35    36   ar
    33    36    37   ar
    34    37    38   ar
    35    38    39   ar
    36    39    40    1
    37    40    41    1
    38    32    33   ar
    39     7     2   ar
    40    33    28   ar
    41    17    12   ar
    42    39    34   ar
    43    25    19    1
    44     8    11    1
    45    26    27    1
    46    41    42    1
@<TRIPOS>MOLECULE
*****
 42 46 0 0 0
SMALL
GASTEIGER

@<TRIPOS>ATOM
      1 C          51.5093    8.5454  -29.9835 C.3     1  UNL1        0.0323
      2 C          51.2850    8.9972  -28.5660 C.ar    1  UNL1       -0.0083
      3 C          52.3907    9.2720  -27.7456 C.ar    1  UNL1       -0.0018
      4 C          52.2096    9.6915  -26.4267 C.ar    1  UNL1        0.0144
      5 C          50.9215    9.8467  -25.9012 C.ar    1  UNL1        0.0518
      6 C          49.8116    9.6112  -26.7291 C.ar    1  UNL1        0.0290
      7 C          49.9795    9.1691  -28.0533 C.ar    1  UNL1        0.0477
      8 N          50.7595   10.3042  -24.5475 N.am    1  UNL1       -0.2803
      9 C          50.3412    9.4535  -23.4664 C.2     1  UNL1        0.2495
     10 O          50.5031    8.2053  -23.5559 O.2     1  UNL1       -0.2698
     11 H          51.0711   11.2747  -24.3176 H       1  UNL1        0.1552
     12 C          49.7623   10.0265  -22.2270 C.ar    1  UNL1        0.0537
     13 C          49.3020    9.1943  -21.1917 C.ar    1  UNL1        0.0042
     14 C          48.7728    9.7439  -20.0206 C.ar    1  UNL1       -0.0028
     15 C          48.7114   11.1361  -19.8501 C.ar    1  UNL1       -0.0061
     16 C          49.1513   11.9680  -20.8921 C.ar    1  UNL1       -0.0028
     17 C          49.6819   11.4202  -22.0627 C.ar    1  UNL1        0.0042
     18 C          48.1496   11.7375  -18.5765 C.3     1  UNL1        0.0992
     19 N          49.1243   12.5528  -17.8158 N.3     1  UNL1       -0.2665
     20 C          50.3750   11.8323  -17.4887 C.3     1  UNL1        0.0899
     21 C          51.2047   12.6180  -16.4643 C.3     1  UNL1        0.0897
     22 N          50.4711   12.8306  -15.1900 N.3     1  UNL1       -0.2691
     23 C          50.9234   11.8951  -14.1485 C.3     1  UNL1        0.0897
     24 C          48.9968   12.7698  -15.3295 C.3     1  UNL1        0.0897
     25 C          48.5421   13.3189  -16.6884 C.3     1  UNL1        0.0899
     26 N          48.8299    8.9532  -28.8921 N.pl3   1  UNL1       -0.2827
     27 H          48.6937    8.0128  -29.3266 H       1  UNL1        0.1551
     28 C          47.8147    9.9414  -29.1165 C.ar    1  UNL1        0.2207
     29 N          47.3775   10.2184  -30.3751 N.ar    1  UNL1       -0.2120
     30 C          46.4318   11.1667  -30.5948 C.ar    1  UNL1        0.1034
     31 C          45.9001   11.8812  -29.5229 C.ar    1  UNL1        0.0400
     32 C          46.3671   11.6022  -28.2310 C.ar    1  UNL1        0.0869
     33 N          47.3119   10.6374  -28.0626 N.ar    1  UNL1       -0.2135
     34 C          45.8319   12.3268  -27.0523 C.ar    1  UNL1        0.0338
     35 C          45.0666   11.6267  -26.1034 C.ar    1  UNL1        0.0043
     36 C          44.5873   12.2732  -24.9656 C.ar    1  UNL1        0.0207
     37 C          44.8760   13.6216  -24.7746 C.ar    1  UNL1        0.0985
     38 N          45.6074   14.2969  -25.6978 N.ar    1  UNL1       -0.2456
     39 CA         46.0825   13.7053  -26.8306 C.ar    1  UNL1        0.0899
     40 C          46.8748   14.5423  -27.8055 C.3     1  UNL1        0.1829
     41 O          46.0332   15.1583  -28.7436 O.3     1  UNL1       -0.3760
     42 H          45.7569   14.4515  -29.3842 H       1  UNL1        0.2110
@<TRIPOS>BOND
     1     1     2    1
     2     2     3   ar
     3     3     4   ar
     4     4     5   ar
     5     5     8    1
     6     8     9   am
     7     9    10    2
     8     9    12    1
     9    12    13   ar
    10    13    14   ar
    11    14    15   ar
    12    15    18    1
    13    18    19    1
    14    19    20    1
    15    20    21    1
    16    21    22    1
    17    22    23    1
    18    22    24    1
    19    24    25    1
    20    15    16   ar
    21    16    17   ar
    22     5     6   ar
    23     6     7   ar
    24     7    26    1
    25    26    28    1
    26    28    29   ar
    27    29    30   ar
    28    30    31   ar
    29    31    32   ar
    30    32    34    1
    31    34    35   ar
    32    35    36   ar
    33    36    37   ar
    34    37    38   ar
    35    38    39   ar
    36    39    40    1
    37    40    41    1
    38    32    33   ar
    39     7     2   ar
    40    33    28   ar
    41    17    12   ar
    42    39    34   ar
    43    25    19    1
    44     8    11    1
    45    26    27    1
    46    41    42    1
