@<TRIPOS>MOLECULE
*****
 43 47 0 0 0
SMALL
GASTEIGER

@<TRIPOS>ATOM
      1 C          -7.4094  -19.8679   20.8436 C.3     1  UNL1        0.1332
      2 N          -6.7647  -18.7889   21.5916 N.ar    1  UNL1       -0.2977
      3 C          -5.4705  -18.3740   21.5255 C.ar    1  UNL1        0.2018
      4 N          -5.1859  -17.3422   22.3625 N.ar    1  UNL1       -0.2133
      5 C          -6.3578  -17.1154   22.9849 C.ar    1  UNL1        0.1061
      6 C          -6.6337  -16.1365   23.9623 C.ar    1  UNL1        0.1018
      7 C          -7.9565  -16.1042   24.5095 C.ar    1  UNL1        0.0950
      8 C          -8.9095  -17.0206   24.0050 C.ar    1  UNL1        0.1403
      9 C          -8.6098  -17.9384   23.0290 C.ar    1  UNL1        0.0327
     10 C          -7.3109  -17.9861   22.5243 C.ar    1  UNL1        0.0791
     11 C          -9.8058  -18.7709   22.7246 C.3     1  UNL1        0.0709
     12 C         -10.8737  -18.2125   23.7216 C.3     1  UNL1        0.1375
     13 C         -11.3099  -19.2852   24.7289 C.3     1  UNL1        0.0439
     14 C         -12.0927  -17.6477   22.9801 C.3     1  UNL1        0.0439
     15 O         -10.2183  -17.1530   24.4217 O.3     1  UNL1       -0.4824
     16 C          -5.5819  -15.1659   24.3427 C.2     1  UNL1        0.3398
     17 O          -5.2517  -15.0412   25.5516 O.2     1  UNL1       -0.2450
     18 O          -4.9178  -14.4094   23.3799 O.3     1  UNL1       -0.4771
     19 H          -5.0832  -14.5457   22.3902 H       1  UNL1        0.2954
     20 C          -8.3399  -15.2051   25.6211 C.2     1  UNL1        0.2527
     21 O          -9.3542  -14.4656   25.4982 O.2     1  UNL1       -0.2697
     22 N          -7.6146  -15.2311   26.8608 N.am    1  UNL1       -0.2803
     23 H          -7.0773  -16.0976   27.0916 H       1  UNL1        0.1552
     24 C          -7.6724  -14.1867   27.8474 C.ar    1  UNL1        0.0505
     25 C          -6.5225  -13.4309   28.1151 C.ar    1  UNL1        0.0147
     26 C          -6.5551  -12.4063   29.0628 C.ar    1  UNL1        0.0012
     27 C          -7.7421  -12.1096   29.7358 C.ar    1  UNL1        0.0039
     28 C          -8.9196  -12.8201   29.4462 C.ar    1  UNL1        0.0726
     29 C          -8.8722  -13.8701   28.5113 C.ar    1  UNL1        0.0185
     30 C         -10.1969  -12.5226   30.1914 C.3     1  UNL1        0.4186
     31 F         -11.1193  -11.9192   29.3540 F       1  UNL1       -0.1659
     32 F          -9.9589  -11.6709   31.2564 F       1  UNL1       -0.1659
     33 F         -10.7293  -13.7047   30.6709 F       1  UNL1       -0.1659
     34 N          -4.4746  -18.9894   20.6947 N.pl3   1  UNL1       -0.2814
     35 H          -4.6636  -19.9389   20.3048 H       1  UNL1        0.1551
     36 C          -3.1268  -18.4998   20.6366 C.ar    1  UNL1        0.0889
     37 C          -2.0802  -19.3091   21.1093 C.ar    1  UNL1        0.1543
     38 F          -2.3438  -20.5339   21.6303 F       1  UNL1       -0.2028
     39 C          -0.7602  -18.8507   21.0681 C.ar    1  UNL1        0.0310
     40 C          -0.4725  -17.5894   20.5433 C.ar    1  UNL1        0.0033
     41 C          -1.5022  -16.7865   20.0478 C.ar    1  UNL1        0.0128
     42 C          -2.8282  -17.2351   20.0841 C.ar    1  UNL1        0.0733
     43 CL         -4.0745  -16.2240   19.3616 Cl      1  UNL1       -0.0809
@<TRIPOS>BOND
     1     1     2    1
     2     2     3   ar
     3     3    34    1
     4    34    36    1
     5    36    37   ar
     6    37    38    1
     7    37    39   ar
     8    39    40   ar
     9    40    41   ar
    10    41    42   ar
    11    42    43    1
    12     3     4   ar
    13     4     5   ar
    14     5     6   ar
    15     6    16    1
    16    16    17    2
    17    16    18    1
    18     6     7   ar
    19     7    20    1
    20    20    21    2
    21    20    22   am
    22    22    24    1
    23    24    25   ar
    24    25    26   ar
    25    26    27   ar
    26    27    28   ar
    27    28    30    1
    28    30    31    1
    29    30    32    1
    30    30    33    1
    31    28    29   ar
    32     7     8   ar
    33     8     9   ar
    34     9    10   ar
    35     9    11    1
    36    11    12    1
    37    12    13    1
    38    12    14    1
    39    12    15    1
    40    10     2   ar
    41    42    36   ar
    42    10     5   ar
    43    29    24   ar
    44    15     8    1
    45    34    35    1
    46    18    19    1
    47    22    23    1
@<TRIPOS>MOLECULE
*****
 43 47 0 0 0
SMALL
GASTEIGER

@<TRIPOS>ATOM
      1 C          -7.5814  -18.9369   20.5703 C.3     1  UNL1        0.1332
      2 N          -6.9094  -18.0298   21.5004 N.ar    1  UNL1       -0.2977
      3 C          -5.6591  -17.5011   21.4068 C.ar    1  UNL1        0.2018
      4 N          -5.3300  -16.6931   22.4484 N.ar    1  UNL1       -0.2133
      5 C          -6.4253  -16.7332   23.2301 C.ar    1  UNL1        0.1061
      6 C          -6.6307  -16.0603   24.4527 C.ar    1  UNL1        0.1018
      7 C          -7.8739  -16.2820   25.1277 C.ar    1  UNL1        0.0950
      8 C          -8.8297  -17.1204   24.5065 C.ar    1  UNL1        0.1403
      9 C          -8.6041  -17.7327   23.2987 C.ar    1  UNL1        0.0327
     10 C          -7.3783  -17.5387   22.6631 C.ar    1  UNL1        0.0791
     11 C          -9.7801  -18.5620   22.9175 C.3     1  UNL1        0.0709
     12 C         -10.7439  -18.3679   24.1339 C.3     1  UNL1        0.1375
     13 C         -10.9891  -19.6937   24.8672 C.3     1  UNL1        0.0439
     14 C         -12.0762  -17.7422   23.7001 C.3     1  UNL1        0.0439
     15 O         -10.0663  -17.4666   25.0119 O.3     1  UNL1       -0.4824
     16 C          -5.5956  -15.1297   24.9583 C.2     1  UNL1        0.3398
     17 O          -5.2622  -14.1292   24.2700 O.2     1  UNL1       -0.2450
     18 O          -5.0057  -15.3177   26.2061 O.3     1  UNL1       -0.4771
     19 H          -5.3110  -16.0522   26.8327 H       1  UNL1        0.2954
     20 C          -8.1645  -15.7291   26.4697 C.2     1  UNL1        0.2527
     21 O          -8.9611  -16.3407   27.2326 O.2     1  UNL1       -0.2697
     22 N          -7.4850  -14.5516   26.9339 N.am    1  UNL1       -0.2803
     23 H          -6.5689  -14.3125   26.4907 H       1  UNL1        0.1552
     24 C          -7.9327  -13.7491   28.0398 C.ar    1  UNL1        0.0505
     25 C          -9.2468  -13.8943   28.5056 C.ar    1  UNL1        0.0147
     26 C          -9.7030  -13.1324   29.5829 C.ar    1  UNL1        0.0012
     27 C          -8.8447  -12.2351   30.2218 C.ar    1  UNL1        0.0039
     28 C          -7.5084  -12.1107   29.8047 C.ar    1  UNL1        0.0726
     29 C          -7.0642  -12.8603   28.7003 C.ar    1  UNL1        0.0185
     30 C          -6.5860  -11.1218   30.4729 C.3     1  UNL1        0.4186
     31 F          -6.3142  -10.0611   29.6259 F       1  UNL1       -0.1659
     32 F          -5.3853  -11.7206   30.8135 F       1  UNL1       -0.1659
     33 F          -7.1896  -10.6398   31.6191 F       1  UNL1       -0.1659
     34 N          -4.7426  -17.7982   20.3426 N.pl3   1  UNL1       -0.2814
     35 H          -5.1183  -17.9207   19.3766 H       1  UNL1        0.1551
     36 C          -3.4004  -18.2373   20.5977 C.ar    1  UNL1        0.0889
     37 C          -2.4271  -17.2945   20.9686 C.ar    1  UNL1        0.1543
     38 F          -2.7501  -15.9804   21.0682 F       1  UNL1       -0.2028
     39 C          -1.1119  -17.6983   21.2163 C.ar    1  UNL1        0.0310
     40 C          -0.7607  -19.0453   21.1098 C.ar    1  UNL1        0.0033
     41 C          -1.7255  -19.9947   20.7660 C.ar    1  UNL1        0.0128
     42 C          -3.0460  -19.6018   20.5153 C.ar    1  UNL1        0.0733
     43 CL         -4.2412  -20.8489   20.1783 Cl      1  UNL1       -0.0809
@<TRIPOS>BOND
     1     1     2    1
     2     2     3   ar
     3     3    34    1
     4    34    36    1
     5    36    37   ar
     6    37    38    1
     7    37    39   ar
     8    39    40   ar
     9    40    41   ar
    10    41    42   ar
    11    42    43    1
    12     3     4   ar
    13     4     5   ar
    14     5     6   ar
    15     6    16    1
    16    16    17    2
    17    16    18    1
    18     6     7   ar
    19     7    20    1
    20    20    21    2
    21    20    22   am
    22    22    24    1
    23    24    25   ar
    24    25    26   ar
    25    26    27   ar
    26    27    28   ar
    27    28    30    1
    28    30    31    1
    29    30    32    1
    30    30    33    1
    31    28    29   ar
    32     7     8   ar
    33     8     9   ar
    34     9    10   ar
    35     9    11    1
    36    11    12    1
    37    12    13    1
    38    12    14    1
    39    12    15    1
    40    10     2   ar
    41    42    36   ar
    42    10     5   ar
    43    29    24   ar
    44    15     8    1
    45    34    35    1
    46    18    19    1
    47    22    23    1
@<TRIPOS>MOLECULE
*****
 43 47 0 0 0
SMALL
GASTEIGER

@<TRIPOS>ATOM
      1 C          -9.3291  -10.0901   34.4872 C.3     1  UNL1        0.1332
      2 N          -8.5838  -10.3016   33.2465 N.ar    1  UNL1       -0.2977
      3 C          -7.4455   -9.6824   32.8312 C.ar    1  UNL1        0.2018
      4 N          -7.0072  -10.1058   31.6168 N.ar    1  UNL1       -0.2133
      5 C          -7.9252  -11.0229   31.2582 C.ar    1  UNL1        0.1061
      6 C          -7.9533  -11.7901   30.0749 C.ar    1  UNL1        0.1018
      7 C          -9.0551  -12.6868   29.8953 C.ar    1  UNL1        0.0950
      8 C         -10.0152  -12.7794   30.9306 C.ar    1  UNL1        0.1403
      9 C          -9.9352  -12.0378   32.0832 C.ar    1  UNL1        0.0327
     10 C          -8.8775  -11.1424   32.2367 C.ar    1  UNL1        0.0791
     11 C         -11.0952  -12.3380   32.9667 C.3     1  UNL1        0.0709
     12 C         -11.9108  -13.3703   32.1208 C.3     1  UNL1        0.1375
     13 C         -13.2930  -12.8169   31.7485 C.3     1  UNL1        0.0439
     14 C         -12.0511  -14.7109   32.8544 C.3     1  UNL1        0.0439
     15 O         -11.1489  -13.5661   30.9278 O.3     1  UNL1       -0.4824
     16 C          -6.8397  -11.6795   29.1049 C.2     1  UNL1        0.3398
     17 O          -6.1920  -12.7077   28.7743 O.2     1  UNL1       -0.2450
     18 O          -6.5156  -10.4592   28.5166 O.3     1  UNL1       -0.4771
     19 H          -7.0693   -9.6271   28.6798 H       1  UNL1        0.2954
     20 C          -9.2620  -13.4593   28.6497 C.2     1  UNL1        0.2527
     21 O         -10.3214  -13.2924   27.9859 O.2     1  UNL1       -0.2697
     22 N          -8.2329  -14.3308   28.1548 N.am    1  UNL1       -0.2803
     23 H          -7.2509  -14.1473   28.4628 H       1  UNL1        0.1552
     24 C          -8.4555  -15.3651   27.1812 C.ar    1  UNL1        0.0505
     25 C          -8.8872  -16.6285   27.6083 C.ar    1  UNL1        0.0147
     26 C          -9.1179  -17.6470   26.6818 C.ar    1  UNL1        0.0012
     27 C          -8.9435  -17.4078   25.3171 C.ar    1  UNL1        0.0039
     28 C          -8.5611  -16.1342   24.8624 C.ar    1  UNL1        0.0726
     29 C          -8.3024  -15.1213   25.8036 C.ar    1  UNL1        0.0185
     30 C          -8.3432  -15.8791   23.3917 C.3     1  UNL1        0.4186
     31 F          -9.5485  -15.8967   22.7112 F       1  UNL1       -0.1659
     32 F          -7.5221  -16.8476   22.8402 F       1  UNL1       -0.1659
     33 F          -7.7514  -14.6408   23.2279 F       1  UNL1       -0.1659
     34 N          -6.7857   -8.6425   33.5689 N.pl3   1  UNL1       -0.2814
     35 H          -7.1431   -8.3967   34.5182 H       1  UNL1        0.1551
     36 C          -5.8727   -7.7298   32.9421 C.ar    1  UNL1        0.0889
     37 C          -4.5784   -7.5820   33.4681 C.ar    1  UNL1        0.1543
     38 F          -4.2021   -8.2831   34.5671 F       1  UNL1       -0.2028
     39 C          -3.6741   -6.6944   32.8777 C.ar    1  UNL1        0.0310
     40 C          -4.0481   -5.9588   31.7516 C.ar    1  UNL1        0.0033
     41 C          -5.3238   -6.1161   31.2054 C.ar    1  UNL1        0.0128
     42 C          -6.2381   -7.0020   31.7885 C.ar    1  UNL1        0.0733
     43 CL         -7.7975   -7.2318   31.0055 Cl      1  UNL1       -0.0809
@<TRIPOS>BOND
     1     1     2    1
     2     2     3   ar
     3     3    34    1
     4    34    36    1
     5    36    37   ar
     6    37    38    1
     7    37    39   ar
     8    39    40   ar
     9    40    41   ar
    10    41    42   ar
    11    42    43    1
    12     3     4   ar
    13     4     5   ar
    14     5     6   ar
    15     6    16    1
    16    16    17    2
    17    16    18    1
    18     6     7   ar
    19     7    20    1
    20    20    21    2
    21    20    22   am
    22    22    24    1
    23    24    25   ar
    24    25    26   ar
    25    26    27   ar
    26    27    28   ar
    27    28    30    1
    28    30    31    1
    29    30    32    1
    30    30    33    1
    31    28    29   ar
    32     7     8   ar
    33     8     9   ar
    34     9    10   ar
    35     9    11    1
    36    11    12    1
    37    12    13    1
    38    12    14    1
    39    12    15    1
    40    10     2   ar
    41    42    36   ar
    42    10     5   ar
    43    29    24   ar
    44    15     8    1
    45    34    35    1
    46    18    19    1
    47    22    23    1
