@<TRIPOS>MOLECULE
*****
 51 56 0 0 0
SMALL
GASTEIGER

@<TRIPOS>ATOM
      1 C          58.3573   84.7281   11.5637 C.2     1  UNL1        0.2483
      2 O          57.3293   85.1347   10.9562 O.2     1  UNL1       -0.2701
      3 N          58.6336   83.3172   11.6274 N.am    1  UNL1       -0.2945
      4 H          59.1391   82.9523   12.4657 H       1  UNL1        0.1501
      5 C          61.4965   86.5760   12.7286 C.ar    1  UNL1        0.0187
      6 C          60.9122   87.7260   13.3034 C.ar    1  UNL1        0.0460
      7 C          59.5219   87.8626   13.3273 C.ar    1  UNL1        0.0145
      8 C          58.7041   86.8762   12.7808 C.ar    1  UNL1        0.0080
      9 C          59.2588   85.7228   12.2019 C.ar    1  UNL1        0.0805
     10 C          60.6636   85.5805   12.1788 C.ar    1  UNL1        0.1416
     11 F          61.2374   84.5090   11.5728 F       1  UNL1       -0.2043
     12 N          61.7207   88.7719   13.8575 N.pl3   1  UNL1       -0.3043
     13 C          62.2294   88.6324   15.2266 C.3     1  UNL1        0.1123
     14 C          62.8928   89.9250   15.7217 C.3     1  UNL1        0.1136
     15 N          63.7534   90.5080   14.6781 N.pl3   1  UNL1       -0.2897
     16 C          63.3057   90.5384   13.2761 C.3     1  UNL1        0.1136
     17 C          61.8696   90.0329   13.1311 C.3     1  UNL1        0.1123
     18 C          65.0067   91.1402   15.0119 C.ar    1  UNL1        0.1318
     19 C          65.1054   92.0585   16.0707 C.ar    1  UNL1        0.0343
     20 C          66.3344   92.6565   16.3529 C.ar    1  UNL1        0.0083
     21 C          67.4687   92.3350   15.5929 C.ar    1  UNL1        0.0906
     22 C          67.3201   91.4436   14.5193 C.ar    1  UNL1        0.1041
     23 N          66.1129   90.8745   14.2625 N.ar    1  UNL1       -0.2292
     24 C          68.7894   93.0126   15.8551 C.3     1  UNL1        0.4200
     25 F          69.4555   92.3380   16.8612 F       1  UNL1       -0.1658
     26 F          68.5949   94.3265   16.2448 F       1  UNL1       -0.1658
     27 F          69.5735   93.0106   14.7145 F       1  UNL1       -0.1658
     28 C          63.5140   85.4076   13.6491 C.3     1  UNL1        0.0051
     29 C          62.9992   86.4221   12.6321 C.3     1  UNL1        0.0299
     30 C          58.2185   82.3348   10.6118 C.3     1  UNL1        0.1535
     31 C          58.8777   82.5803    9.2712 C.2     1  UNL1        0.2443
     32 O          58.2243   82.3947    8.2081 O.2     1  UNL1       -0.2730
     33 N          60.2830   82.8691    9.1995 N.am    1  UNL1       -0.2825
     34 H          60.8849   82.5759   10.0016 H       1  UNL1        0.1549
     35 C          60.9242   83.4443    8.0476 C.ar    1  UNL1        0.0535
     36 C          60.4301   83.2340    6.7484 C.ar    1  UNL1        0.0353
     37 C          61.0693   83.8366    5.6622 C.ar    1  UNL1        0.1002
     38 N          62.1541   84.6305    5.8630 N.ar    1  UNL1       -0.2422
     39 C          62.6436   84.8651    7.1090 C.ar    1  UNL1        0.1002
     40 C          62.0332   84.2834    8.2229 C.ar    1  UNL1        0.0353
     41 C          58.3567   80.8802   11.1312 C.3     1  UNL1        0.0569
     42 C          59.2412   80.7254   12.3400 C.ar    1  UNL1       -0.0017
     43 C          58.8508   80.3067   13.6098 C.ar    1  UNL1        0.0681
     44 N          59.9205   80.2279   14.4330 N.ar    1  UNL1       -0.3523
     45 C          60.9831   80.6001   13.6994 C.ar    1  UNL1        0.0563
     46 C          62.3145   80.6536   14.1100 C.ar    1  UNL1        0.0170
     47 C          63.2780   81.0570   13.1680 C.ar    1  UNL1        0.0015
     48 C          62.8929   81.4026   11.8545 C.ar    1  UNL1        0.0001
     49 C          61.5413   81.3443   11.4699 C.ar    1  UNL1        0.0012
     50 C          60.6088   80.9248   12.4205 C.ar    1  UNL1        0.0131
     51 H          59.9177   79.9301   15.4338 H       1  UNL1        0.1660
@<TRIPOS>BOND
     1    28    29    1
     2    29     5    1
     3     5     6   ar
     4     6    12    1
     5    12    13    1
     6    13    14    1
     7    14    15    1
     8    15    18    1
     9    18    19   ar
    10    19    20   ar
    11    20    21   ar
    12    21    24    1
    13    24    25    1
    14    24    26    1
    15    24    27    1
    16    21    22   ar
    17    22    23   ar
    18    15    16    1
    19    16    17    1
    20     6     7   ar
    21     7     8   ar
    22     8     9   ar
    23     9     1    1
    24     1     2    2
    25     1     3   am
    26     3    30    1
    27    30    41    1
    28    41    42    1
    29    42    43   ar
    30    43    44   ar
    31    44    45   ar
    32    45    46   ar
    33    46    47   ar
    34    47    48   ar
    35    48    49   ar
    36    49    50   ar
    37    30    31    1
    38    31    32    2
    39    31    33   am
    40    33    35    1
    41    35    36   ar
    42    36    37   ar
    43    37    38   ar
    44    38    39   ar
    45    39    40   ar
    46     9    10   ar
    47    10    11    1
    48    10     5   ar
    49    17    12    1
    50    50    42   ar
    51    40    35   ar
    52    23    18   ar
    53    50    45   ar
    54     3     4    1
    55    44    51    1
    56    33    34    1
@<TRIPOS>MOLECULE
*****
 51 56 0 0 0
SMALL
GASTEIGER

@<TRIPOS>ATOM
      1 C          59.5592   83.2420   12.8242 C.2     1  UNL1        0.2483
      2 O          58.7145   83.2939   11.8888 O.2     1  UNL1       -0.2701
      3 N          59.8334   81.9829   13.4649 N.am    1  UNL1       -0.2945
      4 H          60.1132   81.9937   14.4714 H       1  UNL1        0.1501
      5 C          61.9928   85.6689   14.5016 C.ar    1  UNL1        0.0187
      6 C          61.6142   86.8769   13.8757 C.ar    1  UNL1        0.0460
      7 C          60.5659   86.8836   12.9520 C.ar    1  UNL1        0.0145
      8 C          59.8936   85.7054   12.6354 C.ar    1  UNL1        0.0080
      9 C          60.2503   84.4898   13.2422 C.ar    1  UNL1        0.0805
     10 C          61.3075   84.4802   14.1783 C.ar    1  UNL1        0.1416
     11 F          61.7207   83.3141   14.7387 F       1  UNL1       -0.2043
     12 N          62.2950   88.1058   14.1599 N.pl3   1  UNL1       -0.3043
     13 C          62.4864   88.5097   15.5574 C.3     1  UNL1        0.1123
     14 C          63.0421   89.9363   15.6665 C.3     1  UNL1        0.1136
     15 N          64.1204   90.1573   14.6877 N.pl3   1  UNL1       -0.2897
     16 C          63.9941   89.6443   13.3136 C.3     1  UNL1        0.1136
     17 C          62.6187   89.0230   13.0673 C.3     1  UNL1        0.1123
     18 C          65.2778   90.9525   15.0194 C.ar    1  UNL1        0.1318
     19 C          65.2136   91.9745   15.9814 C.ar    1  UNL1        0.0343
     20 C          66.3537   92.7282   16.2642 C.ar    1  UNL1        0.0083
     21 C          67.5609   92.4607   15.6018 C.ar    1  UNL1        0.0906
     22 C          67.5736   91.4585   14.6197 C.ar    1  UNL1        0.1041
     23 N          66.4506   90.7382   14.3603 N.ar    1  UNL1       -0.2292
     24 C          68.7849   93.3012   15.8614 C.3     1  UNL1        0.4200
     25 F          69.5056   92.7468   16.9026 F       1  UNL1       -0.1658
     26 F          68.4261   94.5947   16.1993 F       1  UNL1       -0.1658
     27 F          69.5877   93.3546   14.7350 F       1  UNL1       -0.1658
     28 C          64.4733   85.3800   14.7178 C.3     1  UNL1        0.0051
     29 C          63.1615   85.6135   15.4618 C.3     1  UNL1        0.0299
     30 C          59.7088   80.6669   12.8156 C.3     1  UNL1        0.1535
     31 C          59.0985   80.7633   11.4334 C.2     1  UNL1        0.2443
     32 O          57.8676   80.5371   11.2747 O.2     1  UNL1       -0.2730
     33 N          59.9392   80.9544   10.2844 N.am    1  UNL1       -0.2825
     34 H          60.9461   80.6871   10.3642 H       1  UNL1        0.1549
     35 C          59.4558   81.3948    9.0034 C.ar    1  UNL1        0.0535
     36 C          58.2349   80.9350    8.4796 C.ar    1  UNL1        0.0353
     37 C          57.7919   81.4126    7.2437 C.ar    1  UNL1        0.1002
     38 N          58.5314   82.3248    6.5594 N.ar    1  UNL1       -0.2422
     39 C          59.7071   82.7993    7.0489 C.ar    1  UNL1        0.1002
     40 C          60.1857   82.3494    8.2819 C.ar    1  UNL1        0.0353
     41 C          61.0400   79.8732   12.8688 C.3     1  UNL1        0.0569
     42 C          62.2678   80.7182   13.0830 C.ar    1  UNL1       -0.0017
     43 C          63.0345   80.7945   14.2433 C.ar    1  UNL1        0.0681
     44 N          64.0978   81.6086   14.0565 N.ar    1  UNL1       -0.3523
     45 C          64.0077   82.0547   12.7922 C.ar    1  UNL1        0.0563
     46 C          64.8947   82.9042   12.1322 C.ar    1  UNL1        0.0170
     47 C          64.6179   83.2330   10.7930 C.ar    1  UNL1        0.0015
     48 C          63.4692   82.7187   10.1532 C.ar    1  UNL1        0.0001
     49 C          62.5890   81.8680   10.8456 C.ar    1  UNL1        0.0012
     50 C          62.8973   81.5453   12.1685 C.ar    1  UNL1        0.0131
     51 H          64.8405   81.8358   14.7545 H       1  UNL1        0.1660
@<TRIPOS>BOND
     1    28    29    1
     2    29     5    1
     3     5     6   ar
     4     6    12    1
     5    12    13    1
     6    13    14    1
     7    14    15    1
     8    15    18    1
     9    18    19   ar
    10    19    20   ar
    11    20    21   ar
    12    21    24    1
    13    24    25    1
    14    24    26    1
    15    24    27    1
    16    21    22   ar
    17    22    23   ar
    18    15    16    1
    19    16    17    1
    20     6     7   ar
    21     7     8   ar
    22     8     9   ar
    23     9     1    1
    24     1     2    2
    25     1     3   am
    26     3    30    1
    27    30    41    1
    28    41    42    1
    29    42    43   ar
    30    43    44   ar
    31    44    45   ar
    32    45    46   ar
    33    46    47   ar
    34    47    48   ar
    35    48    49   ar
    36    49    50   ar
    37    30    31    1
    38    31    32    2
    39    31    33   am
    40    33    35    1
    41    35    36   ar
    42    36    37   ar
    43    37    38   ar
    44    38    39   ar
    45    39    40   ar
    46     9    10   ar
    47    10    11    1
    48    10     5   ar
    49    17    12    1
    50    50    42   ar
    51    40    35   ar
    52    23    18   ar
    53    50    45   ar
    54     3     4    1
    55    44    51    1
    56    33    34    1
