@<TRIPOS>MOLECULE
*****
 47 52 0 0 0
SMALL
GASTEIGER

@<TRIPOS>ATOM
      1 N         -26.5323   50.8714   -9.4895 N.ar    1  UNL1       -0.2357
      2 N         -26.6753   50.8515  -10.8123 N.ar    1  UNL1       -0.1663
      3 C         -27.6846   50.0014  -11.1280 C.ar    1  UNL1        0.1260
      4 C         -28.1820   49.4686   -9.9566 C.ar    1  UNL1        0.0880
      5 C         -29.1545   48.5202   -9.6526 C.ar    1  UNL1        0.1380
      6 N         -29.3058   48.1754   -8.3380 N.ar    1  UNL1       -0.2117
      7 C         -28.5481   48.7478   -7.3449 C.ar    1  UNL1        0.1653
      8 N         -27.6000   49.6802   -7.6680 N.ar    1  UNL1       -0.2079
      9 C         -27.4372   50.0206   -8.9677 C.ar    1  UNL1        0.1652
     10 C         -21.5707   51.9114  -10.7041 C.2     1  UNL1        0.4050
     11 O         -21.4953   52.3708  -11.8778 O.2     1  UNL1       -0.2262
     12 N         -22.8054   52.0153   -9.9694 N.am    1  UNL1       -0.2459
     13 C         -23.9399   52.7355  -10.5689 C.3     1  UNL1        0.0987
     14 C         -25.1064   52.9080   -9.5847 C.3     1  UNL1        0.0461
     15 C         -25.4655   51.6185   -8.8068 C.3     1  UNL1        0.1102
     16 C         -24.2494   50.7152   -8.4747 C.3     1  UNL1        0.0461
     17 C         -22.9205   51.4581   -8.6150 C.3     1  UNL1        0.0987
     18 C         -19.1893   51.9362  -10.0279 C.3     1  UNL1        0.2573
     19 O         -20.4559   51.2962  -10.1241 O.3     1  UNL1       -0.4304
     20 N         -29.9524   47.8933  -10.6680 N.pl3   1  UNL1       -0.2879
     21 C         -31.2204   48.5035  -11.0767 C.3     1  UNL1        0.1242
     22 C         -31.5777   48.0385  -12.4911 C.3     1  UNL1        0.1636
     23 O         -31.5617   46.6251  -12.5727 O.3     1  UNL1       -0.3501
     24 C         -30.2470   46.1458  -12.3566 C.3     1  UNL1        0.1636
     25 C         -29.7761   46.4645  -10.9337 C.3     1  UNL1        0.1242
     26 C         -28.7450   48.3518   -5.9299 C.ar    1  UNL1        0.0360
     27 C         -27.6522   47.9663   -5.1327 C.ar    1  UNL1        0.0043
     28 C         -27.8412   47.6028   -3.7960 C.ar    1  UNL1        0.0148
     29 C         -29.1254   47.6290   -3.2259 C.ar    1  UNL1        0.0516
     30 C         -30.2188   47.9851   -4.0265 C.ar    1  UNL1        0.0148
     31 C         -30.0319   48.3491   -5.3623 C.ar    1  UNL1        0.0043
     32 N         -29.3492   47.2382   -1.8603 N.am    1  UNL1       -0.2681
     33 C         -29.5531   48.1614   -0.7798 C.2     1  UNL1        0.3082
     34 O         -29.7385   49.3863   -1.0158 O.2     1  UNL1       -0.2522
     35 N         -29.5440   47.6771    0.5718 N.am    1  UNL1       -0.2681
     36 H         -29.4651   46.2203   -1.6530 H       1  UNL1        0.1564
     37 H         -29.1294   46.7330    0.7427 H       1  UNL1        0.1564
     38 C         -29.9501   48.4540    1.7117 C.ar    1  UNL1        0.0516
     39 C         -31.1499   49.1859    1.7116 C.ar    1  UNL1        0.0149
     40 C         -31.5348   49.9142    2.8412 C.ar    1  UNL1        0.0077
     41 C         -30.7354   49.9141    3.9966 C.ar    1  UNL1        0.0755
     42 C         -29.5474   49.1623    4.0023 C.ar    1  UNL1        0.0077
     43 C         -29.1645   48.4338    2.8723 C.ar    1  UNL1        0.0149
     44 C         -31.1458   50.6869    5.1896 C.2     1  UNL1        0.3380
     45 O         -31.5838   50.0961    6.2140 O.2     1  UNL1       -0.2451
     46 O         -31.0514   52.0764    5.1926 O.3     1  UNL1       -0.4771
     47 H         -31.3295   52.6151    6.0042 H       1  UNL1        0.2954
@<TRIPOS>BOND
     1    18    19    1
     2    19    10    1
     3    10    11    2
     4    10    12   am
     5    12    13    1
     6    13    14    1
     7    14    15    1
     8    15     1    1
     9     1     2   ar
    10     2     3   ar
    11     3     4   ar
    12     4     5   ar
    13     5    20    1
    14    20    21    1
    15    21    22    1
    16    22    23    1
    17    23    24    1
    18    24    25    1
    19     5     6   ar
    20     6     7   ar
    21     7    26    1
    22    26    27   ar
    23    27    28   ar
    24    28    29   ar
    25    29    32    1
    26    32    33   am
    27    33    34    2
    28    33    35   am
    29    35    38    1
    30    38    39   ar
    31    39    40   ar
    32    40    41   ar
    33    41    44    1
    34    44    45    2
    35    44    46    1
    36    41    42   ar
    37    42    43   ar
    38    29    30   ar
    39    30    31   ar
    40     7     8   ar
    41     8     9   ar
    42    15    16    1
    43    16    17    1
    44    17    12    1
    45     9     1   ar
    46     9     4   ar
    47    25    20    1
    48    31    26   ar
    49    43    38   ar
    50    32    36    1
    51    35    37    1
    52    46    47    1
@<TRIPOS>MOLECULE
*****
 47 52 0 0 0
SMALL
GASTEIGER

@<TRIPOS>ATOM
      1 N         -30.3031   49.4836  -11.9271 N.ar    1  UNL1       -0.2357
      2 N         -31.3186   48.7147  -11.5423 N.ar    1  UNL1       -0.1663
      3 C         -31.0182   48.1680  -10.3374 C.ar    1  UNL1        0.1260
      4 C         -29.7656   48.6093   -9.9638 C.ar    1  UNL1        0.0880
      5 C         -28.9215   48.3505   -8.8877 C.ar    1  UNL1        0.1380
      6 N         -27.6797   48.9226   -8.9120 N.ar    1  UNL1       -0.2117
      7 C         -27.2753   49.7374   -9.9420 C.ar    1  UNL1        0.1653
      8 N         -28.1240   49.9796  -10.9878 N.ar    1  UNL1       -0.2079
      9 C         -29.3515   49.4098  -10.9763 C.ar    1  UNL1        0.1652
     10 C         -30.2710   47.7376  -16.8388 C.2     1  UNL1        0.4050
     11 O         -31.2057   46.9069  -17.0133 O.2     1  UNL1       -0.2262
     12 N         -30.3597   48.7071  -15.7770 N.am    1  UNL1       -0.2459
     13 C         -31.5834   48.7707  -14.9624 C.3     1  UNL1        0.0987
     14 C         -31.5836   49.9708  -14.0038 C.3     1  UNL1        0.0461
     15 C         -30.2539   50.1572  -13.2332 C.3     1  UNL1        0.1102
     16 C         -28.9894   49.7621  -14.0396 C.3     1  UNL1        0.0461
     17 C         -29.2673   49.6602  -15.5396 C.3     1  UNL1        0.0987
     18 C         -29.0929   48.4084  -18.9102 C.3     1  UNL1        0.2573
     19 O         -29.1484   47.7082  -17.6734 O.3     1  UNL1       -0.4304
     20 N         -29.3086   47.4926   -7.8036 N.pl3   1  UNL1       -0.2879
     21 C         -29.1234   47.9396   -6.4206 C.3     1  UNL1        0.1242
     22 C         -30.0934   47.1857   -5.5067 C.3     1  UNL1        0.1636
     23 O         -29.9658   45.7870   -5.6859 O.3     1  UNL1       -0.3501
     24 C         -30.3582   45.4327   -6.9994 C.3     1  UNL1        0.1636
     25 C         -29.4156   46.0514   -8.0371 C.3     1  UNL1        0.1242
     26 C         -25.9227   50.3441   -9.9304 C.ar    1  UNL1        0.0360
     27 C         -25.2210   50.5127   -8.7232 C.ar    1  UNL1        0.0043
     28 C         -23.9416   51.0765   -8.7178 C.ar    1  UNL1        0.0148
     29 C         -23.3329   51.4720   -9.9212 C.ar    1  UNL1        0.0516
     30 C         -24.0420   51.3311  -11.1214 C.ar    1  UNL1        0.0148
     31 C         -25.3205   50.7676  -11.1288 C.ar    1  UNL1        0.0043
     32 N         -22.0277   52.0748   -9.9402 N.am    1  UNL1       -0.2681
     33 C         -21.7436   53.3996   -9.4652 C.2     1  UNL1        0.3082
     34 O         -22.6135   54.0436   -8.8179 O.2     1  UNL1       -0.2522
     35 N         -20.4602   53.9843   -9.7339 N.am    1  UNL1       -0.2681
     36 H         -21.2167   51.4822  -10.2293 H       1  UNL1        0.1564
     37 H         -19.8782   53.5460  -10.4832 H       1  UNL1        0.1564
     38 C         -19.9830   55.1992   -9.1305 C.ar    1  UNL1        0.0516
     39 C         -20.2850   56.4583   -9.6771 C.ar    1  UNL1        0.0149
     40 C         -19.8295   57.6263   -9.0583 C.ar    1  UNL1        0.0077
     41 C         -19.0754   57.5590   -7.8746 C.ar    1  UNL1        0.0755
     42 C         -18.7945   56.2993   -7.3172 C.ar    1  UNL1        0.0077
     43 C         -19.2516   55.1325   -7.9366 C.ar    1  UNL1        0.0149
     44 C         -18.5945   58.7974   -7.2234 C.2     1  UNL1        0.3380
     45 O         -18.8574   59.9252   -7.7224 O.2     1  UNL1       -0.2451
     46 O         -17.8463   58.7289   -6.0508 O.3     1  UNL1       -0.4771
     47 H         -17.5123   59.5706   -5.5967 H       1  UNL1        0.2954
@<TRIPOS>BOND
     1    18    19    1
     2    19    10    1
     3    10    11    2
     4    10    12   am
     5    12    13    1
     6    13    14    1
     7    14    15    1
     8    15     1    1
     9     1     2   ar
    10     2     3   ar
    11     3     4   ar
    12     4     5   ar
    13     5    20    1
    14    20    21    1
    15    21    22    1
    16    22    23    1
    17    23    24    1
    18    24    25    1
    19     5     6   ar
    20     6     7   ar
    21     7    26    1
    22    26    27   ar
    23    27    28   ar
    24    28    29   ar
    25    29    32    1
    26    32    33   am
    27    33    34    2
    28    33    35   am
    29    35    38    1
    30    38    39   ar
    31    39    40   ar
    32    40    41   ar
    33    41    44    1
    34    44    45    2
    35    44    46    1
    36    41    42   ar
    37    42    43   ar
    38    29    30   ar
    39    30    31   ar
    40     7     8   ar
    41     8     9   ar
    42    15    16    1
    43    16    17    1
    44    17    12    1
    45     9     1   ar
    46     9     4   ar
    47    25    20    1
    48    31    26   ar
    49    43    38   ar
    50    32    36    1
    51    35    37    1
    52    46    47    1
@<TRIPOS>MOLECULE
*****
 47 52 0 0 0
SMALL
GASTEIGER

@<TRIPOS>ATOM
      1 N         -29.1118   50.5753  -11.9125 N.ar    1  UNL1       -0.2357
      2 N         -28.1246   50.9846  -12.7053 N.ar    1  UNL1       -0.1663
      3 C         -27.0236   51.2138  -11.9462 C.ar    1  UNL1        0.1260
      4 C         -27.3421   50.9428  -10.6315 C.ar    1  UNL1        0.0880
      5 C         -26.6613   51.0468   -9.4219 C.ar    1  UNL1        0.1380
      6 N         -27.3608   50.7644   -8.2814 N.ar    1  UNL1       -0.2117
      7 C         -28.6780   50.3743   -8.3148 C.ar    1  UNL1        0.1653
      8 N         -29.3254   50.2763   -9.5164 N.ar    1  UNL1       -0.2079
      9 C         -28.6432   50.5630  -10.6495 C.ar    1  UNL1        0.1652
     10 C         -31.1895   46.9379  -15.0153 C.2     1  UNL1        0.4050
     11 O         -30.8362   45.7865  -14.6360 O.2     1  UNL1       -0.2262
     12 N         -31.1780   48.0366  -14.0837 N.am    1  UNL1       -0.2459
     13 C         -30.8357   47.7813  -12.6756 C.3     1  UNL1        0.0987
     14 C         -31.0486   49.0184  -11.7905 C.3     1  UNL1        0.0461
     15 C         -30.4787   50.3255  -12.3934 C.3     1  UNL1        0.1102
     16 C         -30.5711   50.4073  -13.9394 C.3     1  UNL1        0.0461
     17 C         -31.5553   49.3891  -14.5156 C.3     1  UNL1        0.0987
     18 C         -31.3024   46.2125  -17.3795 C.3     1  UNL1        0.2573
     19 O         -31.5838   47.1437  -16.3418 O.3     1  UNL1       -0.4304
     20 N         -25.2898   51.4654   -9.3520 N.pl3   1  UNL1       -0.2879
     21 C         -24.4654   51.0678   -8.2078 C.3     1  UNL1        0.1242
     22 C         -22.9878   51.1020   -8.6075 C.3     1  UNL1        0.1636
     23 O         -22.6468   52.3610   -9.1580 O.3     1  UNL1       -0.3501
     24 C         -23.3528   52.5638  -10.3685 C.3     1  UNL1        0.1636
     25 C         -24.8621   52.6394  -10.1148 C.3     1  UNL1        0.1242
     26 C         -29.4017   50.0713   -7.0569 C.ar    1  UNL1        0.0360
     27 C         -30.1179   51.0749   -6.3802 C.ar    1  UNL1        0.0043
     28 C         -30.8070   50.7826   -5.1993 C.ar    1  UNL1        0.0148
     29 C         -30.8037   49.4777   -4.6776 C.ar    1  UNL1        0.0516
     30 C         -30.0671   48.4833   -5.3349 C.ar    1  UNL1        0.0148
     31 C         -29.3782   48.7735   -6.5153 C.ar    1  UNL1        0.0043
     32 N         -31.4855   49.1565   -3.4531 N.am    1  UNL1       -0.2681
     33 C         -30.8365   49.0204   -2.1798 C.2     1  UNL1        0.3082
     34 O         -29.6335   49.3714   -2.0380 O.2     1  UNL1       -0.2522
     35 N         -31.5697   48.4812   -1.0693 N.am    1  UNL1       -0.2681
     36 H         -32.5297   49.1112   -3.4693 H       1  UNL1        0.1564
     37 H         -32.4522   47.9627   -1.2806 H       1  UNL1        0.1564
     38 C         -31.1055   48.5001    0.2916 C.ar    1  UNL1        0.0516
     39 C         -30.3967   47.4178    0.8406 C.ar    1  UNL1        0.0149
     40 C         -29.9349   47.4700    2.1592 C.ar    1  UNL1        0.0077
     41 C         -30.1604   48.6096    2.9495 C.ar    1  UNL1        0.0755
     42 C         -30.8493   49.7002    2.3903 C.ar    1  UNL1        0.0077
     43 C         -31.3095   49.6467    1.0715 C.ar    1  UNL1        0.0149
     44 C         -29.6707   48.6606    4.3447 C.2     1  UNL1        0.3380
     45 O         -30.3909   49.1495    5.2570 O.2     1  UNL1       -0.2451
     46 O         -28.4081   48.1675    4.6639 O.3     1  UNL1       -0.4771
     47 H         -28.0632   48.1973    5.6160 H       1  UNL1        0.2954
@<TRIPOS>BOND
     1    18    19    1
     2    19    10    1
     3    10    11    2
     4    10    12   am
     5    12    13    1
     6    13    14    1
     7    14    15    1
     8    15     1    1
     9     1     2   ar
    10     2     3   ar
    11     3     4   ar
    12     4     5   ar
    13     5    20    1
    14    20    21    1
    15    21    22    1
    16    22    23    1
    17    23    24    1
    18    24    25    1
    19     5     6   ar
    20     6     7   ar
    21     7    26    1
    22    26    27   ar
    23    27    28   ar
    24    28    29   ar
    25    29    32    1
    26    32    33   am
    27    33    34    2
    28    33    35   am
    29    35    38    1
    30    38    39   ar
    31    39    40   ar
    32    40    41   ar
    33    41    44    1
    34    44    45    2
    35    44    46    1
    36    41    42   ar
    37    42    43   ar
    38    29    30   ar
    39    30    31   ar
    40     7     8   ar
    41     8     9   ar
    42    15    16    1
    43    16    17    1
    44    17    12    1
    45     9     1   ar
    46     9     4   ar
    47    25    20    1
    48    31    26   ar
    49    43    38   ar
    50    32    36    1
    51    35    37    1
    52    46    47    1
@<TRIPOS>MOLECULE
*****
 47 52 0 0 0
SMALL
GASTEIGER

@<TRIPOS>ATOM
      1 N         -29.0809   50.4279  -12.5997 N.ar    1  UNL1       -0.2357
      2 N         -28.3478   51.2222  -13.3758 N.ar    1  UNL1       -0.1663
      3 C         -27.2059   51.5414  -12.7161 C.ar    1  UNL1        0.1260
      4 C         -27.2351   50.9272  -11.4811 C.ar    1  UNL1        0.0880
      5 C         -26.3962   50.9307  -10.3703 C.ar    1  UNL1        0.1380
      6 N         -26.8197   50.2514   -9.2617 N.ar    1  UNL1       -0.2117
      7 C         -28.0142   49.5726   -9.2377 C.ar    1  UNL1        0.1653
      8 N         -28.8207   49.5811  -10.3432 N.ar    1  UNL1       -0.2079
      9 C         -28.4137   50.2588  -11.4416 C.ar    1  UNL1        0.1652
     10 C         -30.8346   46.2790  -15.2239 C.2     1  UNL1        0.4050
     11 O         -30.3156   45.2222  -14.7677 O.2     1  UNL1       -0.2262
     12 N         -30.9153   47.4555  -14.3965 N.am    1  UNL1       -0.2459
     13 C         -30.4677   47.3817  -12.9967 C.3     1  UNL1        0.0987
     14 C         -30.7909   48.6625  -12.2131 C.3     1  UNL1        0.0461
     15 C         -30.4279   49.9657  -12.9660 C.3     1  UNL1        0.1102
     16 C         -30.6129   49.8858  -14.5037 C.3     1  UNL1        0.0461
     17 C         -31.4868   48.7029  -14.9214 C.3     1  UNL1        0.0987
     18 C         -30.5114   46.0002  -17.6625 C.3     1  UNL1        0.2573
     19 O         -31.3228   46.3055  -16.5349 O.3     1  UNL1       -0.4304
     20 N         -25.1491   51.6416  -10.3585 N.pl3   1  UNL1       -0.2879
     21 C         -23.9242   50.9690  -10.7992 C.3     1  UNL1        0.1242
     22 C         -22.9025   52.0155  -11.2523 C.3     1  UNL1        0.1636
     23 O         -22.6991   52.9869  -10.2426 O.3     1  UNL1       -0.3501
     24 C         -23.8935   53.7171  -10.0302 C.3     1  UNL1        0.1636
     25 C         -25.0005   52.8079   -9.4862 C.3     1  UNL1        0.1242
     26 C         -28.4369   48.8430   -8.0184 C.ar    1  UNL1        0.0360
     27 C         -29.7973   48.5881   -7.7687 C.ar    1  UNL1        0.0043
     28 C         -30.1908   47.8912   -6.6223 C.ar    1  UNL1        0.0148
     29 C         -29.2307   47.4243   -5.7084 C.ar    1  UNL1        0.0516
     30 C         -27.8773   47.7022   -5.9411 C.ar    1  UNL1        0.0148
     31 C         -27.4821   48.3982   -7.0863 C.ar    1  UNL1        0.0043
     32 N         -29.6111   46.7250   -4.5110 N.am    1  UNL1       -0.2681
     33 C         -29.5891   47.3034   -3.1972 C.2     1  UNL1        0.3082
     34 O         -29.4107   48.5433   -3.0506 O.2     1  UNL1       -0.2522
     35 N         -29.7721   46.4573   -2.0517 N.am    1  UNL1       -0.2681
     36 H         -30.0185   45.7674   -4.6094 H       1  UNL1        0.1564
     37 H         -29.6488   45.4284   -2.1879 H       1  UNL1        0.1564
     38 C         -29.9878   46.9417   -0.7150 C.ar    1  UNL1        0.0516
     39 C         -30.5388   46.1204    0.2835 C.ar    1  UNL1        0.0149
     40 C         -30.7164   46.6072    1.5821 C.ar    1  UNL1        0.0077
     41 C         -30.3342   47.9187    1.9108 C.ar    1  UNL1        0.0755
     42 C         -29.7617   48.7304    0.9159 C.ar    1  UNL1        0.0077
     43 C         -29.5839   48.2419   -0.3817 C.ar    1  UNL1        0.0149
     44 C         -30.5246   48.4302    3.2860 C.2     1  UNL1        0.3380
     45 O         -31.5808   49.0440    3.5988 O.2     1  UNL1       -0.2451
     46 O         -29.5377   48.2377    4.2495 O.3     1  UNL1       -0.4771
     47 H         -29.6581   48.5836    5.1940 H       1  UNL1        0.2954
@<TRIPOS>BOND
     1    18    19    1
     2    19    10    1
     3    10    11    2
     4    10    12   am
     5    12    13    1
     6    13    14    1
     7    14    15    1
     8    15     1    1
     9     1     2   ar
    10     2     3   ar
    11     3     4   ar
    12     4     5   ar
    13     5    20    1
    14    20    21    1
    15    21    22    1
    16    22    23    1
    17    23    24    1
    18    24    25    1
    19     5     6   ar
    20     6     7   ar
    21     7    26    1
    22    26    27   ar
    23    27    28   ar
    24    28    29   ar
    25    29    32    1
    26    32    33   am
    27    33    34    2
    28    33    35   am
    29    35    38    1
    30    38    39   ar
    31    39    40   ar
    32    40    41   ar
    33    41    44    1
    34    44    45    2
    35    44    46    1
    36    41    42   ar
    37    42    43   ar
    38    29    30   ar
    39    30    31   ar
    40     7     8   ar
    41     8     9   ar
    42    15    16    1
    43    16    17    1
    44    17    12    1
    45     9     1   ar
    46     9     4   ar
    47    25    20    1
    48    31    26   ar
    49    43    38   ar
    50    32    36    1
    51    35    37    1
    52    46    47    1
