@<TRIPOS>MOLECULE
*****
 39 43 0 0 0
SMALL
GASTEIGER

@<TRIPOS>ATOM
      1 C          -4.9219   -9.5513   30.3329 C.3     1  UNL1        0.0439
      2 C          -6.0585   -9.8775   29.3559 C.3     1  UNL1        0.1375
      3 C          -5.5232   -9.9614   27.9197 C.3     1  UNL1        0.0439
      4 C          -6.8015  -11.1945   29.7621 C.3     1  UNL1        0.0709
      5 C          -8.1928  -10.7193   29.9683 C.ar    1  UNL1        0.0325
      6 C          -8.2812   -9.3670   29.7542 C.ar    1  UNL1        0.1401
      7 C          -9.5055   -8.6613   29.8771 C.ar    1  UNL1        0.0889
      8 C         -10.6584   -9.3915   30.2739 C.ar    1  UNL1        0.0282
      9 C         -10.5278  -10.7712   30.4903 C.ar    1  UNL1        0.0997
     10 N         -11.4835  -11.6435   30.8567 N.ar    1  UNL1       -0.2137
     11 C         -10.8034  -12.8224   30.9099 C.ar    1  UNL1        0.1983
     12 N          -9.4864  -12.7180   30.6051 N.ar    1  UNL1       -0.3255
     13 C          -9.3336  -11.4163   30.3395 C.ar    1  UNL1        0.0755
     14 O          -7.0475   -8.8457   29.4240 O.3     1  UNL1       -0.4824
     15 H          -8.7648  -13.4726   30.5828 H       1  UNL1        0.1686
     16 C          -9.5926   -7.2054   29.6205 C.2     1  UNL1        0.2535
     17 O         -10.2230   -6.7969   28.6087 O.2     1  UNL1       -0.2697
     18 N          -9.0068   -6.2401   30.5077 N.am    1  UNL1       -0.2657
     19 H          -9.4678   -5.3050   30.5815 H       1  UNL1        0.1566
     20 C          -7.7581   -6.4418   31.1882 C.ar    1  UNL1        0.1344
     21 C          -6.5647   -6.0017   30.6054 C.ar    1  UNL1        0.0344
     22 C          -5.3603   -6.1764   31.2887 C.ar    1  UNL1        0.0083
     23 C          -5.3431   -6.8168   32.5374 C.ar    1  UNL1        0.0906
     24 C          -6.5639   -7.2380   33.0882 C.ar    1  UNL1        0.1041
     25 N          -7.7244   -7.0490   32.4068 N.ar    1  UNL1       -0.2291
     26 C          -4.0597   -6.9527   33.3156 C.3     1  UNL1        0.4200
     27 F          -3.6985   -8.2860   33.3666 F       1  UNL1       -0.1658
     28 F          -4.2188   -6.4783   34.6061 F       1  UNL1       -0.1658
     29 F          -3.0437   -6.2325   32.7113 F       1  UNL1       -0.1658
     30 N         -11.4133  -14.0641   31.2804 N.pl3   1  UNL1       -0.2827
     31 H         -11.3877  -14.8526   30.5956 H       1  UNL1        0.1551
     32 C         -11.8568  -14.3277   32.6187 C.ar    1  UNL1        0.0718
     33 C         -11.2732  -13.6621   33.7173 C.ar    1  UNL1        0.0719
     34 CL        -10.0287  -12.4379   33.4950 Cl      1  UNL1       -0.0809
     35 C         -11.7211  -13.9323   35.0155 C.ar    1  UNL1        0.0127
     36 C         -12.7512  -14.8502   35.2281 C.ar    1  UNL1        0.0018
     37 C         -13.3464  -15.4976   34.1440 C.ar    1  UNL1        0.0127
     38 C         -12.9088  -15.2366   32.8409 C.ar    1  UNL1        0.0719
     39 CL        -13.6706  -16.0853   31.5022 Cl      1  UNL1       -0.0809
@<TRIPOS>BOND
     1     1     2    1
     2     2     3    1
     3     2     4    1
     4     4     5    1
     5     5     6   ar
     6     6     7   ar
     7     7    16    1
     8    16    17    2
     9    16    18   am
    10    18    20    1
    11    20    21   ar
    12    21    22   ar
    13    22    23   ar
    14    23    26    1
    15    26    27    1
    16    26    28    1
    17    26    29    1
    18    23    24   ar
    19    24    25   ar
    20     7     8   ar
    21     8     9   ar
    22     9    10   ar
    23    10    11   ar
    24    11    30    1
    25    30    32    1
    26    32    33   ar
    27    33    34    1
    28    33    35   ar
    29    35    36   ar
    30    36    37   ar
    31    37    38   ar
    32    38    39    1
    33    11    12   ar
    34    12    13   ar
    35     6    14    1
    36    14     2    1
    37    13     5   ar
    38    25    20   ar
    39    13     9   ar
    40    38    32   ar
    41    18    19    1
    42    30    31    1
    43    12    15    1
@<TRIPOS>MOLECULE
*****
 39 43 0 0 0
SMALL
GASTEIGER

@<TRIPOS>ATOM
      1 C          -4.9209   -9.5352   30.3342 C.3     1  UNL1        0.0439
      2 C          -6.0566   -9.8624   29.3565 C.3     1  UNL1        0.1375
      3 C          -5.5208   -9.9438   27.9204 C.3     1  UNL1        0.0439
      4 C          -6.7973  -11.1812   29.7612 C.3     1  UNL1        0.0709
      5 C          -8.1895  -10.7088   29.9674 C.ar    1  UNL1        0.0325
      6 C          -8.2804   -9.3564   29.7547 C.ar    1  UNL1        0.1401
      7 C          -9.5060   -8.6531   29.8779 C.ar    1  UNL1        0.0889
      8 C         -10.6577   -9.3860   30.2737 C.ar    1  UNL1        0.0282
      9 C         -10.5246  -10.7656   30.4887 C.ar    1  UNL1        0.0997
     10 N         -11.4788  -11.6400   30.8539 N.ar    1  UNL1       -0.2137
     11 C         -10.7965  -12.8178   30.9060 C.ar    1  UNL1        0.1983
     12 N          -9.4796  -12.7105   30.6017 N.ar    1  UNL1       -0.3255
     13 C          -9.3291  -11.4083   30.3375 C.ar    1  UNL1        0.0755
     14 O          -7.0475   -8.8326   29.4254 O.3     1  UNL1       -0.4824
     15 H          -8.7567  -13.4638   30.5789 H       1  UNL1        0.1686
     16 C          -9.5957   -7.1972   29.6228 C.2     1  UNL1        0.2535
     17 O         -10.2286   -6.7887   28.6125 O.2     1  UNL1       -0.2697
     18 N          -9.0098   -6.2318   30.5099 N.am    1  UNL1       -0.2657
     19 H          -9.4720   -5.2974   30.5854 H       1  UNL1        0.1566
     20 C          -7.7596   -6.4323   31.1879 C.ar    1  UNL1        0.1344
     21 C          -6.5678   -5.9906   30.6030 C.ar    1  UNL1        0.0344
     22 C          -5.3619   -6.1641   31.2839 C.ar    1  UNL1        0.0083
     23 C          -5.3415   -6.8049   32.5324 C.ar    1  UNL1        0.0906
     24 C          -6.5608   -7.2277   33.0853 C.ar    1  UNL1        0.1041
     25 N          -7.7228   -7.0399   32.4062 N.ar    1  UNL1       -0.2291
     26 C          -4.0565   -6.9396   33.3081 C.3     1  UNL1        0.4200
     27 F          -3.7007   -8.2739   33.3694 F       1  UNL1       -0.1658
     28 F          -4.2099   -6.4536   34.5950 F       1  UNL1       -0.1658
     29 F          -3.0393   -6.2288   32.6948 F       1  UNL1       -0.1658
     30 N         -11.4043  -14.0609   31.2750 N.pl3   1  UNL1       -0.2827
     31 H         -11.3586  -14.8552   30.5980 H       1  UNL1        0.1551
     32 C         -11.8729  -14.3164   32.6064 C.ar    1  UNL1        0.0718
     33 C         -12.8977  -15.2567   32.8435 C.ar    1  UNL1        0.0719
     34 CL        -13.5988  -16.2016   31.5350 Cl      1  UNL1       -0.0809
     35 C         -13.3399  -15.4926   34.1503 C.ar    1  UNL1        0.0127
     36 C         -12.7639  -14.8092   35.2227 C.ar    1  UNL1        0.0018
     37 C         -11.7360  -13.8921   34.9971 C.ar    1  UNL1        0.0127
     38 C         -11.2838  -13.6469   33.6959 C.ar    1  UNL1        0.0719
     39 CL         -9.9996  -12.4709   33.4495 Cl      1  UNL1       -0.0809
@<TRIPOS>BOND
     1     1     2    1
     2     2     3    1
     3     2     4    1
     4     4     5    1
     5     5     6   ar
     6     6     7   ar
     7     7    16    1
     8    16    17    2
     9    16    18   am
    10    18    20    1
    11    20    21   ar
    12    21    22   ar
    13    22    23   ar
    14    23    26    1
    15    26    27    1
    16    26    28    1
    17    26    29    1
    18    23    24   ar
    19    24    25   ar
    20     7     8   ar
    21     8     9   ar
    22     9    10   ar
    23    10    11   ar
    24    11    30    1
    25    30    32    1
    26    32    33   ar
    27    33    34    1
    28    33    35   ar
    29    35    36   ar
    30    36    37   ar
    31    37    38   ar
    32    38    39    1
    33    11    12   ar
    34    12    13   ar
    35     6    14    1
    36    14     2    1
    37    13     5   ar
    38    25    20   ar
    39    13     9   ar
    40    38    32   ar
    41    18    19    1
    42    30    31    1
    43    12    15    1
@<TRIPOS>MOLECULE
*****
 39 43 0 0 0
SMALL
GASTEIGER

@<TRIPOS>ATOM
      1 C          -5.2266   -9.8916   31.1954 C.3     1  UNL1        0.0439
      2 C          -6.4811  -10.2888   30.4072 C.3     1  UNL1        0.1375
      3 C          -6.0921  -10.9936   29.1002 C.3     1  UNL1        0.0439
      4 C          -7.4395  -11.1787   31.2680 C.3     1  UNL1        0.0709
      5 C          -8.6846  -10.3705   31.2883 C.ar    1  UNL1        0.0325
      6 C          -8.5150   -9.1990   30.5948 C.ar    1  UNL1        0.1401
      7 C          -9.5573   -8.2474   30.4531 C.ar    1  UNL1        0.0889
      8 C         -10.7980   -8.5183   31.0914 C.ar    1  UNL1        0.0282
      9 C         -10.9317   -9.7231   31.7971 C.ar    1  UNL1        0.0997
     10 N         -12.0111  -10.1769   32.4585 N.ar    1  UNL1       -0.2137
     11 C         -11.5812  -11.3772   32.9380 C.ar    1  UNL1        0.1983
     12 N         -10.2995  -11.6777   32.6139 N.ar    1  UNL1       -0.3255
     13 C          -9.9088  -10.6231   31.8906 C.ar    1  UNL1        0.0755
     14 O          -7.2323   -9.1118   30.0949 O.3     1  UNL1       -0.4824
     15 H          -9.7496  -12.5284   32.8680 H       1  UNL1        0.1686
     16 C          -9.3689   -6.9972   29.6822 C.2     1  UNL1        0.2535
     17 O          -9.9272   -6.8786   28.5586 O.2     1  UNL1       -0.2697
     18 N          -8.5939   -5.8999   30.1895 N.am    1  UNL1       -0.2657
     19 H          -8.8662   -4.9348   29.8945 H       1  UNL1        0.1566
     20 C          -7.3951   -6.0649   30.9633 C.ar    1  UNL1        0.1344
     21 C          -7.4744   -6.2218   32.3514 C.ar    1  UNL1        0.0344
     22 C          -6.3055   -6.4109   33.0900 C.ar    1  UNL1        0.0083
     23 C          -5.0571   -6.4126   32.4486 C.ar    1  UNL1        0.0906
     24 C          -5.0235   -6.2571   31.0537 C.ar    1  UNL1        0.1041
     25 N          -6.1764   -6.0827   30.3557 N.ar    1  UNL1       -0.2291
     26 C          -3.7932   -6.6817   33.2240 C.3     1  UNL1        0.4200
     27 F          -3.6518   -8.0450   33.4031 F       1  UNL1       -0.1658
     28 F          -3.8400   -6.0660   34.4627 F       1  UNL1       -0.1658
     29 F          -2.6898   -6.1991   32.5416 F       1  UNL1       -0.1658
     30 N         -12.3975  -12.2404   33.7378 N.pl3   1  UNL1       -0.2827
     31 H         -12.9278  -11.8225   34.5350 H       1  UNL1        0.1551
     32 C         -12.6801  -13.5937   33.3560 C.ar    1  UNL1        0.0718
     33 C         -13.5208  -13.8740   32.2581 C.ar    1  UNL1        0.0719
     34 CL        -14.2045  -12.5869   31.2718 Cl      1  UNL1       -0.0809
     35 C         -13.7830  -15.2016   31.9007 C.ar    1  UNL1        0.0127
     36 C         -13.2076  -16.2510   32.6193 C.ar    1  UNL1        0.0018
     37 C         -12.3592  -15.9805   33.6943 C.ar    1  UNL1        0.0127
     38 C         -12.0880  -14.6581   34.0622 C.ar    1  UNL1        0.0719
     39 CL        -11.0288  -14.3572   35.4335 Cl      1  UNL1       -0.0809
@<TRIPOS>BOND
     1     1     2    1
     2     2     3    1
     3     2     4    1
     4     4     5    1
     5     5     6   ar
     6     6     7   ar
     7     7    16    1
     8    16    17    2
     9    16    18   am
    10    18    20    1
    11    20    21   ar
    12    21    22   ar
    13    22    23   ar
    14    23    26    1
    15    26    27    1
    16    26    28    1
    17    26    29    1
    18    23    24   ar
    19    24    25   ar
    20     7     8   ar
    21     8     9   ar
    22     9    10   ar
    23    10    11   ar
    24    11    30    1
    25    30    32    1
    26    32    33   ar
    27    33    34    1
    28    33    35   ar
    29    35    36   ar
    30    36    37   ar
    31    37    38   ar
    32    38    39    1
    33    11    12   ar
    34    12    13   ar
    35     6    14    1
    36    14     2    1
    37    13     5   ar
    38    25    20   ar
    39    13     9   ar
    40    38    32   ar
    41    18    19    1
    42    30    31    1
    43    12    15    1
@<TRIPOS>MOLECULE
*****
 39 43 0 0 0
SMALL
GASTEIGER

@<TRIPOS>ATOM
      1 C          -3.8429  -11.1415   29.3690 C.3     1  UNL1        0.0439
      2 C          -5.1826  -10.4047   29.4917 C.3     1  UNL1        0.1375
      3 C          -5.5944   -9.8120   28.1370 C.3     1  UNL1        0.0439
      4 C          -6.2997  -11.3406   30.0645 C.3     1  UNL1        0.0709
      5 C          -6.7068  -10.6242   31.2993 C.ar    1  UNL1        0.0325
      6 C          -5.9654   -9.4819   31.4654 C.ar    1  UNL1        0.1401
      7 C          -6.1611   -8.6076   32.5652 C.ar    1  UNL1        0.0889
      8 C          -7.1357   -8.9658   33.5357 C.ar    1  UNL1        0.0282
      9 C          -7.8693  -10.1443   33.3354 C.ar    1  UNL1        0.0997
     10 N          -8.8361  -10.6577   34.1167 N.ar    1  UNL1       -0.2137
     11 C          -9.1906  -11.7881   33.4445 C.ar    1  UNL1        0.1983
     12 N          -8.4901  -11.9979   32.3028 N.ar    1  UNL1       -0.3255
     13 C          -7.6643  -10.9474   32.2500 C.ar    1  UNL1        0.0755
     14 O          -5.0503   -9.3437   30.4425 O.3     1  UNL1       -0.4824
     15 H          -8.5751  -12.7894   31.6269 H       1  UNL1        0.1686
     16 C          -5.3702   -7.3654   32.7208 C.2     1  UNL1        0.2535
     17 O          -4.4579   -7.3230   33.5892 O.2     1  UNL1       -0.2697
     18 N          -5.5891   -6.2149   31.8898 N.am    1  UNL1       -0.2657
     19 H          -4.7697   -5.5982   31.6876 H       1  UNL1        0.1566
     20 C          -6.8868   -5.7966   31.4383 C.ar    1  UNL1        0.1344
     21 C          -7.0022   -4.9379   30.3397 C.ar    1  UNL1        0.0344
     22 C          -8.2690   -4.5612   29.8912 C.ar    1  UNL1        0.0083
     23 C          -9.4180   -5.0158   30.5568 C.ar    1  UNL1        0.0906
     24 C          -9.2570   -5.8801   31.6514 C.ar    1  UNL1        0.1041
     25 N          -8.0128   -6.2389   32.0638 N.ar    1  UNL1       -0.2291
     26 C         -10.7924   -4.6709   30.0438 C.3     1  UNL1        0.4200
     27 F         -11.5913   -4.2904   31.1057 F       1  UNL1       -0.1658
     28 F         -11.3666   -5.7620   29.4149 F       1  UNL1       -0.1658
     29 F         -10.7266   -3.6307   29.1329 F       1  UNL1       -0.1658
     30 N         -10.1963  -12.6950   33.9102 N.pl3   1  UNL1       -0.2827
     31 H         -10.0760  -13.1264   34.8540 H       1  UNL1        0.1551
     32 C         -11.4494  -12.8595   33.2320 C.ar    1  UNL1        0.0718
     33 C         -11.9848  -11.8206   32.4416 C.ar    1  UNL1        0.0719
     34 CL        -11.1161  -10.3097   32.1985 Cl      1  UNL1       -0.0809
     35 C         -13.2084  -12.0015   31.7866 C.ar    1  UNL1        0.0127
     36 C         -13.8974  -13.2101   31.9028 C.ar    1  UNL1        0.0018
     37 C         -13.3637  -14.2490   32.6672 C.ar    1  UNL1        0.0127
     38 C         -12.1411  -14.0821   33.3270 C.ar    1  UNL1        0.0719
     39 CL        -11.5097  -15.4073   34.2955 Cl      1  UNL1       -0.0809
@<TRIPOS>BOND
     1     1     2    1
     2     2     3    1
     3     2     4    1
     4     4     5    1
     5     5     6   ar
     6     6     7   ar
     7     7    16    1
     8    16    17    2
     9    16    18   am
    10    18    20    1
    11    20    21   ar
    12    21    22   ar
    13    22    23   ar
    14    23    26    1
    15    26    27    1
    16    26    28    1
    17    26    29    1
    18    23    24   ar
    19    24    25   ar
    20     7     8   ar
    21     8     9   ar
    22     9    10   ar
    23    10    11   ar
    24    11    30    1
    25    30    32    1
    26    32    33   ar
    27    33    34    1
    28    33    35   ar
    29    35    36   ar
    30    36    37   ar
    31    37    38   ar
    32    38    39    1
    33    11    12   ar
    34    12    13   ar
    35     6    14    1
    36    14     2    1
    37    13     5   ar
    38    25    20   ar
    39    13     9   ar
    40    38    32   ar
    41    18    19    1
    42    30    31    1
    43    12    15    1
@<TRIPOS>MOLECULE
*****
 39 43 0 0 0
SMALL
GASTEIGER

@<TRIPOS>ATOM
      1 C          -5.5471   -9.5245   32.0269 C.3     1  UNL1        0.0439
      2 C          -6.2177   -9.5675   30.6480 C.3     1  UNL1        0.1375
      3 C          -5.7639   -8.3754   29.7939 C.3     1  UNL1        0.0439
      4 C          -5.9406  -10.9254   29.9194 C.3     1  UNL1        0.0709
      5 C          -7.3114  -11.4570   29.7142 C.ar    1  UNL1        0.0325
      6 C          -8.2478  -10.6021   30.2382 C.ar    1  UNL1        0.1401
      7 C          -9.6388  -10.8704   30.1679 C.ar    1  UNL1        0.0889
      8 C         -10.0526  -12.0893   29.5651 C.ar    1  UNL1        0.0282
      9 C          -9.0662  -12.9412   29.0467 C.ar    1  UNL1        0.0997
     10 N          -9.2377  -14.1252   28.4324 N.ar    1  UNL1       -0.2137
     11 C          -7.9596  -14.4956   28.1419 C.ar    1  UNL1        0.1983
     12 N          -7.0181  -13.6098   28.5508 N.ar    1  UNL1       -0.3255
     13 C          -7.7373  -12.6342   29.1158 C.ar    1  UNL1        0.0755
     14 O          -7.6376   -9.5070   30.8137 O.3     1  UNL1       -0.4824
     15 H          -5.9808  -13.6738   28.4488 H       1  UNL1        0.1686
     16 C         -10.6409   -9.9282   30.7166 C.2     1  UNL1        0.2535
     17 O         -10.3769   -8.6962   30.7402 O.2     1  UNL1       -0.2697
     18 N         -11.9203  -10.3716   31.1948 N.am    1  UNL1       -0.2657
     19 H         -12.7265   -9.7118   31.1095 H       1  UNL1        0.1566
     20 C         -12.1202  -11.6070   31.8996 C.ar    1  UNL1        0.1344
     21 C         -13.2084  -12.4264   31.5805 C.ar    1  UNL1        0.0344
     22 C         -13.3767  -13.6387   32.2512 C.ar    1  UNL1        0.0083
     23 C         -12.4779  -14.0183   33.2602 C.ar    1  UNL1        0.0906
     24 C         -11.3969  -13.1689   33.5450 C.ar    1  UNL1        0.1041
     25 N         -11.2502  -11.9974   32.8721 N.ar    1  UNL1       -0.2291
     26 C         -12.6093  -15.3537   33.9461 C.3     1  UNL1        0.4200
     27 F         -12.0242  -15.2816   35.1964 F       1  UNL1       -0.1658
     28 F         -11.9819  -16.3441   33.2104 F       1  UNL1       -0.1658
     29 F         -13.9418  -15.6994   34.0905 F       1  UNL1       -0.1658
     30 N          -7.6289  -15.7247   27.4854 N.pl3   1  UNL1       -0.2827
     31 H          -7.5613  -16.5925   28.0630 H       1  UNL1        0.1551
     32 C          -7.6039  -15.8444   26.0563 C.ar    1  UNL1        0.0718
     33 C          -6.6022  -15.2055   25.2953 C.ar    1  UNL1        0.0719
     34 CL         -5.3074  -14.2929   26.0618 Cl      1  UNL1       -0.0809
     35 C          -6.5944  -15.3358   23.9018 C.ar    1  UNL1        0.0127
     36 C          -7.5677  -16.1046   23.2611 C.ar    1  UNL1        0.0018
     37 C          -8.5500  -16.7555   24.0096 C.ar    1  UNL1        0.0127
     38 C          -8.5694  -16.6342   25.4034 C.ar    1  UNL1        0.0719
     39 CL         -9.8333  -17.4540   26.3106 Cl      1  UNL1       -0.0809
@<TRIPOS>BOND
     1     1     2    1
     2     2     3    1
     3     2     4    1
     4     4     5    1
     5     5     6   ar
     6     6     7   ar
     7     7    16    1
     8    16    17    2
     9    16    18   am
    10    18    20    1
    11    20    21   ar
    12    21    22   ar
    13    22    23   ar
    14    23    26    1
    15    26    27    1
    16    26    28    1
    17    26    29    1
    18    23    24   ar
    19    24    25   ar
    20     7     8   ar
    21     8     9   ar
    22     9    10   ar
    23    10    11   ar
    24    11    30    1
    25    30    32    1
    26    32    33   ar
    27    33    34    1
    28    33    35   ar
    29    35    36   ar
    30    36    37   ar
    31    37    38   ar
    32    38    39    1
    33    11    12   ar
    34    12    13   ar
    35     6    14    1
    36    14     2    1
    37    13     5   ar
    38    25    20   ar
    39    13     9   ar
    40    38    32   ar
    41    18    19    1
    42    30    31    1
    43    12    15    1
@<TRIPOS>MOLECULE
*****
 39 43 0 0 0
SMALL
GASTEIGER

@<TRIPOS>ATOM
      1 C          -5.5587   -9.5364   32.0088 C.3     1  UNL1        0.0439
      2 C          -6.2195   -9.5859   30.6255 C.3     1  UNL1        0.1375
      3 C          -5.7602   -8.3975   29.7693 C.3     1  UNL1        0.0439
      4 C          -5.9367  -10.9470   29.9049 C.3     1  UNL1        0.0709
      5 C          -7.3058  -11.4801   29.6924 C.ar    1  UNL1        0.0325
      6 C          -8.2462  -10.6233   30.2060 C.ar    1  UNL1        0.1401
      7 C          -9.6366  -10.8926   30.1270 C.ar    1  UNL1        0.0889
      8 C         -10.0455  -12.1143   29.5268 C.ar    1  UNL1        0.0282
      9 C          -9.0551  -12.9681   29.0192 C.ar    1  UNL1        0.0997
     10 N          -9.2218  -14.1549   28.4091 N.ar    1  UNL1       -0.2137
     11 C          -7.9415  -14.5260   28.1292 C.ar    1  UNL1        0.1983
     12 N          -7.0033  -13.6379   28.5408 N.ar    1  UNL1       -0.3255
     13 C          -7.7269  -12.6602   29.0963 C.ar    1  UNL1        0.0755
     14 O          -7.6406   -9.5253   30.7808 O.3     1  UNL1       -0.4824
     15 H          -5.9653  -13.7019   28.4465 H       1  UNL1        0.1686
     16 C         -10.6429   -9.9484   30.6643 C.2     1  UNL1        0.2535
     17 O         -10.3840   -8.7151   30.6743 O.2     1  UNL1       -0.2697
     18 N         -11.9209  -10.3916   31.1465 N.am    1  UNL1       -0.2657
     19 H         -12.7297   -9.7361   31.0532 H       1  UNL1        0.1566
     20 C         -12.1163  -11.6198   31.8650 C.ar    1  UNL1        0.1344
     21 C         -13.2293  -12.4218   31.5900 C.ar    1  UNL1        0.0344
     22 C         -13.3940  -13.6276   32.2731 C.ar    1  UNL1        0.0083
     23 C         -12.4659  -14.0178   33.2511 C.ar    1  UNL1        0.0906
     24 C         -11.3608  -13.1859   33.4918 C.ar    1  UNL1        0.1041
     25 N         -11.2185  -12.0205   32.8075 N.ar    1  UNL1       -0.2291
     26 C         -12.5952  -15.3473   33.9487 C.3     1  UNL1        0.4200
     27 F         -11.9311  -16.3120   33.2143 F       1  UNL1       -0.1658
     28 F         -13.9261  -15.7081   34.0689 F       1  UNL1       -0.1658
     29 F         -12.0458  -15.2882   35.2178 F       1  UNL1       -0.1658
     30 N          -7.6057  -15.7579   27.4806 N.pl3   1  UNL1       -0.2827
     31 H          -7.5292  -16.6208   28.0646 H       1  UNL1        0.1551
     32 C          -7.5869  -15.8885   26.0524 C.ar    1  UNL1        0.0718
     33 C          -8.5644  -16.6559   25.3843 C.ar    1  UNL1        0.0719
     34 CL         -9.8814  -17.4292   26.2584 Cl      1  UNL1       -0.0809
     35 C          -8.5295  -16.7697   23.9898 C.ar    1  UNL1        0.0127
     36 C          -7.5375  -16.1182   23.2547 C.ar    1  UNL1        0.0018
     37 C          -6.5791  -15.3413   23.9079 C.ar    1  UNL1        0.0127
     38 C          -6.6024  -15.2184   25.3014 C.ar    1  UNL1        0.0719
     39 CL         -5.3674  -14.2459   26.0900 Cl      1  UNL1       -0.0809
@<TRIPOS>BOND
     1     1     2    1
     2     2     3    1
     3     2     4    1
     4     4     5    1
     5     5     6   ar
     6     6     7   ar
     7     7    16    1
     8    16    17    2
     9    16    18   am
    10    18    20    1
    11    20    21   ar
    12    21    22   ar
    13    22    23   ar
    14    23    26    1
    15    26    27    1
    16    26    28    1
    17    26    29    1
    18    23    24   ar
    19    24    25   ar
    20     7     8   ar
    21     8     9   ar
    22     9    10   ar
    23    10    11   ar
    24    11    30    1
    25    30    32    1
    26    32    33   ar
    27    33    34    1
    28    33    35   ar
    29    35    36   ar
    30    36    37   ar
    31    37    38   ar
    32    38    39    1
    33    11    12   ar
    34    12    13   ar
    35     6    14    1
    36    14     2    1
    37    13     5   ar
    38    25    20   ar
    39    13     9   ar
    40    38    32   ar
    41    18    19    1
    42    30    31    1
    43    12    15    1
