@<TRIPOS>MOLECULE
*****
 37 42 0 0 0
SMALL
GASTEIGER

@<TRIPOS>ATOM
      1 C         -25.2348   -7.6815  -13.6894 C.ar    1  UNL1        0.1095
      2 N         -26.3232   -7.3663  -14.4352 N.ar    1  UNL1       -0.1677
      3 N         -27.3698   -7.2786  -13.6248 N.ar    1  UNL1       -0.2319
      4 C         -28.7382   -7.0610  -14.0744 C.3     1  UNL1        0.1554
      5 C         -26.9662   -7.5674  -12.3791 C.ar    1  UNL1        0.1654
      6 N         -27.7498   -7.6930  -11.2820 N.ar    1  UNL1       -0.2050
      7 C         -27.1556   -8.0355  -10.1035 C.ar    1  UNL1        0.2014
      8 N         -25.8002   -8.2135  -10.0367 N.ar    1  UNL1       -0.2089
      9 C         -24.9938   -8.0888  -11.1352 C.ar    1  UNL1        0.1379
     10 C         -25.6215   -7.7963  -12.3556 C.ar    1  UNL1        0.0865
     11 C         -23.4763   -9.3590  -14.5397 C.ar    1  UNL1        0.0809
     12 C         -23.9641   -8.0810  -14.3067 C.ar    1  UNL1        0.0577
     13 C         -23.0572   -7.2323  -14.9083 C.ar    1  UNL1        0.1231
     14 N         -22.0645   -7.9579  -15.4573 N.ar    1  UNL1       -0.1676
     15 N         -22.3243   -9.2384  -15.2396 N.ar    1  UNL1       -0.2488
     16 C         -21.4796  -10.3125  -15.7520 C.3     1  UNL1        0.1537
     17 C         -26.1471  -14.3141  -13.1566 C.3     1  UNL1        0.0310
     18 C         -25.4676  -13.0248  -13.5101 C.ar    1  UNL1       -0.0218
     19 C         -24.6370  -12.3861  -12.5788 C.ar    1  UNL1       -0.0042
     20 C         -23.9843  -11.1963  -12.9146 C.ar    1  UNL1        0.0012
     21 C         -24.1408  -10.6366  -14.1919 C.ar    1  UNL1        0.0174
     22 C         -24.9476  -11.2964  -15.1334 C.ar    1  UNL1        0.0012
     23 C         -25.6044  -12.4824  -14.7957 C.ar    1  UNL1       -0.0042
     24 N         -23.5634   -8.1278  -10.9724 N.pl3   1  UNL1       -0.2916
     25 C         -22.6789   -7.1701  -11.6226 C.3     1  UNL1        0.0961
     26 C         -21.6008   -6.8556  -10.5888 C.3     1  UNL1        0.0654
     27 C         -21.5020   -8.1632   -9.7492 C.3     1  UNL1        0.0814
     28 C         -22.9543   -8.6706   -9.7625 C.3     1  UNL1        0.1081
     29 N         -20.6137   -9.2393  -10.2976 N.3     1  UNL1       -0.2723
     30 C         -21.4433  -10.4340  -10.6025 C.3     1  UNL1        0.0721
     31 C         -20.6255  -11.5240  -11.2966 C.3     1  UNL1        0.0174
     32 C         -19.4691  -11.9518  -10.4016 C.3     1  UNL1        0.0029
     33 C         -18.6254  -10.7360  -10.0360 C.3     1  UNL1        0.0174
     34 C         -19.4824   -9.6213   -9.4167 C.3     1  UNL1        0.0721
     35 C         -22.0222   -5.6658   -9.6964 C.3     1  UNL1        0.1402
     36 O         -21.3340   -5.7021   -8.4728 O.3     1  UNL1       -0.3819
     37 H         -20.6002   -5.0361   -8.5285 H       1  UNL1        0.2104
@<TRIPOS>BOND
     1    17    18    1
     2    18    19   ar
     3    19    20   ar
     4    20    21   ar
     5    21    11    1
     6    11    12   ar
     7    12     1    1
     8     1     2   ar
     9     2     3   ar
    10     3     4    1
    11     3     5   ar
    12     5     6   ar
    13     6     7   ar
    14     7     8   ar
    15     8     9   ar
    16     9    24    1
    17    24    25    1
    18    25    26    1
    19    26    35    1
    20    35    36    1
    21    26    27    1
    22    27    29    1
    23    29    30    1
    24    30    31    1
    25    31    32    1
    26    32    33    1
    27    33    34    1
    28    27    28    1
    29     9    10   ar
    30    12    13   ar
    31    13    14   ar
    32    14    15   ar
    33    15    16    1
    34    21    22   ar
    35    22    23   ar
    36    23    18   ar
    37    15    11   ar
    38    10     1   ar
    39    10     5   ar
    40    28    24    1
    41    34    29    1
    42    36    37    1
@<TRIPOS>MOLECULE
*****
 37 42 0 0 0
SMALL
GASTEIGER

@<TRIPOS>ATOM
      1 C         -24.2697  -11.8789  -15.6297 C.ar    1  UNL1        0.1095
      2 N         -24.4015  -12.8858  -16.5292 N.ar    1  UNL1       -0.1677
      3 N         -24.9859  -13.9103  -15.9220 N.ar    1  UNL1       -0.2319
      4 C         -25.1998  -15.2135  -16.5368 C.3     1  UNL1        0.1554
      5 C         -25.1961  -13.5788  -14.6398 C.ar    1  UNL1        0.1654
      6 N         -25.6717  -14.3854  -13.6618 N.ar    1  UNL1       -0.2050
      7 C         -25.7760  -13.8750  -12.4017 C.ar    1  UNL1        0.2014
      8 N         -25.4366  -12.5730  -12.1510 N.ar    1  UNL1       -0.2089
      9 C         -24.9560  -11.7440  -13.1280 C.ar    1  UNL1        0.1379
     10 C         -24.7945  -12.2958  -14.4080 C.ar    1  UNL1        0.0865
     11 C         -22.3064  -10.2528  -15.2693 C.ar    1  UNL1        0.0809
     12 C         -23.4548  -10.6911  -15.9130 C.ar    1  UNL1        0.0577
     13 C         -23.6119   -9.8430  -16.9904 C.ar    1  UNL1        0.1231
     14 N         -22.6228   -8.9291  -16.9857 N.ar    1  UNL1       -0.1676
     15 N         -21.8346   -9.1836  -15.9520 N.ar    1  UNL1       -0.2488
     16 C         -20.6228   -8.4183  -15.6771 C.3     1  UNL1        0.1537
     17 C         -19.7795  -12.7973  -10.7152 C.3     1  UNL1        0.0310
     18 C         -20.4459  -12.1436  -11.8889 C.ar    1  UNL1       -0.0218
     19 C         -20.8442  -10.8014  -11.8173 C.ar    1  UNL1       -0.0042
     20 C         -21.4445  -10.1836  -12.9183 C.ar    1  UNL1        0.0012
     21 C         -21.6410  -10.8950  -14.1118 C.ar    1  UNL1        0.0174
     22 C         -21.2111  -12.2298  -14.1911 C.ar    1  UNL1        0.0012
     23 C         -20.6164  -12.8487  -13.0887 C.ar    1  UNL1       -0.0042
     24 N         -24.7698  -10.3449  -12.8420 N.pl3   1  UNL1       -0.2916
     25 C         -25.2218   -9.2976  -13.7482 C.3     1  UNL1        0.0961
     26 C         -25.7690   -8.1957  -12.8446 C.3     1  UNL1        0.0654
     27 C         -24.9318   -8.3388  -11.5396 C.3     1  UNL1        0.0814
     28 C         -24.6939   -9.8571  -11.4687 C.3     1  UNL1        0.1081
     29 N         -23.6030   -7.6447  -11.5234 N.3     1  UNL1       -0.2723
     30 C         -22.9238   -7.9435  -10.2358 C.3     1  UNL1        0.0721
     31 C         -21.5018   -7.3818  -10.2066 C.3     1  UNL1        0.0174
     32 C         -21.5388   -5.8705  -10.3964 C.3     1  UNL1        0.0029
     33 C         -22.2708   -5.5329  -11.6903 C.3     1  UNL1        0.0174
     34 C         -23.6651   -6.1771  -11.7332 C.3     1  UNL1        0.0721
     35 C         -27.2715   -8.4153  -12.5547 C.3     1  UNL1        0.1402
     36 O         -27.6136   -7.8768  -11.3036 O.3     1  UNL1       -0.3819
     37 H         -28.0615   -7.0069  -11.4707 H       1  UNL1        0.2104
@<TRIPOS>BOND
     1    17    18    1
     2    18    19   ar
     3    19    20   ar
     4    20    21   ar
     5    21    11    1
     6    11    12   ar
     7    12     1    1
     8     1     2   ar
     9     2     3   ar
    10     3     4    1
    11     3     5   ar
    12     5     6   ar
    13     6     7   ar
    14     7     8   ar
    15     8     9   ar
    16     9    24    1
    17    24    25    1
    18    25    26    1
    19    26    35    1
    20    35    36    1
    21    26    27    1
    22    27    29    1
    23    29    30    1
    24    30    31    1
    25    31    32    1
    26    32    33    1
    27    33    34    1
    28    27    28    1
    29     9    10   ar
    30    12    13   ar
    31    13    14   ar
    32    14    15   ar
    33    15    16    1
    34    21    22   ar
    35    22    23   ar
    36    23    18   ar
    37    15    11   ar
    38    10     1   ar
    39    10     5   ar
    40    28    24    1
    41    34    29    1
    42    36    37    1
@<TRIPOS>MOLECULE
*****
 37 42 0 0 0
SMALL
GASTEIGER

@<TRIPOS>ATOM
      1 C         -22.4119  -12.4843  -13.7092 C.ar    1  UNL1        0.1095
      2 N         -21.9063  -13.5643  -14.3559 N.ar    1  UNL1       -0.1677
      3 N         -22.9210  -14.3019  -14.7870 N.ar    1  UNL1       -0.2319
      4 C         -22.7744  -15.5982  -15.4352 C.3     1  UNL1        0.1554
      5 C         -24.0639  -13.7216  -14.3929 C.ar    1  UNL1        0.1654
      6 N         -25.3160  -14.2158  -14.5390 N.ar    1  UNL1       -0.2050
      7 C         -26.3553  -13.4936  -14.0315 C.ar    1  UNL1        0.2014
      8 N         -26.1299  -12.2892  -13.4217 N.ar    1  UNL1       -0.2089
      9 C         -24.8713  -11.7747  -13.2672 C.ar    1  UNL1        0.1379
     10 C         -23.8033  -12.5535  -13.7382 C.ar    1  UNL1        0.0865
     11 C         -21.2594  -10.2557  -13.1308 C.ar    1  UNL1        0.0809
     12 C         -21.5609  -11.5924  -12.9119 C.ar    1  UNL1        0.0577
     13 C         -20.9983  -11.8947  -11.6884 C.ar    1  UNL1        0.1231
     14 N         -20.3732  -10.8046  -11.2042 N.ar    1  UNL1       -0.1676
     15 N         -20.5390   -9.8177  -12.0721 N.ar    1  UNL1       -0.2488
     16 C         -20.0382   -8.4675  -11.8359 C.3     1  UNL1        0.1537
     17 C         -23.1778   -6.9880  -17.5172 C.3     1  UNL1        0.0310
     18 C         -22.6949   -7.8371  -16.3793 C.ar    1  UNL1       -0.0218
     19 C         -22.3266   -9.1714  -16.6007 C.ar    1  UNL1       -0.0042
     20 C         -21.8542   -9.9576  -15.5457 C.ar    1  UNL1        0.0012
     21 C         -21.7289   -9.4159  -14.2573 C.ar    1  UNL1        0.0174
     22 C         -22.0677   -8.0694  -14.0456 C.ar    1  UNL1        0.0012
     23 C         -22.5453   -7.2855  -15.0990 C.ar    1  UNL1       -0.0042
     24 N         -24.7102  -10.4346  -12.7652 N.pl3   1  UNL1       -0.2916
     25 C         -25.0610   -9.2602  -13.5527 C.3     1  UNL1        0.0961
     26 C         -25.6949   -8.2884  -12.5607 C.3     1  UNL1        0.0654
     27 C         -24.9987   -8.6322  -11.2111 C.3     1  UNL1        0.0814
     28 C         -24.7757  -10.1493  -11.3356 C.3     1  UNL1        0.1081
     29 N         -23.6759   -7.9729  -10.9591 N.3     1  UNL1       -0.2723
     30 C         -23.2946   -8.1944   -9.5399 C.3     1  UNL1        0.0721
     31 C         -21.8889   -7.6686   -9.2468 C.3     1  UNL1        0.0174
     32 C         -21.8242   -6.1747   -9.5391 C.3     1  UNL1        0.0029
     33 C         -22.2542   -5.9137  -10.9782 C.3     1  UNL1        0.0174
     34 C         -23.6333   -6.5234  -11.2734 C.3     1  UNL1        0.0721
     35 C         -27.2203   -8.5184  -12.4608 C.3     1  UNL1        0.1402
     36 O         -27.7034   -8.0731  -11.2197 O.3     1  UNL1       -0.3819
     37 H         -28.1306   -7.1900  -11.3703 H       1  UNL1        0.2104
@<TRIPOS>BOND
     1    17    18    1
     2    18    19   ar
     3    19    20   ar
     4    20    21   ar
     5    21    11    1
     6    11    12   ar
     7    12     1    1
     8     1     2   ar
     9     2     3   ar
    10     3     4    1
    11     3     5   ar
    12     5     6   ar
    13     6     7   ar
    14     7     8   ar
    15     8     9   ar
    16     9    24    1
    17    24    25    1
    18    25    26    1
    19    26    35    1
    20    35    36    1
    21    26    27    1
    22    27    29    1
    23    29    30    1
    24    30    31    1
    25    31    32    1
    26    32    33    1
    27    33    34    1
    28    27    28    1
    29     9    10   ar
    30    12    13   ar
    31    13    14   ar
    32    14    15   ar
    33    15    16    1
    34    21    22   ar
    35    22    23   ar
    36    23    18   ar
    37    15    11   ar
    38    10     1   ar
    39    10     5   ar
    40    28    24    1
    41    34    29    1
    42    36    37    1
@<TRIPOS>MOLECULE
*****
 37 42 0 0 0
SMALL
GASTEIGER

@<TRIPOS>ATOM
      1 C         -24.9699   -6.7331  -14.0791 C.ar    1  UNL1        0.1095
      2 N         -25.4382   -5.8203  -14.9667 N.ar    1  UNL1       -0.1677
      3 N         -26.7509   -5.7200  -14.8046 N.ar    1  UNL1       -0.2319
      4 C         -27.6219   -4.9156  -15.6510 C.3     1  UNL1        0.1554
      5 C         -27.1267   -6.5820  -13.8487 C.ar    1  UNL1        0.1654
      6 N         -28.3940   -6.8618  -13.4625 N.ar    1  UNL1       -0.2050
      7 C         -28.5777   -7.8058  -12.4958 C.ar    1  UNL1        0.2014
      8 N         -27.5022   -8.4235  -11.9170 N.ar    1  UNL1       -0.2089
      9 C         -26.2153   -8.1514  -12.2944 C.ar    1  UNL1        0.1379
     10 C         -26.0392   -7.2235  -13.3321 C.ar    1  UNL1        0.0865
     11 C         -22.8894   -7.6752  -15.2678 C.ar    1  UNL1        0.0809
     12 C         -23.5978   -7.2499  -14.1530 C.ar    1  UNL1        0.0577
     13 C         -22.6898   -7.2800  -13.1141 C.ar    1  UNL1        0.1231
     14 N         -21.5024   -7.7193  -13.5729 N.ar    1  UNL1       -0.1676
     15 N         -21.6246   -7.9492  -14.8717 N.ar    1  UNL1       -0.2488
     16 C         -20.5072   -8.3824  -15.7043 C.3     1  UNL1        0.1537
     17 C         -24.8927   -7.8557  -20.7041 C.3     1  UNL1        0.0310
     18 C         -24.3876   -7.8115  -19.2927 C.ar    1  UNL1       -0.0218
     19 C         -23.8888   -8.9719  -18.6847 C.ar    1  UNL1       -0.0042
     20 C         -23.3960   -8.9276  -17.3772 C.ar    1  UNL1        0.0012
     21 C         -23.3809   -7.7187  -16.6647 C.ar    1  UNL1        0.0174
     22 C         -23.8510   -6.5513  -17.2884 C.ar    1  UNL1        0.0012
     23 C         -24.3488   -6.5970  -18.5931 C.ar    1  UNL1       -0.0042
     24 N         -25.1226   -8.7105  -11.5411 N.pl3   1  UNL1       -0.2916
     25 C         -24.9472   -8.4566  -10.1174 C.3     1  UNL1        0.0961
     26 C         -24.4783   -9.7847   -9.5290 C.3     1  UNL1        0.0654
     27 C         -23.7119  -10.4591  -10.7048 C.3     1  UNL1        0.0814
     28 C         -24.5019   -9.9721  -11.9318 C.3     1  UNL1        0.1081
     29 N         -22.2749  -10.0658  -10.8734 N.3     1  UNL1       -0.2723
     30 C         -21.4457  -11.2979  -10.9260 C.3     1  UNL1        0.0721
     31 C         -19.9830  -10.9782  -11.2371 C.3     1  UNL1        0.0174
     32 C         -19.4156  -10.0567  -10.1646 C.3     1  UNL1        0.0029
     33 C         -20.2749   -8.8021  -10.0580 C.3     1  UNL1        0.0174
     34 C         -21.7538   -9.1502   -9.8287 C.3     1  UNL1        0.0721
     35 C         -25.6823  -10.6519   -9.0951 C.3     1  UNL1        0.1402
     36 O         -26.3389  -10.0671   -8.0002 O.3     1  UNL1       -0.3819
     37 H         -27.1504   -9.6159   -8.3510 H       1  UNL1        0.2104
@<TRIPOS>BOND
     1    17    18    1
     2    18    19   ar
     3    19    20   ar
     4    20    21   ar
     5    21    11    1
     6    11    12   ar
     7    12     1    1
     8     1     2   ar
     9     2     3   ar
    10     3     4    1
    11     3     5   ar
    12     5     6   ar
    13     6     7   ar
    14     7     8   ar
    15     8     9   ar
    16     9    24    1
    17    24    25    1
    18    25    26    1
    19    26    35    1
    20    35    36    1
    21    26    27    1
    22    27    29    1
    23    29    30    1
    24    30    31    1
    25    31    32    1
    26    32    33    1
    27    33    34    1
    28    27    28    1
    29     9    10   ar
    30    12    13   ar
    31    13    14   ar
    32    14    15   ar
    33    15    16    1
    34    21    22   ar
    35    22    23   ar
    36    23    18   ar
    37    15    11   ar
    38    10     1   ar
    39    10     5   ar
    40    28    24    1
    41    34    29    1
    42    36    37    1
@<TRIPOS>MOLECULE
*****
 37 42 0 0 0
SMALL
GASTEIGER

@<TRIPOS>ATOM
      1 C         -22.1865   -9.6066  -13.1083 C.ar    1  UNL1        0.1095
      2 N         -21.2667  -10.5638  -12.8293 N.ar    1  UNL1       -0.1677
      3 N         -21.2176  -10.7206  -11.5130 N.ar    1  UNL1       -0.2319
      4 C         -20.2695  -11.5871  -10.8258 C.3     1  UNL1        0.1554
      5 C         -22.0701   -9.8513  -10.9510 C.ar    1  UNL1        0.1654
      6 N         -22.2364   -9.6202   -9.6272 N.ar    1  UNL1       -0.2050
      7 C         -23.1276   -8.6600   -9.2493 C.ar    1  UNL1        0.2014
      8 N         -23.8513   -7.9775  -10.1895 N.ar    1  UNL1       -0.2089
      9 C         -23.6966   -8.1997  -11.5309 C.ar    1  UNL1        0.1379
     10 C         -22.7335   -9.1463  -11.9122 C.ar    1  UNL1        0.0865
     11 C         -22.8460   -9.6069  -15.5971 C.ar    1  UNL1        0.0809
     12 C         -22.3179   -9.0288  -14.4515 C.ar    1  UNL1        0.0577
     13 C         -22.0557   -7.7182  -14.7954 C.ar    1  UNL1        0.1231
     14 N         -22.3886   -7.5210  -16.0853 N.ar    1  UNL1       -0.1676
     15 N         -22.8709   -8.6586  -16.5625 N.ar    1  UNL1       -0.2488
     16 C         -23.3856   -8.7883  -17.9219 C.3     1  UNL1        0.1537
     17 C         -24.9640  -14.9863  -16.0149 C.3     1  UNL1        0.0310
     18 C         -24.4118  -13.5974  -15.8935 C.ar    1  UNL1       -0.0218
     19 C         -23.1038  -13.3184  -16.3137 C.ar    1  UNL1       -0.0042
     20 C         -22.5952  -12.0194  -16.2228 C.ar    1  UNL1        0.0012
     21 C         -23.3929  -10.9778  -15.7249 C.ar    1  UNL1        0.0174
     22 C         -24.7137  -11.2541  -15.3354 C.ar    1  UNL1        0.0012
     23 C         -25.2199  -12.5536  -15.4208 C.ar    1  UNL1       -0.0042
     24 N         -24.5971   -7.5704  -12.4620 N.pl3   1  UNL1       -0.2916
     25 C         -25.5397   -8.3322  -13.2704 C.3     1  UNL1        0.0961
     26 C         -26.8150   -7.4937  -13.2941 C.3     1  UNL1        0.0654
     27 C         -26.2979   -6.0313  -13.1589 C.3     1  UNL1        0.0814
     28 C         -25.0640   -6.2031  -12.2563 C.3     1  UNL1        0.1081
     29 N         -25.8722   -5.3572  -14.4287 N.3     1  UNL1       -0.2723
     30 C         -26.9371   -4.4083  -14.8458 C.3     1  UNL1        0.0721
     31 C         -26.5098   -3.5818  -16.0594 C.3     1  UNL1        0.0174
     32 C         -26.1973   -4.5055  -17.2300 C.3     1  UNL1        0.0029
     33 C         -25.1377   -5.5200  -16.8153 C.3     1  UNL1        0.0174
     34 C         -25.5517   -6.2798  -15.5457 C.3     1  UNL1        0.0721
     35 C         -27.7366   -7.8574  -12.1074 C.3     1  UNL1        0.1402
     36 O         -29.0494   -8.0773  -12.5551 O.3     1  UNL1       -0.3819
     37 H         -29.1852   -9.0596  -12.5963 H       1  UNL1        0.2104
@<TRIPOS>BOND
     1    17    18    1
     2    18    19   ar
     3    19    20   ar
     4    20    21   ar
     5    21    11    1
     6    11    12   ar
     7    12     1    1
     8     1     2   ar
     9     2     3   ar
    10     3     4    1
    11     3     5   ar
    12     5     6   ar
    13     6     7   ar
    14     7     8   ar
    15     8     9   ar
    16     9    24    1
    17    24    25    1
    18    25    26    1
    19    26    35    1
    20    35    36    1
    21    26    27    1
    22    27    29    1
    23    29    30    1
    24    30    31    1
    25    31    32    1
    26    32    33    1
    27    33    34    1
    28    27    28    1
    29     9    10   ar
    30    12    13   ar
    31    13    14   ar
    32    14    15   ar
    33    15    16    1
    34    21    22   ar
    35    22    23   ar
    36    23    18   ar
    37    15    11   ar
    38    10     1   ar
    39    10     5   ar
    40    28    24    1
    41    34    29    1
    42    36    37    1
@<TRIPOS>MOLECULE
*****
 37 42 0 0 0
SMALL
GASTEIGER

@<TRIPOS>ATOM
      1 C         -22.1857  -12.0079  -12.0808 C.ar    1  UNL1        0.1095
      2 N         -21.2690  -13.0063  -12.0255 N.ar    1  UNL1       -0.1677
      3 N         -20.1853  -12.5411  -11.4181 N.ar    1  UNL1       -0.2319
      4 C         -18.9455  -13.2907  -11.2665 C.3     1  UNL1        0.1554
      5 C         -20.3897  -11.2504  -11.1173 C.ar    1  UNL1        0.1654
      6 N         -19.4881  -10.3887  -10.5901 N.ar    1  UNL1       -0.2050
      7 C         -19.8736   -9.0956  -10.3935 C.ar    1  UNL1        0.2014
      8 N         -21.1486   -8.6991  -10.6947 N.ar    1  UNL1       -0.2089
      9 C         -22.0723   -9.5573  -11.2265 C.ar    1  UNL1        0.1379
     10 C         -21.6481  -10.8703  -11.4820 C.ar    1  UNL1        0.0865
     11 C         -23.7112  -11.4829  -14.0873 C.ar    1  UNL1        0.0809
     12 C         -23.4029  -12.1201  -12.8939 C.ar    1  UNL1        0.0577
     13 C         -24.4358  -13.0105  -12.6816 C.ar    1  UNL1        0.1231
     14 N         -25.3301  -12.9020  -13.6826 N.ar    1  UNL1       -0.1676
     15 N         -24.8866  -11.9863  -14.5308 N.ar    1  UNL1       -0.2488
     16 C         -25.5842  -11.6547  -15.7690 C.3     1  UNL1        0.1537
     17 C         -20.3416   -7.6734  -16.8682 C.3     1  UNL1        0.0310
     18 C         -21.2046   -8.6585  -16.1375 C.ar    1  UNL1       -0.0218
     19 C         -22.2935   -8.2137  -15.3749 C.ar    1  UNL1       -0.0042
     20 C         -23.1130   -9.1320  -14.7119 C.ar    1  UNL1        0.0012
     21 C         -22.8642  -10.5092  -14.8149 C.ar    1  UNL1        0.0174
     22 C         -21.7922  -10.9532  -15.6063 C.ar    1  UNL1        0.0012
     23 C         -20.9698  -10.0349  -16.2641 C.ar    1  UNL1       -0.0042
     24 N         -23.4390   -9.1270  -11.3709 N.pl3   1  UNL1       -0.2916
     25 C         -24.5657   -9.9755  -11.0064 C.3     1  UNL1        0.0961
     26 C         -25.5808   -9.0366  -10.3599 C.3     1  UNL1        0.0654
     27 C         -25.3174   -7.6704  -11.0590 C.3     1  UNL1        0.0814
     28 C         -23.7986   -7.7144  -11.3005 C.3     1  UNL1        0.1081
     29 N         -26.0052   -7.4533  -12.3735 N.3     1  UNL1       -0.2723
     30 C         -25.7351   -6.0651  -12.8301 C.3     1  UNL1        0.0721
     31 C         -26.2904   -5.8169  -14.2332 C.3     1  UNL1        0.0174
     32 C         -27.7966   -6.0459  -14.2412 C.3     1  UNL1        0.0029
     33 C         -28.1055   -7.4498  -13.7338 C.3     1  UNL1        0.0174
     34 C         -27.4674   -7.7052  -12.3596 C.3     1  UNL1        0.0721
     35 C         -25.3378   -8.9251   -8.8373 C.3     1  UNL1        0.1402
     36 O         -25.8288  -10.0633   -8.1774 O.3     1  UNL1       -0.3819
     37 H         -25.0499  -10.6441   -7.9745 H       1  UNL1        0.2104
@<TRIPOS>BOND
     1    17    18    1
     2    18    19   ar
     3    19    20   ar
     4    20    21   ar
     5    21    11    1
     6    11    12   ar
     7    12     1    1
     8     1     2   ar
     9     2     3   ar
    10     3     4    1
    11     3     5   ar
    12     5     6   ar
    13     6     7   ar
    14     7     8   ar
    15     8     9   ar
    16     9    24    1
    17    24    25    1
    18    25    26    1
    19    26    35    1
    20    35    36    1
    21    26    27    1
    22    27    29    1
    23    29    30    1
    24    30    31    1
    25    31    32    1
    26    32    33    1
    27    33    34    1
    28    27    28    1
    29     9    10   ar
    30    12    13   ar
    31    13    14   ar
    32    14    15   ar
    33    15    16    1
    34    21    22   ar
    35    22    23   ar
    36    23    18   ar
    37    15    11   ar
    38    10     1   ar
    39    10     5   ar
    40    28    24    1
    41    34    29    1
    42    36    37    1
@<TRIPOS>MOLECULE
*****
 37 42 0 0 0
SMALL
GASTEIGER

@<TRIPOS>ATOM
      1 C         -21.1971   -9.3246   -9.7593 C.ar    1  UNL1        0.1095
      2 N         -20.4424   -9.4514   -8.6392 N.ar    1  UNL1       -0.1677
      3 N         -20.3657   -8.2632   -8.0543 N.ar    1  UNL1       -0.2319
      4 C         -19.5506   -7.9787   -6.8810 C.3     1  UNL1        0.1554
      5 C         -21.0338   -7.3769   -8.8068 C.ar    1  UNL1        0.1654
      6 N         -21.1029   -6.0386   -8.6130 N.ar    1  UNL1       -0.2050
      7 C         -21.8015   -5.2936   -9.5165 C.ar    1  UNL1        0.2014
      8 N         -22.4374   -5.8964  -10.5679 N.ar    1  UNL1       -0.2089
      9 C         -22.3790   -7.2474  -10.7773 C.ar    1  UNL1        0.1379
     10 C         -21.6075   -7.9982   -9.8773 C.ar    1  UNL1        0.0865
     11 C         -20.3864  -11.4246  -11.0090 C.ar    1  UNL1        0.0809
     12 C         -21.2845  -10.3971  -10.7580 C.ar    1  UNL1        0.0577
     13 C         -22.3742  -10.6646  -11.5616 C.ar    1  UNL1        0.1231
     14 N         -22.1381  -11.7823  -12.2746 N.ar    1  UNL1       -0.1676
     15 N         -20.9432  -12.2411  -11.9337 N.ar    1  UNL1       -0.2488
     16 C         -20.3901  -13.4787  -12.4740 C.3     1  UNL1        0.1537
     17 C         -15.3889  -12.3773   -8.2312 C.3     1  UNL1        0.0310
     18 C         -16.6890  -12.1339   -8.9379 C.ar    1  UNL1       -0.0218
     19 C         -17.2309  -10.8423   -8.9942 C.ar    1  UNL1       -0.0042
     20 C         -18.4310  -10.6094   -9.6724 C.ar    1  UNL1        0.0012
     21 C         -19.0980  -11.6622  -10.3172 C.ar    1  UNL1        0.0174
     22 C         -18.5355  -12.9488  -10.2868 C.ar    1  UNL1        0.0012
     23 C         -17.3391  -13.1825   -9.6039 C.ar    1  UNL1       -0.0042
     24 N         -23.1976   -7.8418  -11.8023 N.pl3   1  UNL1       -0.2916
     25 C         -24.6418   -7.9762  -11.6657 C.3     1  UNL1        0.0961
     26 C         -25.2048   -7.6690  -13.0509 C.3     1  UNL1        0.0654
     27 C         -24.0700   -8.1172  -14.0182 C.3     1  UNL1        0.0814
     28 C         -22.8030   -7.7965  -13.2065 C.3     1  UNL1        0.1081
     29 N         -24.0471   -9.5702  -14.3874 N.3     1  UNL1       -0.2723
     30 C         -23.3948   -9.7154  -15.7148 C.3     1  UNL1        0.0721
     31 C         -23.2107  -11.1856  -16.0928 C.3     1  UNL1        0.0174
     32 C         -24.5654  -11.8813  -16.1393 C.3     1  UNL1        0.0029
     33 C         -25.2771  -11.7096  -14.8022 C.3     1  UNL1        0.0174
     34 C         -25.3764  -10.2292  -14.4029 C.3     1  UNL1        0.0721
     35 C         -25.4894   -6.1577  -13.2083 C.3     1  UNL1        0.1402
     36 O         -25.0841   -5.4598  -12.0591 O.3     1  UNL1       -0.3819
     37 H         -24.2137   -5.0308  -12.2675 H       1  UNL1        0.2104
@<TRIPOS>BOND
     1    17    18    1
     2    18    19   ar
     3    19    20   ar
     4    20    21   ar
     5    21    11    1
     6    11    12   ar
     7    12     1    1
     8     1     2   ar
     9     2     3   ar
    10     3     4    1
    11     3     5   ar
    12     5     6   ar
    13     6     7   ar
    14     7     8   ar
    15     8     9   ar
    16     9    24    1
    17    24    25    1
    18    25    26    1
    19    26    35    1
    20    35    36    1
    21    26    27    1
    22    27    29    1
    23    29    30    1
    24    30    31    1
    25    31    32    1
    26    32    33    1
    27    33    34    1
    28    27    28    1
    29     9    10   ar
    30    12    13   ar
    31    13    14   ar
    32    14    15   ar
    33    15    16    1
    34    21    22   ar
    35    22    23   ar
    36    23    18   ar
    37    15    11   ar
    38    10     1   ar
    39    10     5   ar
    40    28    24    1
    41    34    29    1
    42    36    37    1
@<TRIPOS>MOLECULE
*****
 37 42 0 0 0
SMALL
GASTEIGER

@<TRIPOS>ATOM
      1 C         -21.5865   -7.2274  -12.4605 C.ar    1  UNL1        0.1095
      2 N         -21.2925   -5.9439  -12.1343 N.ar    1  UNL1       -0.1677
      3 N         -21.4978   -5.7895  -10.8328 N.ar    1  UNL1       -0.2319
      4 C         -21.3911   -4.5170  -10.1318 C.3     1  UNL1        0.1554
      5 C         -21.9507   -6.9494  -10.3351 C.ar    1  UNL1        0.1654
      6 N         -22.3800   -7.1761   -9.0711 N.ar    1  UNL1       -0.2050
      7 C         -22.8468   -8.4200   -8.7643 C.ar    1  UNL1        0.2014
      8 N         -22.8470   -9.4123   -9.7070 N.ar    1  UNL1       -0.2089
      9 C         -22.4153   -9.2004  -10.9881 C.ar    1  UNL1        0.1379
     10 C         -21.9940   -7.9015  -11.3111 C.ar    1  UNL1        0.0865
     11 C         -22.8282   -7.9620  -14.5930 C.ar    1  UNL1        0.0809
     12 C         -21.6893   -7.6656  -13.8579 C.ar    1  UNL1        0.0577
     13 C         -20.6478   -7.7335  -14.7610 C.ar    1  UNL1        0.1231
     14 N         -21.1297   -8.0728  -15.9719 N.ar    1  UNL1       -0.1676
     15 N         -22.4439   -8.2023  -15.8683 N.ar    1  UNL1       -0.2488
     16 C         -23.2985   -8.5086  -17.0109 C.3     1  UNL1        0.1537
     17 C         -28.2786   -7.7683  -12.6296 C.3     1  UNL1        0.0310
     18 C         -26.8637   -7.8164  -13.1243 C.ar    1  UNL1       -0.0218
     19 C         -26.1955   -9.0438  -13.2341 C.ar    1  UNL1       -0.0042
     20 C         -24.8845   -9.0930  -13.7170 C.ar    1  UNL1        0.0012
     21 C         -24.2286   -7.9168  -14.1116 C.ar    1  UNL1        0.0174
     22 C         -24.9123   -6.6926  -14.0312 C.ar    1  UNL1        0.0012
     23 C         -26.2205   -6.6430  -13.5430 C.ar    1  UNL1       -0.0042
     24 N         -22.2873  -10.3184  -11.8869 N.pl3   1  UNL1       -0.2916
     25 C         -21.0373  -10.6331  -12.5658 C.3     1  UNL1        0.0961
     26 C         -20.9446  -12.1566  -12.5469 C.3     1  UNL1        0.0654
     27 C         -22.4320  -12.6170  -12.5520 C.3     1  UNL1        0.0814
     28 C         -23.1204  -11.5073  -11.7386 C.3     1  UNL1        0.1081
     29 N         -23.0945  -12.7083  -13.8939 N.3     1  UNL1       -0.2723
     30 C         -24.5513  -12.9230  -13.6936 C.3     1  UNL1        0.0721
     31 C         -25.3125  -12.8863  -15.0193 C.3     1  UNL1        0.0174
     32 C         -24.7853  -13.9725  -15.9486 C.3     1  UNL1        0.0029
     33 C         -23.2820  -13.8027  -16.1365 C.3     1  UNL1        0.0174
     34 C         -22.5473  -13.7586  -14.7878 C.3     1  UNL1        0.0721
     35 C         -20.2261  -12.6500  -11.2701 C.3     1  UNL1        0.1402
     36 O         -19.4325  -13.7726  -11.5564 O.3     1  UNL1       -0.3819
     37 H         -18.4933  -13.4590  -11.6242 H       1  UNL1        0.2104
@<TRIPOS>BOND
     1    17    18    1
     2    18    19   ar
     3    19    20   ar
     4    20    21   ar
     5    21    11    1
     6    11    12   ar
     7    12     1    1
     8     1     2   ar
     9     2     3   ar
    10     3     4    1
    11     3     5   ar
    12     5     6   ar
    13     6     7   ar
    14     7     8   ar
    15     8     9   ar
    16     9    24    1
    17    24    25    1
    18    25    26    1
    19    26    35    1
    20    35    36    1
    21    26    27    1
    22    27    29    1
    23    29    30    1
    24    30    31    1
    25    31    32    1
    26    32    33    1
    27    33    34    1
    28    27    28    1
    29     9    10   ar
    30    12    13   ar
    31    13    14   ar
    32    14    15   ar
    33    15    16    1
    34    21    22   ar
    35    22    23   ar
    36    23    18   ar
    37    15    11   ar
    38    10     1   ar
    39    10     5   ar
    40    28    24    1
    41    34    29    1
    42    36    37    1
@<TRIPOS>MOLECULE
*****
 37 42 0 0 0
SMALL
GASTEIGER

@<TRIPOS>ATOM
      1 C         -23.1512   -6.5295  -11.9873 C.ar    1  UNL1        0.1095
      2 N         -23.0684   -5.4876  -11.1225 N.ar    1  UNL1       -0.1677
      3 N         -21.9593   -5.6286  -10.4085 N.ar    1  UNL1       -0.2319
      4 C         -21.5813   -4.7600   -9.3019 C.3     1  UNL1        0.1554
      5 C         -21.3546   -6.7645  -10.7855 C.ar    1  UNL1        0.1654
      6 N         -20.2549   -7.3216  -10.2253 N.ar    1  UNL1       -0.2050
      7 C         -19.8111   -8.5102  -10.7248 C.ar    1  UNL1        0.2014
      8 N         -20.4486   -9.0983  -11.7836 N.ar    1  UNL1       -0.2089
      9 C         -21.5598   -8.5481  -12.3623 C.ar    1  UNL1        0.1379
     10 C         -22.0450   -7.3564  -11.8024 C.ar    1  UNL1        0.0865
     11 C         -25.3940   -7.6952  -12.4774 C.ar    1  UNL1        0.0809
     12 C         -24.3716   -6.7998  -12.7573 C.ar    1  UNL1        0.0577
     13 C         -24.8016   -6.0934  -13.8622 C.ar    1  UNL1        0.1231
     14 N         -26.0098   -6.5517  -14.2413 N.ar    1  UNL1       -0.1676
     15 N         -26.3664   -7.5112  -13.4006 N.ar    1  UNL1       -0.2488
     16 C         -27.6543   -8.1925  -13.4821 C.3     1  UNL1        0.1537
     17 C         -25.6495  -11.2351   -7.8945 C.3     1  UNL1        0.0310
     18 C         -25.5738  -10.3112   -9.0733 C.ar    1  UNL1       -0.0218
     19 C         -24.6824  -10.5765  -10.1221 C.ar    1  UNL1       -0.0042
     20 C         -24.6269   -9.7291  -11.2326 C.ar    1  UNL1        0.0012
     21 C         -25.4733   -8.6130  -11.3171 C.ar    1  UNL1        0.0174
     22 C         -26.3882   -8.3685  -10.2799 C.ar    1  UNL1        0.0012
     23 C         -26.4394   -9.2122   -9.1674 C.ar    1  UNL1       -0.0042
     24 N         -22.0892   -9.1256  -13.5707 N.pl3   1  UNL1       -0.2916
     25 C         -22.4922   -8.3132  -14.7109 C.3     1  UNL1        0.0961
     26 C         -22.0393   -9.0968  -15.9401 C.3     1  UNL1        0.0654
     27 C         -22.1023  -10.5815  -15.4752 C.3     1  UNL1        0.0814
     28 C         -21.7219  -10.4748  -13.9883 C.3     1  UNL1        0.1081
     29 N         -23.4378  -11.2546  -15.5807 N.3     1  UNL1       -0.2723
     30 C         -24.0077  -11.4015  -14.2161 C.3     1  UNL1        0.0721
     31 C         -25.4327  -11.9546  -14.2585 C.3     1  UNL1        0.0174
     32 C         -25.4378  -13.3193  -14.9360 C.3     1  UNL1        0.0029
     33 C         -24.8165  -13.2064  -16.3235 C.3     1  UNL1        0.0174
     34 C         -23.4187  -12.5712  -16.2647 C.3     1  UNL1        0.0721
     35 C         -20.5963   -8.7118  -16.3393 C.3     1  UNL1        0.1402
     36 O         -20.5570   -7.3959  -16.8282 O.3     1  UNL1       -0.3819
     37 H         -20.2079   -6.8214  -16.0980 H       1  UNL1        0.2104
@<TRIPOS>BOND
     1    17    18    1
     2    18    19   ar
     3    19    20   ar
     4    20    21   ar
     5    21    11    1
     6    11    12   ar
     7    12     1    1
     8     1     2   ar
     9     2     3   ar
    10     3     4    1
    11     3     5   ar
    12     5     6   ar
    13     6     7   ar
    14     7     8   ar
    15     8     9   ar
    16     9    24    1
    17    24    25    1
    18    25    26    1
    19    26    35    1
    20    35    36    1
    21    26    27    1
    22    27    29    1
    23    29    30    1
    24    30    31    1
    25    31    32    1
    26    32    33    1
    27    33    34    1
    28    27    28    1
    29     9    10   ar
    30    12    13   ar
    31    13    14   ar
    32    14    15   ar
    33    15    16    1
    34    21    22   ar
    35    22    23   ar
    36    23    18   ar
    37    15    11   ar
    38    10     1   ar
    39    10     5   ar
    40    28    24    1
    41    34    29    1
    42    36    37    1
