@<TRIPOS>MOLECULE
*****
 50 55 0 0 0
SMALL
GASTEIGER

@<TRIPOS>ATOM
      1 O          58.3971   83.9880   11.4099 O.2     1  UNL1       -0.2701
      2 C          59.2626   83.7726   12.3023 C.2     1  UNL1        0.2483
      3 N          59.3176   82.4915   12.9508 N.am    1  UNL1       -0.2945
      4 H          59.7941   82.4316   13.8793 H       1  UNL1        0.1501
      5 C          60.1868   84.8618   12.6936 C.ar    1  UNL1        0.0808
      6 C          59.7085   85.9343   13.4659 C.ar    1  UNL1        0.0080
      7 C          60.5635   86.9698   13.8511 C.ar    1  UNL1        0.0148
      8 C          61.9109   86.9586   13.4646 C.ar    1  UNL1        0.0502
      9 C          62.3882   85.9006   12.6755 C.ar    1  UNL1        0.0443
     10 C          61.5367   84.8607   12.2893 C.ar    1  UNL1        0.1457
     11 F          62.0264   83.8831   11.4855 F       1  UNL1       -0.2040
     12 N          62.7889   88.0281   13.8645 N.pl3   1  UNL1       -0.3034
     13 C          63.3458   88.9220   12.8376 C.3     1  UNL1        0.1123
     14 C          63.5125   90.3346   13.3901 C.3     1  UNL1        0.1122
     15 N          64.1964   90.2829   14.6841 N.pl3   1  UNL1       -0.3040
     16 C          63.5982   89.4542   15.7353 C.3     1  UNL1        0.1131
     17 C          63.3596   88.0196   15.2263 C.3     1  UNL1        0.1219
     18 C          65.2647   91.2006   14.9835 C.ar    1  UNL1        0.0488
     19 C          65.1487   92.1120   16.0456 C.ar    1  UNL1        0.0154
     20 C          66.1924   92.9946   16.3349 C.ar    1  UNL1        0.0135
     21 C          67.3641   92.9773   15.5710 C.ar    1  UNL1        0.0683
     22 CL         68.6560   94.1028   15.9666 Cl      1  UNL1       -0.0814
     23 C          67.4903   92.0667   14.5084 C.ar    1  UNL1        0.0694
     24 CL         68.9488   92.0059   13.5282 Cl      1  UNL1       -0.0813
     25 C          66.4427   91.1843   14.2197 C.ar    1  UNL1        0.0268
     26 C          64.6321   87.1513   15.2851 C.3     1  UNL1        0.1585
     27 O          64.3407   85.8223   15.6273 O.3     1  UNL1       -0.3802
     28 H          64.1820   85.3333   14.7785 H       1  UNL1        0.2105
     29 C          58.5034   81.3525   12.5133 C.3     1  UNL1        0.1535
     30 C          58.4362   81.3004   11.0040 C.2     1  UNL1        0.2443
     31 O          57.3768   80.9222   10.4336 O.2     1  UNL1       -0.2730
     32 N          59.5795   81.6994   10.2282 N.am    1  UNL1       -0.2825
     33 H          60.5007   81.7510   10.7194 H       1  UNL1        0.1549
     34 C          59.5605   81.9965    8.8196 C.ar    1  UNL1        0.0535
     35 C          58.6838   81.3474    7.9315 C.ar    1  UNL1        0.0353
     36 C          58.6759   81.7085    6.5821 C.ar    1  UNL1        0.1002
     37 N          59.5036   82.6875    6.1319 N.ar    1  UNL1       -0.2422
     38 C          60.3515   83.3418    6.9681 C.ar    1  UNL1        0.1002
     39 C          60.3887   83.0143    8.3253 C.ar    1  UNL1        0.0353
     40 C          59.0892   80.0514   13.0878 C.3     1  UNL1        0.0569
     41 C          60.5796   79.9865   12.9043 C.ar    1  UNL1       -0.0017
     42 C          61.2601   79.2182   11.9643 C.ar    1  UNL1        0.0681
     43 N          62.5816   79.5049   11.9868 N.ar    1  UNL1       -0.3523
     44 C          62.7399   80.4553   12.9242 C.ar    1  UNL1        0.0563
     45 C          63.9232   81.1011   13.2800 C.ar    1  UNL1        0.0170
     46 C          63.8555   82.1011   14.2670 C.ar    1  UNL1        0.0015
     47 C          62.6211   82.4298   14.8690 C.ar    1  UNL1        0.0001
     48 C          61.4428   81.7623   14.4890 C.ar    1  UNL1        0.0012
     49 C          61.5406   80.7759   13.5071 C.ar    1  UNL1        0.0131
     50 H          63.3214   79.0899   11.3777 H       1  UNL1        0.1660
@<TRIPOS>BOND
     1     1     2    2
     2     2     3   am
     3     3    29    1
     4    29    40    1
     5    40    41    1
     6    41    42   ar
     7    42    43   ar
     8    43    44   ar
     9    44    45   ar
    10    45    46   ar
    11    46    47   ar
    12    47    48   ar
    13    48    49   ar
    14    29    30    1
    15    30    31    2
    16    30    32   am
    17    32    34    1
    18    34    35   ar
    19    35    36   ar
    20    36    37   ar
    21    37    38   ar
    22    38    39   ar
    23     2     5    1
    24     5     6   ar
    25     6     7   ar
    26     7     8   ar
    27     8    12    1
    28    12    13    1
    29    13    14    1
    30    14    15    1
    31    15    18    1
    32    18    19   ar
    33    19    20   ar
    34    20    21   ar
    35    21    22    1
    36    21    23   ar
    37    23    24    1
    38    23    25   ar
    39    15    16    1
    40    16    17    1
    41    17    26    1
    42    26    27    1
    43     8     9   ar
    44     9    10   ar
    45    10    11    1
    46    49    41   ar
    47    39    34   ar
    48    10     5   ar
    49    49    44   ar
    50    17    12    1
    51    25    18   ar
    52     3     4    1
    53    43    50    1
    54    32    33    1
    55    27    28    1
@<TRIPOS>MOLECULE
*****
 50 55 0 0 0
SMALL
GASTEIGER

@<TRIPOS>ATOM
      1 O          57.6045   85.1944   12.6655 O.2     1  UNL1       -0.2701
      2 C          58.7968   84.8377   12.8727 C.2     1  UNL1        0.2483
      3 N          59.1477   83.4456   12.8116 N.am    1  UNL1       -0.2945
      4 H          60.0242   83.1390   13.2917 H       1  UNL1        0.1501
      5 C          59.8109   85.8619   13.2138 C.ar    1  UNL1        0.0808
      6 C          61.1769   85.5508   13.1014 C.ar    1  UNL1        0.0080
      7 C          62.1508   86.5029   13.4125 C.ar    1  UNL1        0.0148
      8 C          61.7788   87.7815   13.8506 C.ar    1  UNL1        0.0502
      9 C          60.4163   88.0900   13.9848 C.ar    1  UNL1        0.0443
     10 C          59.4379   87.1410   13.6725 C.ar    1  UNL1        0.1457
     11 F          58.1336   87.4638   13.8635 F       1  UNL1       -0.2040
     12 N          62.7863   88.7602   14.1697 N.pl3   1  UNL1       -0.3034
     13 C          63.8808   89.0010   13.2169 C.3     1  UNL1        0.1123
     14 C          64.3115   90.4644   13.2541 C.3     1  UNL1        0.1122
     15 N          64.5187   90.8846   14.6417 N.pl3   1  UNL1       -0.3040
     16 C          63.4004   90.7188   15.5753 C.3     1  UNL1        0.1131
     17 C          62.8849   89.2669   15.5531 C.3     1  UNL1        0.1219
     18 C          65.6795   91.6543   15.0069 C.ar    1  UNL1        0.0488
     19 C          65.6406   92.5320   16.1024 C.ar    1  UNL1        0.0154
     20 C          66.7730   93.2702   16.4554 C.ar    1  UNL1        0.0135
     21 C          67.9575   93.1402   15.7225 C.ar    1  UNL1        0.0683
     22 CL         69.3620   94.0852   16.1982 Cl      1  UNL1       -0.0814
     23 C          68.0065   92.2621   14.6268 C.ar    1  UNL1        0.0694
     24 CL         69.4770   92.0625   13.6837 Cl      1  UNL1       -0.0813
     25 C          66.8702   91.5245   14.2744 C.ar    1  UNL1        0.0268
     26 C          63.7357   88.3232   16.4261 C.3     1  UNL1        0.1585
     27 O          62.9510   87.6242   17.3556 O.3     1  UNL1       -0.3802
     28 H          62.6672   86.7801   16.9177 H       1  UNL1        0.2105
     29 C          58.2048   82.4154   12.3627 C.3     1  UNL1        0.1535
     30 C          57.9757   82.5228   10.8724 C.2     1  UNL1        0.2443
     31 O          57.3409   83.5059   10.4021 O.2     1  UNL1       -0.2730
     32 N          58.4995   81.5077    9.9985 N.am    1  UNL1       -0.2825
     33 H          58.7805   80.5983   10.4306 H       1  UNL1        0.1549
     34 C          58.6312   81.6330    8.5704 C.ar    1  UNL1        0.0535
     35 C          57.7117   81.0472    7.6817 C.ar    1  UNL1        0.0353
     36 C          57.8620   81.2402    6.3063 C.ar    1  UNL1        0.1002
     37 N          58.8851   81.9972    5.8304 N.ar    1  UNL1       -0.2422
     38 C          59.7809   82.5870    6.6647 C.ar    1  UNL1        0.1002
     39 C          59.6649   82.4226    8.0467 C.ar    1  UNL1        0.0353
     40 C          58.7433   81.0255   12.7425 C.3     1  UNL1        0.0569
     41 C          60.1706   81.0928   13.2088 C.ar    1  UNL1       -0.0017
     42 C          60.6554   80.6594   14.4394 C.ar    1  UNL1        0.0681
     43 N          62.0048   80.7429   14.4719 N.ar    1  UNL1       -0.3523
     44 C          62.3771   81.2141   13.2692 C.ar    1  UNL1        0.0563
     45 C          63.6767   81.4295   12.8125 C.ar    1  UNL1        0.0170
     46 C          63.8423   81.8937   11.4950 C.ar    1  UNL1        0.0015
     47 C          62.7186   82.1289   10.6727 C.ar    1  UNL1        0.0001
     48 C          61.4188   81.9013   11.1599 C.ar    1  UNL1        0.0012
     49 C          61.2857   81.4403   12.4701 C.ar    1  UNL1        0.0131
     50 H          62.6289   80.4690   15.2630 H       1  UNL1        0.1660
@<TRIPOS>BOND
     1     1     2    2
     2     2     3   am
     3     3    29    1
     4    29    40    1
     5    40    41    1
     6    41    42   ar
     7    42    43   ar
     8    43    44   ar
     9    44    45   ar
    10    45    46   ar
    11    46    47   ar
    12    47    48   ar
    13    48    49   ar
    14    29    30    1
    15    30    31    2
    16    30    32   am
    17    32    34    1
    18    34    35   ar
    19    35    36   ar
    20    36    37   ar
    21    37    38   ar
    22    38    39   ar
    23     2     5    1
    24     5     6   ar
    25     6     7   ar
    26     7     8   ar
    27     8    12    1
    28    12    13    1
    29    13    14    1
    30    14    15    1
    31    15    18    1
    32    18    19   ar
    33    19    20   ar
    34    20    21   ar
    35    21    22    1
    36    21    23   ar
    37    23    24    1
    38    23    25   ar
    39    15    16    1
    40    16    17    1
    41    17    26    1
    42    26    27    1
    43     8     9   ar
    44     9    10   ar
    45    10    11    1
    46    49    41   ar
    47    39    34   ar
    48    10     5   ar
    49    49    44   ar
    50    17    12    1
    51    25    18   ar
    52     3     4    1
    53    43    50    1
    54    32    33    1
    55    27    28    1
@<TRIPOS>MOLECULE
*****
 50 55 0 0 0
SMALL
GASTEIGER

@<TRIPOS>ATOM
      1 O          58.1831   83.7968   11.5125 O.2     1  UNL1       -0.2701
      2 C          59.1459   83.6457   12.3137 C.2     1  UNL1        0.2483
      3 N          59.3327   82.3852   12.9776 N.am    1  UNL1       -0.2945
      4 H          59.9050   82.3714   13.8523 H       1  UNL1        0.1501
      5 C          60.0488   84.7879   12.5853 C.ar    1  UNL1        0.0808
      6 C          59.5838   85.8753   13.3447 C.ar    1  UNL1        0.0080
      7 C          60.4196   86.9609   13.6179 C.ar    1  UNL1        0.0148
      8 C          61.7335   86.9853   13.1301 C.ar    1  UNL1        0.0502
      9 C          62.1958   85.9116   12.3534 C.ar    1  UNL1        0.0443
     10 C          61.3635   84.8218   12.0792 C.ar    1  UNL1        0.1457
     11 F          61.8335   83.8280   11.2834 F       1  UNL1       -0.2040
     12 N          62.5920   88.1064   13.4147 N.pl3   1  UNL1       -0.3034
     13 C          63.1527   88.8830   12.2984 C.3     1  UNL1        0.1123
     14 C          63.2934   90.3524   12.6851 C.3     1  UNL1        0.1122
     15 N          63.9585   90.4609   13.9854 N.pl3   1  UNL1       -0.3040
     16 C          63.3553   89.7513   15.1177 C.3     1  UNL1        0.1131
     17 C          63.1423   88.2641   14.7757 C.3     1  UNL1        0.1219
     18 C          65.0106   91.4223   14.1903 C.ar    1  UNL1        0.0488
     19 C          65.2124   92.4684   13.2755 C.ar    1  UNL1        0.0154
     20 C          66.2307   93.4018   13.4846 C.ar    1  UNL1        0.0135
     21 C          67.0574   93.3050   14.6089 C.ar    1  UNL1        0.0683
     22 CL         68.3273   94.4995   14.8382 Cl      1  UNL1       -0.0814
     23 C          66.8608   92.2635   15.5312 C.ar    1  UNL1        0.0694
     24 CL         67.8719   92.1096   16.9616 Cl      1  UNL1       -0.0813
     25 C          65.8408   91.3288   15.3188 C.ar    1  UNL1        0.0268
     26 C          64.4246   87.4267   14.9519 C.3     1  UNL1        0.1585
     27 O          64.1376   86.0647   15.1274 O.3     1  UNL1       -0.3802
     28 H          64.1273   85.6527   14.2247 H       1  UNL1        0.2105
     29 C          58.5368   81.1975   12.6496 C.3     1  UNL1        0.1535
     30 C          58.3454   81.0868   11.1542 C.2     1  UNL1        0.2443
     31 O          57.3079   80.5395   10.6910 O.2     1  UNL1       -0.2730
     32 N          59.3440   81.6230   10.2689 N.am    1  UNL1       -0.2825
     33 H          60.2870   81.8246   10.6723 H       1  UNL1        0.1549
     34 C          59.1572   81.8679    8.8626 C.ar    1  UNL1        0.0535
     35 C          60.0659   82.6347    8.1112 C.ar    1  UNL1        0.0353
     36 C          59.8599   82.8013    6.7396 C.ar    1  UNL1        0.1002
     37 N          58.7928   82.2182    6.1333 N.ar    1  UNL1       -0.2422
     38 C          57.9057   81.4606    6.8299 C.ar    1  UNL1        0.1002
     39 C          58.0767   81.2656    8.2023 C.ar    1  UNL1        0.0353
     40 C          59.2269   79.9443   13.2148 C.3     1  UNL1        0.0569
     41 C          60.7067   79.9606   12.9517 C.ar    1  UNL1       -0.0017
     42 C          61.3759   79.2348   11.9707 C.ar    1  UNL1        0.0681
     43 N          62.6795   79.5919   11.9250 N.ar    1  UNL1       -0.3523
     44 C          62.8369   80.5447   12.8602 C.ar    1  UNL1        0.0563
     45 C          64.0013   81.2514   13.1575 C.ar    1  UNL1        0.0170
     46 C          63.9333   82.2413   14.1547 C.ar    1  UNL1        0.0015
     47 C          62.7172   82.5001   14.8242 C.ar    1  UNL1        0.0001
     48 C          61.5575   81.7722   14.5022 C.ar    1  UNL1        0.0012
     49 C          61.6551   80.7974   13.5087 C.ar    1  UNL1        0.0131
     50 H          63.4067   79.2204   11.2741 H       1  UNL1        0.1660
@<TRIPOS>BOND
     1     1     2    2
     2     2     3   am
     3     3    29    1
     4    29    40    1
     5    40    41    1
     6    41    42   ar
     7    42    43   ar
     8    43    44   ar
     9    44    45   ar
    10    45    46   ar
    11    46    47   ar
    12    47    48   ar
    13    48    49   ar
    14    29    30    1
    15    30    31    2
    16    30    32   am
    17    32    34    1
    18    34    35   ar
    19    35    36   ar
    20    36    37   ar
    21    37    38   ar
    22    38    39   ar
    23     2     5    1
    24     5     6   ar
    25     6     7   ar
    26     7     8   ar
    27     8    12    1
    28    12    13    1
    29    13    14    1
    30    14    15    1
    31    15    18    1
    32    18    19   ar
    33    19    20   ar
    34    20    21   ar
    35    21    22    1
    36    21    23   ar
    37    23    24    1
    38    23    25   ar
    39    15    16    1
    40    16    17    1
    41    17    26    1
    42    26    27    1
    43     8     9   ar
    44     9    10   ar
    45    10    11    1
    46    49    41   ar
    47    39    34   ar
    48    10     5   ar
    49    49    44   ar
    50    17    12    1
    51    25    18   ar
    52     3     4    1
    53    43    50    1
    54    32    33    1
    55    27    28    1
@<TRIPOS>MOLECULE
*****
 50 55 0 0 0
SMALL
GASTEIGER

@<TRIPOS>ATOM
      1 O          58.3439   83.3011   11.9493 O.2     1  UNL1       -0.2701
      2 C          59.4725   83.4954   11.4197 C.2     1  UNL1        0.2483
      3 N          59.9276   82.6287   10.3679 N.am    1  UNL1       -0.2945
      4 H          60.9540   82.5904   10.1732 H       1  UNL1        0.1501
      5 C          60.3279   84.5961   11.9198 C.ar    1  UNL1        0.0808
      6 C          59.9145   85.3446   13.0353 C.ar    1  UNL1        0.0080
      7 C          60.7078   86.3839   13.5277 C.ar    1  UNL1        0.0148
      8 C          61.9253   86.7013   12.9097 C.ar    1  UNL1        0.0502
      9 C          62.3323   85.9707   11.7827 C.ar    1  UNL1        0.0443
     10 C          61.5426   84.9282   11.2875 C.ar    1  UNL1        0.1457
     11 F          61.9488   84.2799   10.1666 F       1  UNL1       -0.2040
     12 N          62.7403   87.7732   13.4212 N.pl3   1  UNL1       -0.3034
     13 C          63.2851   88.7699   12.4865 C.3     1  UNL1        0.1123
     14 C          63.3693   90.1399   13.1532 C.3     1  UNL1        0.1122
     15 N          64.0163   90.0154   14.4612 N.pl3   1  UNL1       -0.3040
     16 C          63.4265   89.0799   15.4238 C.3     1  UNL1        0.1131
     17 C          63.2702   87.6813   14.7963 C.3     1  UNL1        0.1219
     18 C          65.0313   90.9525   14.8669 C.ar    1  UNL1        0.0488
     19 C          64.8243   91.7999   15.9674 C.ar    1  UNL1        0.0154
     20 C          65.8166   92.7017   16.3598 C.ar    1  UNL1        0.0135
     21 C          67.0271   92.7674   15.6618 C.ar    1  UNL1        0.0683
     22 CL         68.2522   93.9146   16.1867 Cl      1  UNL1       -0.0814
     23 C          67.2443   91.9212   14.5615 C.ar    1  UNL1        0.0694
     24 CL         68.7541   91.9655   13.6614 Cl      1  UNL1       -0.0813
     25 C          66.2480   91.0195   14.1694 C.ar    1  UNL1        0.0268
     26 C          64.5795   86.8681   14.8291 C.3     1  UNL1        0.1585
     27 O          64.3769   85.5743   15.3325 O.3     1  UNL1       -0.3802
     28 H          64.1666   84.9919   14.5570 H       1  UNL1        0.2105
     29 C          59.0676   81.6052    9.7641 C.3     1  UNL1        0.1535
     30 C          58.4719   80.7183   10.8335 C.2     1  UNL1        0.2443
     31 O          57.5497   79.9098   10.5393 O.2     1  UNL1       -0.2730
     32 N          58.9747   80.7925   12.1788 N.am    1  UNL1       -0.2825
     33 H          59.5370   81.6350   12.4371 H       1  UNL1        0.1549
     34 C          58.7320   79.8153   13.2078 C.ar    1  UNL1        0.0535
     35 C          58.8586   78.4346   12.9708 C.ar    1  UNL1        0.0353
     36 C          58.6565   77.5330   14.0185 C.ar    1  UNL1        0.1002
     37 N          58.3486   77.9877   15.2614 N.ar    1  UNL1       -0.2422
     38 C          58.2331   79.3158   15.5241 C.ar    1  UNL1        0.1002
     39 C          58.4306   80.2512   14.5060 C.ar    1  UNL1        0.0353
     40 C          57.9676   82.2846    8.9307 C.3     1  UNL1        0.0569
     41 C          58.2911   83.7268    8.6571 C.ar    1  UNL1       -0.0017
     42 C          57.5844   84.8313    9.1237 C.ar    1  UNL1        0.0681
     43 N          58.2297   85.9755    8.8023 N.ar    1  UNL1       -0.3523
     44 C          59.3429   85.6032    8.1473 C.ar    1  UNL1        0.0563
     45 C          60.3493   86.4324    7.6542 C.ar    1  UNL1        0.0170
     46 C          61.4550   85.8258    7.0312 C.ar    1  UNL1        0.0015
     47 C          61.5295   84.4202    6.9167 C.ar    1  UNL1        0.0001
     48 C          60.4996   83.6082    7.4249 C.ar    1  UNL1        0.0012
     49 C          59.4161   84.2380    8.0382 C.ar    1  UNL1        0.0131
     50 H          57.9337   86.9480    9.0415 H       1  UNL1        0.1660
@<TRIPOS>BOND
     1     1     2    2
     2     2     3   am
     3     3    29    1
     4    29    40    1
     5    40    41    1
     6    41    42   ar
     7    42    43   ar
     8    43    44   ar
     9    44    45   ar
    10    45    46   ar
    11    46    47   ar
    12    47    48   ar
    13    48    49   ar
    14    29    30    1
    15    30    31    2
    16    30    32   am
    17    32    34    1
    18    34    35   ar
    19    35    36   ar
    20    36    37   ar
    21    37    38   ar
    22    38    39   ar
    23     2     5    1
    24     5     6   ar
    25     6     7   ar
    26     7     8   ar
    27     8    12    1
    28    12    13    1
    29    13    14    1
    30    14    15    1
    31    15    18    1
    32    18    19   ar
    33    19    20   ar
    34    20    21   ar
    35    21    22    1
    36    21    23   ar
    37    23    24    1
    38    23    25   ar
    39    15    16    1
    40    16    17    1
    41    17    26    1
    42    26    27    1
    43     8     9   ar
    44     9    10   ar
    45    10    11    1
    46    49    41   ar
    47    39    34   ar
    48    10     5   ar
    49    49    44   ar
    50    17    12    1
    51    25    18   ar
    52     3     4    1
    53    43    50    1
    54    32    33    1
    55    27    28    1
