@<TRIPOS>MOLECULE
*****
 38 42 0 0 0
SMALL
GASTEIGER

@<TRIPOS>ATOM
      1 C         -23.1579   -8.6060  -10.7156 C.2     1  UNL1        0.2506
      2 O         -24.2744   -9.1705  -10.5594 O.2     1  UNL1       -0.2699
      3 N         -22.8834   -7.8766  -11.9285 N.am    1  UNL1       -0.2680
      4 C         -22.1246   -6.6225  -11.8739 C.3     1  UNL1        0.1412
      5 C         -20.6937   -6.8520  -12.3551 C.3     1  UNL1        0.2268
      6 O         -20.6340   -7.8566  -13.3659 O.3     1  UNL1       -0.4739
      7 C         -21.4339   -7.8212  -14.5100 C.ar    1  UNL1        0.1362
      8 C         -20.8043   -7.6895  -15.7511 C.ar    1  UNL1        0.0366
      9 C         -21.5550   -7.6176  -16.9241 C.ar    1  UNL1        0.0032
     10 C         -22.9548   -7.6882  -16.8755 C.ar    1  UNL1        0.0021
     11 C         -23.5879   -7.8557  -15.6327 C.ar    1  UNL1        0.0005
     12 C         -22.8453   -7.9184  -14.4402 C.ar    1  UNL1        0.0317
     13 C         -23.5975   -8.2430  -13.1600 C.3     1  UNL1        0.1236
     14 C         -23.7516   -7.6231  -18.1244 C.ar    1  UNL1        0.0290
     15 C         -23.7877   -8.7397  -18.9938 C.ar    1  UNL1        0.0208
     16 C         -24.5525   -8.6398  -20.1521 C.ar    1  UNL1        0.0758
     17 N         -24.7381   -9.5573  -21.1082 N.ar    1  UNL1       -0.3349
     18 C         -25.5617   -8.9464  -21.9935 C.ar    1  UNL1        0.1750
     19 N         -25.9027   -7.6810  -21.6331 N.ar    1  UNL1       -0.2241
     20 C         -25.2516   -7.5168  -20.4674 C.ar    1  UNL1        0.1008
     21 C         -25.2424   -6.3930  -19.6483 C.ar    1  UNL1        0.0502
     22 C         -24.4823   -6.4472  -18.4640 C.ar    1  UNL1        0.1417
     23 F         -24.4307   -5.3473  -17.6707 F       1  UNL1       -0.2041
     24 H         -24.3412  -10.5216  -21.1626 H       1  UNL1        0.1675
     25 C         -20.8932   -9.3011   -9.8424 C.ar    1  UNL1        0.0503
     26 C         -19.9597   -9.2955   -8.7855 C.ar    1  UNL1        0.0328
     27 C         -20.2818   -8.7313   -7.5452 C.ar    1  UNL1        0.1069
     28 C         -21.5412   -8.1581   -7.3498 C.ar    1  UNL1        0.0186
     29 C         -22.4737   -8.1458   -8.3860 C.ar    1  UNL1        0.0071
     30 C         -22.1567   -8.6954   -9.6363 C.ar    1  UNL1        0.0667
     31 S         -19.0919   -8.7259   -6.2472 S.O2    1  UNL1        0.0105
     32 C         -19.9255   -8.8845   -4.6847 C.3     1  UNL1        0.1816
     33 O         -18.1341   -9.8711   -6.4217 O.2     1  UNL1       -0.1686
     34 O         -18.3158   -7.4391   -6.2774 O.2     1  UNL1       -0.1686
     35 N         -20.5879   -9.9427  -11.1016 N.pl3   1  UNL1       -0.3325
     36 H         -20.1935   -9.3745  -11.8841 H       1  UNL1        0.1468
     37 C         -21.5588  -11.5645  -12.6674 C.3     1  UNL1        0.0229
     38 C         -20.7748  -11.3675  -11.3748 C.3     1  UNL1        0.0871
@<TRIPOS>BOND
     1    37    38    1
     2    38    35    1
     3    35    25    1
     4    25    26   ar
     5    26    27   ar
     6    27    31    1
     7    31    32    1
     8    31    33    2
     9    31    34    2
    10    27    28   ar
    11    28    29   ar
    12    29    30   ar
    13    30     1    1
    14     1     2    2
    15     1     3   am
    16     3     4    1
    17     4     5    1
    18     5     6    1
    19     6     7    1
    20     7     8   ar
    21     8     9   ar
    22     9    10   ar
    23    10    14    1
    24    14    15   ar
    25    15    16   ar
    26    16    17   ar
    27    17    18   ar
    28    18    19   ar
    29    19    20   ar
    30    20    21   ar
    31    21    22   ar
    32    22    23    1
    33    10    11   ar
    34    11    12   ar
    35    12    13    1
    36    30    25   ar
    37    13     3    1
    38    12     7   ar
    39    22    14   ar
    40    20    16   ar
    41    35    36    1
    42    17    24    1
@<TRIPOS>MOLECULE
*****
 38 42 0 0 0
SMALL
GASTEIGER

@<TRIPOS>ATOM
      1 C         -22.0718   -9.8087  -13.2791 C.2     1  UNL1        0.2506
      2 O         -21.7882  -10.1152  -14.4688 O.2     1  UNL1       -0.2699
      3 N         -23.3229   -9.1568  -12.9822 N.am    1  UNL1       -0.2680
      4 C         -24.0643   -9.5120  -11.7674 C.3     1  UNL1        0.1412
      5 C         -23.8931   -8.4241  -10.7097 C.3     1  UNL1        0.2268
      6 O         -23.7673   -7.1319  -11.3004 O.3     1  UNL1       -0.4739
      7 C         -24.6845   -6.6372  -12.2301 C.ar    1  UNL1        0.1362
      8 C         -25.4318   -5.5081  -11.8827 C.ar    1  UNL1        0.0366
      9 C         -26.3840   -4.9893  -12.7596 C.ar    1  UNL1        0.0032
     10 C         -26.5971   -5.5880  -14.0097 C.ar    1  UNL1        0.0021
     11 C         -25.8227   -6.7016  -14.3752 C.ar    1  UNL1        0.0005
     12 C         -24.8668   -7.2431  -13.4973 C.ar    1  UNL1        0.0317
     13 C         -23.9769   -8.3556  -14.0268 C.3     1  UNL1        0.1236
     14 C         -27.6019   -5.0288  -14.9462 C.ar    1  UNL1        0.0290
     15 C         -27.2069   -4.0703  -15.9102 C.ar    1  UNL1        0.0208
     16 C         -28.1792   -3.5754  -16.7740 C.ar    1  UNL1        0.0758
     17 N         -28.0402   -2.6774  -17.7561 N.ar    1  UNL1       -0.3349
     18 C         -29.2870   -2.5613  -18.2731 C.ar    1  UNL1        0.1750
     19 N         -30.2057   -3.3506  -17.6563 N.ar    1  UNL1       -0.2241
     20 C         -29.4767   -3.9785  -16.7161 C.ar    1  UNL1        0.1008
     21 C         -29.9134   -4.9129  -15.7833 C.ar    1  UNL1        0.0502
     22 C         -28.9646   -5.4426  -14.8875 C.ar    1  UNL1        0.1417
     23 F         -29.3792   -6.3274  -13.9456 F       1  UNL1       -0.2041
     24 H         -27.1731   -2.1792  -18.0568 H       1  UNL1        0.1675
     25 C         -20.7726  -11.4825  -11.9061 C.ar    1  UNL1        0.0503
     26 C         -19.8005  -11.7264  -10.9141 C.ar    1  UNL1        0.0328
     27 C         -19.2031  -10.6686  -10.2179 C.ar    1  UNL1        0.1069
     28 C         -19.5663   -9.3516  -10.5120 C.ar    1  UNL1        0.0186
     29 C         -20.5184   -9.0906  -11.4963 C.ar    1  UNL1        0.0071
     30 C         -21.1126  -10.1415  -12.2093 C.ar    1  UNL1        0.0667
     31 S         -17.9822  -11.0014   -8.9935 S.O2    1  UNL1        0.0105
     32 C         -17.8753  -12.7568   -8.7314 C.3     1  UNL1        0.1816
     33 O         -16.6460  -10.4804   -9.4436 O.2     1  UNL1       -0.1686
     34 O         -18.3569  -10.3204   -7.7070 O.2     1  UNL1       -0.1686
     35 N         -21.4398  -12.5747  -12.5787 N.pl3   1  UNL1       -0.3325
     36 H         -22.4356  -12.7877  -12.3468 H       1  UNL1        0.1468
     37 C         -21.7920  -13.6538  -14.7549 C.3     1  UNL1        0.0229
     38 C         -20.8241  -13.4216  -13.6001 C.3     1  UNL1        0.0871
@<TRIPOS>BOND
     1    37    38    1
     2    38    35    1
     3    35    25    1
     4    25    26   ar
     5    26    27   ar
     6    27    31    1
     7    31    32    1
     8    31    33    2
     9    31    34    2
    10    27    28   ar
    11    28    29   ar
    12    29    30   ar
    13    30     1    1
    14     1     2    2
    15     1     3   am
    16     3     4    1
    17     4     5    1
    18     5     6    1
    19     6     7    1
    20     7     8   ar
    21     8     9   ar
    22     9    10   ar
    23    10    14    1
    24    14    15   ar
    25    15    16   ar
    26    16    17   ar
    27    17    18   ar
    28    18    19   ar
    29    19    20   ar
    30    20    21   ar
    31    21    22   ar
    32    22    23    1
    33    10    11   ar
    34    11    12   ar
    35    12    13    1
    36    30    25   ar
    37    13     3    1
    38    12     7   ar
    39    22    14   ar
    40    20    16   ar
    41    35    36    1
    42    17    24    1
@<TRIPOS>MOLECULE
*****
 38 42 0 0 0
SMALL
GASTEIGER

@<TRIPOS>ATOM
      1 C         -21.7312   -8.3629   -9.3392 C.2     1  UNL1        0.2506
      2 O         -22.5201   -8.2790   -8.3592 O.2     1  UNL1       -0.2699
      3 N         -22.0457   -7.6926  -10.5762 N.am    1  UNL1       -0.2680
      4 C         -20.9806   -7.0485  -11.3522 C.3     1  UNL1        0.1412
      5 C         -20.6195   -7.9062  -12.5629 C.3     1  UNL1        0.2268
      6 O         -21.7543   -8.6082  -13.0667 O.3     1  UNL1       -0.4739
      7 C         -22.9559   -7.9694  -13.3803 C.ar    1  UNL1        0.1362
      8 C         -23.3802   -7.9795  -14.7122 C.ar    1  UNL1        0.0366
      9 C         -24.5563   -7.3310  -15.0877 C.ar    1  UNL1        0.0032
     10 C         -25.3372   -6.6681  -14.1299 C.ar    1  UNL1        0.0021
     11 C         -24.9310   -6.6864  -12.7853 C.ar    1  UNL1        0.0005
     12 C         -23.7418   -7.3262  -12.3929 C.ar    1  UNL1        0.0317
     13 C         -23.4525   -7.4200  -10.9038 C.3     1  UNL1        0.1236
     14 C         -26.5936   -5.9885  -14.5284 C.ar    1  UNL1        0.0290
     15 C         -26.5394   -4.8363  -15.3490 C.ar    1  UNL1        0.0208
     16 C         -27.7414   -4.2323  -15.7053 C.ar    1  UNL1        0.0758
     17 N         -27.9346   -3.1497  -16.4675 N.ar    1  UNL1       -0.3349
     18 C         -29.2809   -3.0007  -16.4901 C.ar    1  UNL1        0.1750
     19 N         -29.9435   -3.9465  -15.7732 N.ar    1  UNL1       -0.2241
     20 C         -28.9457   -4.7092  -15.2912 C.ar    1  UNL1        0.1008
     21 C         -29.0495   -5.8338  -14.4798 C.ar    1  UNL1        0.0502
     22 C         -27.8591   -6.4795  -14.0933 C.ar    1  UNL1        0.1417
     23 F         -27.9380   -7.5562  -13.2709 F       1  UNL1       -0.2041
     24 H         -27.2164   -2.5548  -16.9371 H       1  UNL1        0.1675
     25 C         -19.6443   -8.9842   -8.0611 C.ar    1  UNL1        0.0503
     26 C         -18.5037   -9.8058   -7.9498 C.ar    1  UNL1        0.0328
     27 C         -18.1893  -10.7379   -8.9462 C.ar    1  UNL1        0.1069
     28 C         -19.0183  -10.8645  -10.0641 C.ar    1  UNL1        0.0186
     29 C         -20.1555  -10.0676  -10.1869 C.ar    1  UNL1        0.0071
     30 C         -20.4873   -9.1410   -9.1883 C.ar    1  UNL1        0.0667
     31 S         -16.7661  -11.7605   -8.7749 S.O2    1  UNL1        0.0105
     32 C         -16.3166  -11.8599   -7.0575 C.3     1  UNL1        0.1816
     33 O         -17.0573  -13.1399   -9.2964 O.2     1  UNL1       -0.1686
     34 O         -15.6264  -11.1777   -9.5625 O.2     1  UNL1       -0.1686
     35 N         -19.9342   -7.9746   -7.0675 N.pl3   1  UNL1       -0.3325
     36 H         -20.7197   -7.3060   -7.2301 H       1  UNL1        0.1468
     37 C         -19.8979   -8.5967   -4.6935 C.3     1  UNL1        0.0229
     38 C         -19.2085   -7.8168   -5.8073 C.3     1  UNL1        0.0871
@<TRIPOS>BOND
     1    37    38    1
     2    38    35    1
     3    35    25    1
     4    25    26   ar
     5    26    27   ar
     6    27    31    1
     7    31    32    1
     8    31    33    2
     9    31    34    2
    10    27    28   ar
    11    28    29   ar
    12    29    30   ar
    13    30     1    1
    14     1     2    2
    15     1     3   am
    16     3     4    1
    17     4     5    1
    18     5     6    1
    19     6     7    1
    20     7     8   ar
    21     8     9   ar
    22     9    10   ar
    23    10    14    1
    24    14    15   ar
    25    15    16   ar
    26    16    17   ar
    27    17    18   ar
    28    18    19   ar
    29    19    20   ar
    30    20    21   ar
    31    21    22   ar
    32    22    23    1
    33    10    11   ar
    34    11    12   ar
    35    12    13    1
    36    30    25   ar
    37    13     3    1
    38    12     7   ar
    39    22    14   ar
    40    20    16   ar
    41    35    36    1
    42    17    24    1
@<TRIPOS>MOLECULE
*****
 38 42 0 0 0
SMALL
GASTEIGER

@<TRIPOS>ATOM
      1 C         -22.1337   -8.1149   -9.5164 C.2     1  UNL1        0.2506
      2 O         -22.9519   -7.9739   -8.5675 O.2     1  UNL1       -0.2699
      3 N         -22.3678   -7.4494  -10.7737 N.am    1  UNL1       -0.2680
      4 C         -21.2430   -6.8745  -11.5192 C.3     1  UNL1        0.1412
      5 C         -20.8844   -7.7696  -12.7034 C.3     1  UNL1        0.2268
      6 O         -22.0358   -8.4195  -13.2384 O.3     1  UNL1       -0.4739
      7 C         -23.1899   -7.7241  -13.6051 C.ar    1  UNL1        0.1362
      8 C         -23.5661   -7.7338  -14.9514 C.ar    1  UNL1        0.0366
      9 C         -24.6920   -7.0310  -15.3792 C.ar    1  UNL1        0.0032
     10 C         -25.4708   -6.3126  -14.4604 C.ar    1  UNL1        0.0021
     11 C         -25.1147   -6.3302  -13.1016 C.ar    1  UNL1        0.0005
     12 C         -23.9758   -7.0247  -12.6566 C.ar    1  UNL1        0.0317
     13 C         -23.7456   -7.1091  -11.1567 C.3     1  UNL1        0.1236
     14 C         -26.6744   -5.5749  -14.9145 C.ar    1  UNL1        0.0290
     15 C         -26.5492   -4.5623  -15.8958 C.ar    1  UNL1        0.0208
     16 C         -27.7039   -3.8986  -16.2989 C.ar    1  UNL1        0.0758
     17 N         -27.8288   -2.9215  -17.2045 N.ar    1  UNL1       -0.3349
     18 C         -29.1547   -2.6440  -17.2068 C.ar    1  UNL1        0.1750
     19 N         -29.8703   -3.4076  -16.3393 N.ar    1  UNL1       -0.2241
     20 C         -28.9278   -4.1894  -15.7824 C.ar    1  UNL1        0.1008
     21 C         -29.1002   -5.1712  -14.8127 C.ar    1  UNL1        0.0502
     22 C         -27.9595   -5.8706  -14.3734 C.ar    1  UNL1        0.1417
     23 F         -28.1021   -6.8062  -13.4006 F       1  UNL1       -0.2041
     24 H         -27.0797   -2.4739  -17.7780 H       1  UNL1        0.1675
     25 C         -20.6875  -10.0996  -10.1030 C.ar    1  UNL1        0.0503
     26 C         -19.4938  -10.8202   -9.8926 C.ar    1  UNL1        0.0328
     27 C         -18.5867  -10.4336   -8.8985 C.ar    1  UNL1        0.1069
     28 C         -18.8601   -9.3148   -8.1070 C.ar    1  UNL1        0.0186
     29 C         -20.0305   -8.5844   -8.3068 C.ar    1  UNL1        0.0071
     30 C         -20.9389   -8.9543   -9.3087 C.ar    1  UNL1        0.0667
     31 S         -17.0972  -11.3437   -8.6665 S.O2    1  UNL1        0.0105
     32 C         -17.3656  -13.0390   -9.1306 C.3     1  UNL1        0.1816
     33 O         -16.0004  -10.7609   -9.5131 O.2     1  UNL1       -0.1686
     34 O         -16.6814  -11.2746   -7.2238 O.2     1  UNL1       -0.1686
     35 N         -21.6574  -10.5359  -11.0825 N.pl3   1  UNL1       -0.3325
     36 H         -22.5803  -10.0508  -11.1413 H       1  UNL1        0.1468
     37 C         -22.6168  -11.7231  -13.0046 C.3     1  UNL1        0.0229
     38 C         -21.4416  -11.6216  -12.0388 C.3     1  UNL1        0.0871
@<TRIPOS>BOND
     1    37    38    1
     2    38    35    1
     3    35    25    1
     4    25    26   ar
     5    26    27   ar
     6    27    31    1
     7    31    32    1
     8    31    33    2
     9    31    34    2
    10    27    28   ar
    11    28    29   ar
    12    29    30   ar
    13    30     1    1
    14     1     2    2
    15     1     3   am
    16     3     4    1
    17     4     5    1
    18     5     6    1
    19     6     7    1
    20     7     8   ar
    21     8     9   ar
    22     9    10   ar
    23    10    14    1
    24    14    15   ar
    25    15    16   ar
    26    16    17   ar
    27    17    18   ar
    28    18    19   ar
    29    19    20   ar
    30    20    21   ar
    31    21    22   ar
    32    22    23    1
    33    10    11   ar
    34    11    12   ar
    35    12    13    1
    36    30    25   ar
    37    13     3    1
    38    12     7   ar
    39    22    14   ar
    40    20    16   ar
    41    35    36    1
    42    17    24    1
@<TRIPOS>MOLECULE
*****
 38 42 0 0 0
SMALL
GASTEIGER

@<TRIPOS>ATOM
      1 C         -22.4063   -9.4327  -11.3615 C.2     1  UNL1        0.2506
      2 O         -23.5020   -9.5111  -10.7426 O.2     1  UNL1       -0.2699
      3 N         -22.2556   -8.4905  -12.4422 N.am    1  UNL1       -0.2680
      4 C         -20.9917   -7.7657  -12.6118 C.3     1  UNL1        0.1412
      5 C         -20.1945   -8.3623  -13.7695 C.3     1  UNL1        0.2268
      6 O         -21.0509   -8.8610  -14.7953 O.3     1  UNL1       -0.4739
      7 C         -22.0642   -8.0908  -15.3699 C.ar    1  UNL1        0.1362
      8 C         -21.9681   -7.7833  -16.7302 C.ar    1  UNL1        0.0366
      9 C         -22.9351   -6.9919  -17.3493 C.ar    1  UNL1        0.0032
     10 C         -24.0259   -6.5022  -16.6165 C.ar    1  UNL1        0.0021
     11 C         -24.1430   -6.8389  -15.2577 C.ar    1  UNL1        0.0005
     12 C         -23.1702   -7.6264  -14.6166 C.ar    1  UNL1        0.0317
     13 C         -23.4478   -8.0602  -13.1867 C.3     1  UNL1        0.1236
     14 C         -25.0597   -5.6701  -17.2785 C.ar    1  UNL1        0.0290
     15 C         -25.9081   -4.8499  -16.4965 C.ar    1  UNL1        0.0208
     16 C         -26.8606   -4.0800  -17.1571 C.ar    1  UNL1        0.0758
     17 N         -27.7575   -3.2365  -16.6333 N.ar    1  UNL1       -0.3349
     18 C         -28.4262   -2.7585  -17.7101 C.ar    1  UNL1        0.1750
     19 N         -27.9860   -3.2668  -18.8915 N.ar    1  UNL1       -0.2241
     20 C         -26.9980   -4.0962  -18.5099 C.ar    1  UNL1        0.1008
     21 C         -26.1923   -4.8896  -19.3194 C.ar    1  UNL1        0.0502
     22 C         -25.2130   -5.6865  -18.6955 C.ar    1  UNL1        0.1417
     23 F         -24.4423   -6.4957  -19.4656 F       1  UNL1       -0.2041
     24 H         -27.9098   -2.9996  -15.6278 H       1  UNL1        0.1675
     25 C         -21.0997  -11.5871  -11.5228 C.ar    1  UNL1        0.0503
     26 C         -19.9765  -12.3433  -11.1292 C.ar    1  UNL1        0.0328
     27 C         -19.0823  -11.8551  -10.1686 C.ar    1  UNL1        0.1069
     28 C         -19.2977  -10.5990   -9.5952 C.ar    1  UNL1        0.0186
     29 C         -20.3974   -9.8330   -9.9789 C.ar    1  UNL1        0.0071
     30 C         -21.2912  -10.3061  -10.9501 C.ar    1  UNL1        0.0667
     31 S         -17.6804  -12.8147   -9.7056 S.O2    1  UNL1        0.0105
     32 C         -16.3699  -11.7299   -9.1887 C.3     1  UNL1        0.1816
     33 O         -18.0394  -13.7393   -8.5761 O.2     1  UNL1       -0.1686
     34 O         -17.2221  -13.6385  -10.8762 O.2     1  UNL1       -0.1686
     35 N         -22.0610  -12.1171  -12.4640 N.pl3   1  UNL1       -0.3325
     36 H         -23.0125  -12.3860  -12.1281 H       1  UNL1        0.1468
     37 C         -22.9826  -11.7662  -14.7116 C.3     1  UNL1        0.0229
     38 C         -21.8109  -12.2979  -13.8938 C.3     1  UNL1        0.0871
@<TRIPOS>BOND
     1    37    38    1
     2    38    35    1
     3    35    25    1
     4    25    26   ar
     5    26    27   ar
     6    27    31    1
     7    31    32    1
     8    31    33    2
     9    31    34    2
    10    27    28   ar
    11    28    29   ar
    12    29    30   ar
    13    30     1    1
    14     1     2    2
    15     1     3   am
    16     3     4    1
    17     4     5    1
    18     5     6    1
    19     6     7    1
    20     7     8   ar
    21     8     9   ar
    22     9    10   ar
    23    10    14    1
    24    14    15   ar
    25    15    16   ar
    26    16    17   ar
    27    17    18   ar
    28    18    19   ar
    29    19    20   ar
    30    20    21   ar
    31    21    22   ar
    32    22    23    1
    33    10    11   ar
    34    11    12   ar
    35    12    13    1
    36    30    25   ar
    37    13     3    1
    38    12     7   ar
    39    22    14   ar
    40    20    16   ar
    41    35    36    1
    42    17    24    1
@<TRIPOS>MOLECULE
*****
 38 42 0 0 0
SMALL
GASTEIGER

@<TRIPOS>ATOM
      1 C         -21.9799   -8.3398   -9.5477 C.2     1  UNL1        0.2506
      2 O         -22.7850   -8.2915   -8.5786 O.2     1  UNL1       -0.2699
      3 N         -22.2675   -7.6138  -10.7596 N.am    1  UNL1       -0.2680
      4 C         -21.1839   -6.9460  -11.4886 C.3     1  UNL1        0.1412
      5 C         -20.8088   -7.7535  -12.7291 C.3     1  UNL1        0.2268
      6 O         -21.9402   -8.4231  -13.2823 O.3     1  UNL1       -0.4739
      7 C         -23.1310   -7.7608  -13.5881 C.ar    1  UNL1        0.1362
      8 C         -23.5322   -7.7094  -14.9262 C.ar    1  UNL1        0.0366
      9 C         -24.6964   -7.0350  -15.2931 C.ar    1  UNL1        0.0032
     10 C         -25.4885   -6.4074  -14.3208 C.ar    1  UNL1        0.0021
     11 C         -25.1059   -6.4876  -12.9715 C.ar    1  UNL1        0.0005
     12 C         -23.9288   -7.1542  -12.5872 C.ar    1  UNL1        0.0317
     13 C         -23.6662   -7.3149  -11.0989 C.3     1  UNL1        0.1236
     14 C         -26.7323   -5.7002  -14.7106 C.ar    1  UNL1        0.0290
     15 C         -27.9905   -6.2498  -14.3658 C.ar    1  UNL1        0.0208
     16 C         -29.1330   -5.5515  -14.7449 C.ar    1  UNL1        0.0758
     17 N         -30.4139   -5.8712  -14.5271 N.ar    1  UNL1       -0.3349
     18 C         -31.1067   -4.8578  -15.1000 C.ar    1  UNL1        0.1750
     19 N         -30.3135   -3.9123  -15.6695 N.ar    1  UNL1       -0.2241
     20 C         -29.0744   -4.3773  -15.4283 C.ar    1  UNL1        0.1008
     21 C         -27.8627   -3.8014  -15.7942 C.ar    1  UNL1        0.0502
     22 C         -26.6785   -4.4720  -15.4320 C.ar    1  UNL1        0.1417
     23 F         -25.4873   -3.9449  -15.8130 F       1  UNL1       -0.2041
     24 H         -30.7948   -6.7075  -14.0312 H       1  UNL1        0.1675
     25 C         -19.8186   -8.8938   -8.3658 C.ar    1  UNL1        0.0503
     26 C         -18.6907   -9.7328   -8.2555 C.ar    1  UNL1        0.0328
     27 C         -18.4700  -10.7650   -9.1755 C.ar    1  UNL1        0.1069
     28 C         -19.3810  -10.9752  -10.2140 C.ar    1  UNL1        0.0186
     29 C         -20.5070  -10.1620  -10.3335 C.ar    1  UNL1        0.0071
     30 C         -20.7451   -9.1345   -9.4097 C.ar    1  UNL1        0.0667
     31 S         -17.0600  -11.8062   -9.0058 S.O2    1  UNL1        0.0105
     32 C         -17.2288  -13.2058  -10.0894 C.3     1  UNL1        0.1816
     33 O         -15.8128  -11.0461   -9.3609 O.2     1  UNL1       -0.1686
     34 O         -16.9483  -12.2790   -7.5835 O.2     1  UNL1       -0.1686
     35 N         -20.0135   -7.7854   -7.4581 N.pl3   1  UNL1       -0.3325
     36 H         -20.7237   -7.0546   -7.6864 H       1  UNL1        0.1468
     37 C         -19.7488   -8.6293   -5.1685 C.3     1  UNL1        0.0229
     38 C         -19.2895   -7.6049   -6.2000 C.3     1  UNL1        0.0871
@<TRIPOS>BOND
     1    37    38    1
     2    38    35    1
     3    35    25    1
     4    25    26   ar
     5    26    27   ar
     6    27    31    1
     7    31    32    1
     8    31    33    2
     9    31    34    2
    10    27    28   ar
    11    28    29   ar
    12    29    30   ar
    13    30     1    1
    14     1     2    2
    15     1     3   am
    16     3     4    1
    17     4     5    1
    18     5     6    1
    19     6     7    1
    20     7     8   ar
    21     8     9   ar
    22     9    10   ar
    23    10    14    1
    24    14    15   ar
    25    15    16   ar
    26    16    17   ar
    27    17    18   ar
    28    18    19   ar
    29    19    20   ar
    30    20    21   ar
    31    21    22   ar
    32    22    23    1
    33    10    11   ar
    34    11    12   ar
    35    12    13    1
    36    30    25   ar
    37    13     3    1
    38    12     7   ar
    39    22    14   ar
    40    20    16   ar
    41    35    36    1
    42    17    24    1
@<TRIPOS>MOLECULE
*****
 38 42 0 0 0
SMALL
GASTEIGER

@<TRIPOS>ATOM
      1 C         -22.0302   -9.1808  -13.6339 C.2     1  UNL1        0.2506
      2 O         -21.6573   -9.3091  -14.8316 O.2     1  UNL1       -0.2699
      3 N         -23.3604   -8.7087  -13.3407 N.am    1  UNL1       -0.2680
      4 C         -24.1129   -9.2859  -12.2217 C.3     1  UNL1        0.1412
      5 C         -24.1179   -8.3213  -11.0379 C.3     1  UNL1        0.2268
      6 O         -24.1132   -6.9614  -11.4683 O.3     1  UNL1       -0.4739
      7 C         -25.0360   -6.4605  -12.3890 C.ar    1  UNL1        0.1362
      8 C         -25.9235   -5.4690  -11.9605 C.ar    1  UNL1        0.0366
      9 C         -26.8862   -4.9546  -12.8283 C.ar    1  UNL1        0.0032
     10 C         -26.9698   -5.4177  -14.1494 C.ar    1  UNL1        0.0021
     11 C         -26.0564   -6.3888  -14.5923 C.ar    1  UNL1        0.0005
     12 C         -25.0874   -6.9254  -13.7260 C.ar    1  UNL1        0.0317
     13 C         -24.0517   -7.8630  -14.3244 C.3     1  UNL1        0.1236
     14 C         -27.9866   -4.8619  -15.0748 C.ar    1  UNL1        0.0290
     15 C         -27.6065   -3.8975  -16.0390 C.ar    1  UNL1        0.0208
     16 C         -28.5898   -3.4060  -16.8922 C.ar    1  UNL1        0.0758
     17 N         -28.4655   -2.5038  -17.8725 N.ar    1  UNL1       -0.3349
     18 C         -29.7176   -2.3939  -18.3778 C.ar    1  UNL1        0.1750
     19 N         -30.6256   -3.1913  -17.7554 N.ar    1  UNL1       -0.2241
     20 C         -29.8840   -3.8177  -16.8241 C.ar    1  UNL1        0.1008
     21 C         -30.3063   -4.7580  -15.8906 C.ar    1  UNL1        0.0502
     22 C         -29.3461   -5.2846  -15.0053 C.ar    1  UNL1        0.1417
     23 F         -29.7464   -6.1753  -14.0627 F       1  UNL1       -0.2041
     24 H         -27.6044   -1.9990  -18.1793 H       1  UNL1        0.1675
     25 C         -20.2767   -8.5591  -11.9270 C.ar    1  UNL1        0.0503
     26 C         -19.4477   -8.9553  -10.8574 C.ar    1  UNL1        0.0328
     27 C         -19.4033  -10.2908  -10.4391 C.ar    1  UNL1        0.1069
     28 C         -20.1950  -11.2460  -11.0824 C.ar    1  UNL1        0.0186
     29 C         -21.0280  -10.8713  -12.1355 C.ar    1  UNL1        0.0071
     30 C         -21.0908   -9.5343  -12.5532 C.ar    1  UNL1        0.0667
     31 S         -18.3691  -10.7553   -9.0917 S.O2    1  UNL1        0.0105
     32 C         -18.3008  -12.5290   -8.9871 C.3     1  UNL1        0.1816
     33 O         -16.9824  -10.2124   -9.2958 O.2     1  UNL1       -0.1686
     34 O         -18.9231  -10.1947   -7.8119 O.2     1  UNL1       -0.1686
     35 N         -20.2740   -7.1945  -12.4048 N.pl3   1  UNL1       -0.3325
     36 H         -19.6086   -6.9173  -13.1605 H       1  UNL1        0.1468
     37 C         -21.1207   -6.0710  -10.3935 C.3     1  UNL1        0.0229
     38 C         -21.1636   -6.1413  -11.9158 C.3     1  UNL1        0.0871
@<TRIPOS>BOND
     1    37    38    1
     2    38    35    1
     3    35    25    1
     4    25    26   ar
     5    26    27   ar
     6    27    31    1
     7    31    32    1
     8    31    33    2
     9    31    34    2
    10    27    28   ar
    11    28    29   ar
    12    29    30   ar
    13    30     1    1
    14     1     2    2
    15     1     3   am
    16     3     4    1
    17     4     5    1
    18     5     6    1
    19     6     7    1
    20     7     8   ar
    21     8     9   ar
    22     9    10   ar
    23    10    14    1
    24    14    15   ar
    25    15    16   ar
    26    16    17   ar
    27    17    18   ar
    28    18    19   ar
    29    19    20   ar
    30    20    21   ar
    31    21    22   ar
    32    22    23    1
    33    10    11   ar
    34    11    12   ar
    35    12    13    1
    36    30    25   ar
    37    13     3    1
    38    12     7   ar
    39    22    14   ar
    40    20    16   ar
    41    35    36    1
    42    17    24    1
@<TRIPOS>MOLECULE
*****
 38 42 0 0 0
SMALL
GASTEIGER

@<TRIPOS>ATOM
      1 C         -26.5049   -8.2169  -11.9674 C.2     1  UNL1        0.2506
      2 O         -27.0119   -8.5840  -10.8729 O.2     1  UNL1       -0.2699
      3 N         -25.2447   -8.7689  -12.3982 N.am    1  UNL1       -0.2680
      4 C         -25.0269   -9.0804  -13.8149 C.3     1  UNL1        0.1412
      5 C         -24.1386   -8.0171  -14.4568 C.3     1  UNL1        0.2268
      6 O         -23.1888   -7.4959  -13.5290 O.3     1  UNL1       -0.4739
      7 C         -22.3433   -8.3150  -12.7778 C.ar    1  UNL1        0.1362
      8 C         -20.9658   -8.2157  -12.9937 C.ar    1  UNL1        0.0366
      9 C         -20.0767   -9.0310  -12.2941 C.ar    1  UNL1        0.0032
     10 C         -20.5529   -9.9558  -11.3536 C.ar    1  UNL1        0.0021
     11 C         -21.9342  -10.0328  -11.1095 C.ar    1  UNL1        0.0005
     12 C         -22.8441   -9.2255  -11.8152 C.ar    1  UNL1        0.0317
     13 C         -24.3020   -9.2715  -11.3884 C.3     1  UNL1        0.1236
     14 C         -19.6059  -10.8144  -10.6018 C.ar    1  UNL1        0.0290
     15 C         -18.8066  -10.2503   -9.5786 C.ar    1  UNL1        0.0208
     16 C         -17.9355  -11.0916   -8.8931 C.ar    1  UNL1        0.0758
     17 N         -17.0963  -10.7868   -7.8966 N.ar    1  UNL1       -0.3349
     18 C         -16.4951  -11.9646   -7.6023 C.ar    1  UNL1        0.1750
     19 N         -16.9224  -12.9992   -8.3733 N.ar    1  UNL1       -0.2241
     20 C         -17.8310  -12.4175   -9.1768 C.ar    1  UNL1        0.1008
     21 C         -18.5905  -13.0156  -10.1764 C.ar    1  UNL1        0.0502
     22 C         -19.4870  -12.2036  -10.8977 C.ar    1  UNL1        0.1417
     23 F         -20.2094  -12.7614  -11.9021 F       1  UNL1       -0.2041
     24 H         -16.9385   -9.8573   -7.4476 H       1  UNL1        0.1675
     25 C         -26.8689   -5.8632  -12.8054 C.ar    1  UNL1        0.0503
     26 C         -27.5624   -4.9886  -13.6670 C.ar    1  UNL1        0.0328
     27 C         -28.6076   -5.4538  -14.4741 C.ar    1  UNL1        0.1069
     28 C         -28.9668   -6.8037  -14.4343 C.ar    1  UNL1        0.0186
     29 C         -28.2862   -7.6853  -13.5958 C.ar    1  UNL1        0.0071
     30 C         -27.2288   -7.2329  -12.7939 C.ar    1  UNL1        0.0667
     31 S         -29.4477   -4.3422  -15.5508 S.O2    1  UNL1        0.0105
     32 C         -28.2563   -3.4687  -16.5403 C.3     1  UNL1        0.1816
     33 O         -30.3826   -5.1028  -16.4490 O.2     1  UNL1       -0.1686
     34 O         -30.2483   -3.3612  -14.7410 O.2     1  UNL1       -0.1686
     35 N         -25.8349   -5.3727  -11.9217 N.pl3   1  UNL1       -0.3325
     36 H         -25.9866   -5.4026  -10.8889 H       1  UNL1        0.1468
     37 C         -23.4629   -5.1364  -11.3370 C.3     1  UNL1        0.0229
     38 C         -24.5479   -4.8376  -12.3654 C.3     1  UNL1        0.0871
@<TRIPOS>BOND
     1    37    38    1
     2    38    35    1
     3    35    25    1
     4    25    26   ar
     5    26    27   ar
     6    27    31    1
     7    31    32    1
     8    31    33    2
     9    31    34    2
    10    27    28   ar
    11    28    29   ar
    12    29    30   ar
    13    30     1    1
    14     1     2    2
    15     1     3   am
    16     3     4    1
    17     4     5    1
    18     5     6    1
    19     6     7    1
    20     7     8   ar
    21     8     9   ar
    22     9    10   ar
    23    10    14    1
    24    14    15   ar
    25    15    16   ar
    26    16    17   ar
    27    17    18   ar
    28    18    19   ar
    29    19    20   ar
    30    20    21   ar
    31    21    22   ar
    32    22    23    1
    33    10    11   ar
    34    11    12   ar
    35    12    13    1
    36    30    25   ar
    37    13     3    1
    38    12     7   ar
    39    22    14   ar
    40    20    16   ar
    41    35    36    1
    42    17    24    1
@<TRIPOS>MOLECULE
*****
 38 42 0 0 0
SMALL
GASTEIGER

@<TRIPOS>ATOM
      1 C         -21.2977   -6.8633  -10.7520 C.2     1  UNL1        0.2506
      2 O         -21.2701   -5.7173  -10.2270 O.2     1  UNL1       -0.2699
      3 N         -22.1785   -7.1255  -11.8628 N.am    1  UNL1       -0.2680
      4 C         -21.7304   -7.9796  -12.9678 C.3     1  UNL1        0.1412
      5 C         -22.3741   -9.3601  -12.8600 C.3     1  UNL1        0.2268
      6 O         -23.6831   -9.2871  -12.2981 O.3     1  UNL1       -0.4739
      7 C         -24.6680   -8.4304  -12.7941 C.ar    1  UNL1        0.1362
      8 C         -25.8213   -8.9988  -13.3428 C.ar    1  UNL1        0.0366
      9 C         -26.8236   -8.1922  -13.8808 C.ar    1  UNL1        0.0032
     10 C         -26.6931   -6.7960  -13.8683 C.ar    1  UNL1        0.0021
     11 C         -25.5512   -6.2214  -13.2860 C.ar    1  UNL1        0.0005
     12 C         -24.5267   -7.0217  -12.7497 C.ar    1  UNL1        0.0317
     13 C         -23.3979   -6.3186  -12.0139 C.3     1  UNL1        0.1236
     14 C         -27.7647   -5.9388  -14.4305 C.ar    1  UNL1        0.0290
     15 C         -29.1219   -6.2688  -14.1999 C.ar    1  UNL1        0.0208
     16 C         -30.0965   -5.4349  -14.7396 C.ar    1  UNL1        0.0758
     17 N         -31.4271   -5.5434  -14.6497 N.ar    1  UNL1       -0.3349
     18 C         -31.8909   -4.4793  -15.3480 C.ar    1  UNL1        0.1750
     19 N         -30.9056   -3.7044  -15.8738 N.ar    1  UNL1       -0.2241
     20 C         -29.7857   -4.3322  -15.4722 C.ar    1  UNL1        0.1008
     21 C         -28.4679   -3.9706  -15.7303 C.ar    1  UNL1        0.0502
     22 C         -27.4463   -4.7847  -15.2040 C.ar    1  UNL1        0.1417
     23 F         -26.1548   -4.4692  -15.4767 F       1  UNL1       -0.2041
     24 H         -31.9826   -6.2774  -14.1566 H       1  UNL1        0.1675
     25 C         -20.6653   -8.5461   -8.9792 C.ar    1  UNL1        0.0503
     26 C         -19.8097   -9.5858   -8.5604 C.ar    1  UNL1        0.0328
     27 C         -18.7087   -9.9672   -9.3368 C.ar    1  UNL1        0.1069
     28 C         -18.4548   -9.3168  -10.5474 C.ar    1  UNL1        0.0186
     29 C         -19.2952   -8.2931  -10.9823 C.ar    1  UNL1        0.0071
     30 C         -20.4085   -7.9128  -10.2196 C.ar    1  UNL1        0.0667
     31 S         -17.6645  -11.2780   -8.7963 S.O2    1  UNL1        0.0105
     32 C         -18.1596  -12.7898   -9.5903 C.3     1  UNL1        0.1816
     33 O         -16.2343  -10.9745   -9.1455 O.2     1  UNL1       -0.1686
     34 O         -17.7749  -11.4308   -7.3051 O.2     1  UNL1       -0.1686
     35 N         -21.7628   -8.1050   -8.1476 N.pl3   1  UNL1       -0.3325
     36 H         -21.5664   -7.5062   -7.3149 H       1  UNL1        0.1468
     37 C         -23.3104   -9.8402   -8.9338 C.3     1  UNL1        0.0229
     38 C         -23.1697   -8.4223   -8.3917 C.3     1  UNL1        0.0871
@<TRIPOS>BOND
     1    37    38    1
     2    38    35    1
     3    35    25    1
     4    25    26   ar
     5    26    27   ar
     6    27    31    1
     7    31    32    1
     8    31    33    2
     9    31    34    2
    10    27    28   ar
    11    28    29   ar
    12    29    30   ar
    13    30     1    1
    14     1     2    2
    15     1     3   am
    16     3     4    1
    17     4     5    1
    18     5     6    1
    19     6     7    1
    20     7     8   ar
    21     8     9   ar
    22     9    10   ar
    23    10    14    1
    24    14    15   ar
    25    15    16   ar
    26    16    17   ar
    27    17    18   ar
    28    18    19   ar
    29    19    20   ar
    30    20    21   ar
    31    21    22   ar
    32    22    23    1
    33    10    11   ar
    34    11    12   ar
    35    12    13    1
    36    30    25   ar
    37    13     3    1
    38    12     7   ar
    39    22    14   ar
    40    20    16   ar
    41    35    36    1
    42    17    24    1
