@<TRIPOS>MOLECULE
*****
 36 39 0 0 0
SMALL
GASTEIGER

@<TRIPOS>ATOM
      1 N         -10.1919   -7.9943   30.6684 N.am    1  UNL1       -0.2685
      2 C          -9.6376   -8.7625   29.5851 C.2     1  UNL1        0.2672
      3 O         -10.3726   -9.0771   28.6097 O.2     1  UNL1       -0.2682
      4 C          -8.2331   -9.2181   29.6296 C.ar    1  UNL1        0.1347
      5 C          -7.7655  -10.0253   30.6793 C.ar    1  UNL1        0.0238
      6 C          -6.4220  -10.4223   30.6995 C.ar    1  UNL1        0.0031
      7 C          -5.9257  -11.2313   31.7338 C.ar    1  UNL1        0.0001
      8 C          -4.5816  -11.6174   31.7379 C.ar    1  UNL1        0.0000
      9 C          -3.7263  -11.2003   30.7139 C.ar    1  UNL1        0.0000
     10 C          -4.2091  -10.3941   29.6786 C.ar    1  UNL1        0.0015
     11 C          -5.5559  -10.0016   29.6653 C.ar    1  UNL1        0.0192
     12 C          -6.0641   -9.1937   28.6414 C.ar    1  UNL1        0.0989
     13 N          -7.3718   -8.8256   28.6510 N.ar    1  UNL1       -0.2393
     14 C          -9.8063   -5.6834   29.8146 C.3     1  UNL1        0.0265
     15 C          -9.6141   -6.6719   30.9763 C.3     1  UNL1        0.1007
     16 C          -8.1724   -6.8196   31.4417 C.ar    1  UNL1        0.0234
     17 C          -7.8403   -7.4343   32.6678 C.ar    1  UNL1        0.0019
     18 C          -6.5089   -7.5128   33.0860 C.ar    1  UNL1        0.0295
     19 C          -5.4928   -6.9689   32.2992 C.ar    1  UNL1        0.1424
     20 F          -4.2028   -7.0447   32.7094 F       1  UNL1       -0.2041
     21 C          -5.8067   -6.3384   31.0942 C.ar    1  UNL1        0.0590
     22 C          -7.1360   -6.2554   30.6681 C.ar    1  UNL1        0.1399
     23 F          -7.4107   -5.6173   29.5017 F       1  UNL1       -0.2044
     24 C         -11.4627   -8.4394   31.2604 C.3     1  UNL1        0.1207
     25 C         -11.2740   -9.7600   31.9607 C.ar    1  UNL1       -0.0016
     26 C         -12.1779  -10.8105   31.7427 C.ar    1  UNL1        0.0033
     27 C         -11.9673  -12.0567   32.3383 C.ar    1  UNL1        0.0214
     28 S         -13.1234  -13.3919   32.0475 S.3     1  UNL1       -0.1414
     29 C         -10.8499  -12.2645   33.1528 C.ar    1  UNL1        0.0123
     30 C          -9.9287  -11.2258   33.3760 C.ar    1  UNL1        0.0757
     31 C         -10.1488   -9.9756   32.7720 C.ar    1  UNL1        0.0039
     32 H         -12.4113  -13.8325   30.9161 H       1  UNL1        0.1071
     33 C          -8.7382  -11.4436   34.2275 C.2     1  UNL1        0.3380
     34 O          -8.7305  -12.3609   35.0925 O.2     1  UNL1       -0.2451
     35 O          -7.6127  -10.6366   34.0805 O.3     1  UNL1       -0.4771
     36 H          -6.7923  -10.7776   34.6576 H       1  UNL1        0.2954
@<TRIPOS>BOND
     1    14    15    1
     2    15    16    1
     3    16    17   ar
     4    17    18   ar
     5    18    19   ar
     6    19    20    1
     7    19    21   ar
     8    21    22   ar
     9    22    23    1
    10    15     1    1
    11     1    24    1
    12    24    25    1
    13    25    26   ar
    14    26    27   ar
    15    27    28    1
    16    27    29   ar
    17    29    30   ar
    18    30    33    1
    19    33    34    2
    20    33    35    1
    21    30    31   ar
    22     1     2   am
    23     2     3    2
    24     2     4    1
    25     4     5   ar
    26     5     6   ar
    27     6     7   ar
    28     7     8   ar
    29     8     9   ar
    30     9    10   ar
    31    10    11   ar
    32    11    12   ar
    33    12    13   ar
    34    22    16   ar
    35    31    25   ar
    36    13     4   ar
    37    11     6   ar
    38    28    32    1
    39    35    36    1
@<TRIPOS>MOLECULE
*****
 36 39 0 0 0
SMALL
GASTEIGER

@<TRIPOS>ATOM
      1 N         -10.0373  -11.2440   31.5149 N.am    1  UNL1       -0.2685
      2 C         -10.5586  -10.6093   30.3333 C.2     1  UNL1        0.2672
      3 O         -10.7437  -11.2964   29.2920 O.2     1  UNL1       -0.2682
      4 C         -10.8355   -9.1583   30.3206 C.ar    1  UNL1        0.1347
      5 C          -9.8633   -8.2382   29.8962 C.ar    1  UNL1        0.0238
      6 C         -10.1540   -6.8678   29.9162 C.ar    1  UNL1        0.0031
      7 C          -9.2039   -5.9239   29.4955 C.ar    1  UNL1        0.0001
      8 C          -9.5113   -4.5600   29.5229 C.ar    1  UNL1        0.0000
      9 C         -10.7644   -4.1297   29.9691 C.ar    1  UNL1        0.0000
     10 C         -11.7187   -5.0604   30.3909 C.ar    1  UNL1        0.0015
     11 C         -11.4200   -6.4310   30.3670 C.ar    1  UNL1        0.0192
     12 C         -12.3569   -7.3831   30.7852 C.ar    1  UNL1        0.0989
     13 N         -12.0439   -8.7047   30.7539 N.ar    1  UNL1       -0.2393
     14 C         -10.0448  -10.7104   33.9507 C.3     1  UNL1        0.0265
     15 C         -10.8471  -11.2343   32.7484 C.3     1  UNL1        0.1007
     16 C         -11.4910  -12.5956   32.9696 C.ar    1  UNL1        0.0234
     17 C         -11.0258  -13.4932   33.9542 C.ar    1  UNL1        0.0019
     18 C         -11.6112  -14.7540   34.1003 C.ar    1  UNL1        0.0295
     19 C         -12.6554  -15.1446   33.2609 C.ar    1  UNL1        0.1424
     20 F         -13.2190  -16.3693   33.4039 F       1  UNL1       -0.2041
     21 C         -13.1127  -14.2768   32.2679 C.ar    1  UNL1        0.0590
     22 C         -12.5329  -13.0136   32.1147 C.ar    1  UNL1        0.1399
     23 F         -12.9859  -12.2011   31.1259 F       1  UNL1       -0.2044
     24 C          -8.8405  -12.0889   31.3827 C.3     1  UNL1        0.1207
     25 C          -7.6244  -11.2318   31.1449 C.ar    1  UNL1       -0.0016
     26 C          -6.9253  -11.3188   29.9318 C.ar    1  UNL1        0.0033
     27 C          -5.8381  -10.4772   29.6828 C.ar    1  UNL1        0.0214
     28 S          -4.9578  -10.5923   28.1286 S.3     1  UNL1       -0.1414
     29 C          -5.4435   -9.5394   30.6420 C.ar    1  UNL1        0.0123
     30 C          -6.1375   -9.4320   31.8602 C.ar    1  UNL1        0.0757
     31 C          -7.2305  -10.2827   32.1013 C.ar    1  UNL1        0.0039
     32 H          -5.8050   -9.6484   27.5183 H       1  UNL1        0.1071
     33 C          -5.7318   -8.4333   32.8739 C.2     1  UNL1        0.3380
     34 O          -6.5601   -7.5844   33.3018 O.2     1  UNL1       -0.2451
     35 O          -4.4291   -8.4221   33.3663 O.3     1  UNL1       -0.4771
     36 H          -4.1412   -7.7432   34.0609 H       1  UNL1        0.2954
@<TRIPOS>BOND
     1    14    15    1
     2    15    16    1
     3    16    17   ar
     4    17    18   ar
     5    18    19   ar
     6    19    20    1
     7    19    21   ar
     8    21    22   ar
     9    22    23    1
    10    15     1    1
    11     1    24    1
    12    24    25    1
    13    25    26   ar
    14    26    27   ar
    15    27    28    1
    16    27    29   ar
    17    29    30   ar
    18    30    33    1
    19    33    34    2
    20    33    35    1
    21    30    31   ar
    22     1     2   am
    23     2     3    2
    24     2     4    1
    25     4     5   ar
    26     5     6   ar
    27     6     7   ar
    28     7     8   ar
    29     8     9   ar
    30     9    10   ar
    31    10    11   ar
    32    11    12   ar
    33    12    13   ar
    34    22    16   ar
    35    31    25   ar
    36    13     4   ar
    37    11     6   ar
    38    28    32    1
    39    35    36    1
@<TRIPOS>MOLECULE
*****
 36 39 0 0 0
SMALL
GASTEIGER

@<TRIPOS>ATOM
      1 N         -10.0051   -7.9391   30.6137 N.am    1  UNL1       -0.2685
      2 C          -9.4519   -8.6969   29.5227 C.2     1  UNL1        0.2672
      3 O         -10.1792   -8.9750   28.5305 O.2     1  UNL1       -0.2682
      4 C          -8.0585   -9.1844   29.5777 C.ar    1  UNL1        0.1347
      5 C          -7.6048   -9.9634   30.6544 C.ar    1  UNL1        0.0238
      6 C          -6.2712  -10.3918   30.6833 C.ar    1  UNL1        0.0031
      7 C          -5.7888  -11.1738   31.7446 C.ar    1  UNL1        0.0001
      8 C          -4.4544  -11.5919   31.7570 C.ar    1  UNL1        0.0000
      9 C          -3.5948  -11.2337   30.7143 C.ar    1  UNL1        0.0000
     10 C          -4.0637  -10.4548   29.6521 C.ar    1  UNL1        0.0015
     11 C          -5.4008  -10.0305   29.6303 C.ar    1  UNL1        0.0192
     12 C          -5.8948   -9.2489   28.5795 C.ar    1  UNL1        0.0989
     13 N          -7.1933   -8.8492   28.5814 N.ar    1  UNL1       -0.2393
     14 C          -9.5272   -5.6305   29.8014 C.3     1  UNL1        0.0265
     15 C          -9.4031   -6.6364   30.9574 C.3     1  UNL1        0.1007
     16 C          -7.9835   -6.8286   31.4715 C.ar    1  UNL1        0.0234
     17 C          -7.7134   -7.4335   32.7176 C.ar    1  UNL1        0.0019
     18 C          -6.3998   -7.5534   33.1799 C.ar    1  UNL1        0.0295
     19 C          -5.3397   -7.0608   32.4175 C.ar    1  UNL1        0.1424
     20 F          -4.0671   -7.1766   32.8704 F       1  UNL1       -0.2041
     21 C          -5.5917   -6.4405   31.1929 C.ar    1  UNL1        0.0590
     22 C          -6.9028   -6.3163   30.7227 C.ar    1  UNL1        0.1399
     23 F          -7.1164   -5.6891   29.5378 F       1  UNL1       -0.2044
     24 C         -11.2940   -8.3679   31.1781 C.3     1  UNL1        0.1207
     25 C         -11.1510   -9.7192   31.8291 C.ar    1  UNL1       -0.0016
     26 C         -10.0497   -9.9928   32.6538 C.ar    1  UNL1        0.0033
     27 C          -9.9498  -11.2213   33.3118 C.ar    1  UNL1        0.0214
     28 S          -8.5436  -11.5569   34.3671 S.3     1  UNL1       -0.1414
     29 C         -10.9514  -12.1842   33.1545 C.ar    1  UNL1        0.0123
     30 C         -12.0668  -11.9245   32.3386 C.ar    1  UNL1        0.0757
     31 C         -12.1587  -10.6853   31.6811 C.ar    1  UNL1        0.0039
     32 H          -9.1967  -11.0262   35.4954 H       1  UNL1        0.1071
     33 C         -13.1356  -12.9352   32.1780 C.2     1  UNL1        0.3380
     34 O         -14.3475  -12.5876   32.1685 O.2     1  UNL1       -0.2451
     35 O         -12.8122  -14.2822   32.0346 O.3     1  UNL1       -0.4771
     36 H         -13.5360  -14.9821   31.9232 H       1  UNL1        0.2954
@<TRIPOS>BOND
     1    14    15    1
     2    15    16    1
     3    16    17   ar
     4    17    18   ar
     5    18    19   ar
     6    19    20    1
     7    19    21   ar
     8    21    22   ar
     9    22    23    1
    10    15     1    1
    11     1    24    1
    12    24    25    1
    13    25    26   ar
    14    26    27   ar
    15    27    28    1
    16    27    29   ar
    17    29    30   ar
    18    30    33    1
    19    33    34    2
    20    33    35    1
    21    30    31   ar
    22     1     2   am
    23     2     3    2
    24     2     4    1
    25     4     5   ar
    26     5     6   ar
    27     6     7   ar
    28     7     8   ar
    29     8     9   ar
    30     9    10   ar
    31    10    11   ar
    32    11    12   ar
    33    12    13   ar
    34    22    16   ar
    35    31    25   ar
    36    13     4   ar
    37    11     6   ar
    38    28    32    1
    39    35    36    1
@<TRIPOS>MOLECULE
*****
 36 39 0 0 0
SMALL
GASTEIGER

@<TRIPOS>ATOM
      1 N          -9.7818  -11.1571   31.5473 N.am    1  UNL1       -0.2685
      2 C         -10.3988  -10.5716   30.3866 C.2     1  UNL1        0.2672
      3 O         -10.6161  -11.2894   29.3726 O.2     1  UNL1       -0.2682
      4 C         -10.7375   -9.1340   30.3609 C.ar    1  UNL1        0.1347
      5 C          -9.8055   -8.1771   29.9275 C.ar    1  UNL1        0.0238
      6 C         -10.1544   -6.8202   29.9354 C.ar    1  UNL1        0.0031
      7 C          -9.2456   -5.8405   29.5054 C.ar    1  UNL1        0.0001
      8 C          -9.6110   -4.4907   29.5207 C.ar    1  UNL1        0.0000
      9 C         -10.8811   -4.1103   29.9639 C.ar    1  UNL1        0.0000
     10 C         -11.7946   -5.0770   30.3948 C.ar    1  UNL1        0.0015
     11 C         -11.4378   -6.4337   30.3831 C.ar    1  UNL1        0.0192
     12 C         -12.3331   -7.4211   30.8106 C.ar    1  UNL1        0.0989
     13 N         -11.9639   -8.7284   30.7911 N.ar    1  UNL1       -0.2393
     14 C          -9.6083  -10.7568   34.0024 C.3     1  UNL1        0.0265
     15 C         -10.5168  -11.1524   32.8269 C.3     1  UNL1        0.1007
     16 C         -11.2526  -12.4708   33.0194 C.ar    1  UNL1        0.0234
     17 C         -10.8072  -13.4511   33.9316 C.ar    1  UNL1        0.0019
     18 C         -11.4810  -14.6699   34.0507 C.ar    1  UNL1        0.0295
     19 C         -12.5961  -14.9361   33.2550 C.ar    1  UNL1        0.1424
     20 F         -13.2456  -16.1205   33.3715 F       1  UNL1       -0.2041
     21 C         -13.0366  -13.9857   32.3327 C.ar    1  UNL1        0.0590
     22 C         -12.3684  -12.7636   32.2069 C.ar    1  UNL1        0.1399
     23 F         -12.8088  -11.8688   31.2858 F       1  UNL1       -0.2044
     24 C          -8.5602  -11.9548   31.3605 C.3     1  UNL1        0.1207
     25 C          -7.4064  -11.0579   30.9938 C.ar    1  UNL1       -0.0016
     26 C          -6.8331  -10.2150   31.9575 C.ar    1  UNL1        0.0033
     27 C          -5.7206   -9.4326   31.6375 C.ar    1  UNL1        0.0214
     28 S          -4.9931   -8.3659   32.8771 S.3     1  UNL1       -0.1414
     29 C          -5.1697   -9.4894   30.3536 C.ar    1  UNL1        0.0123
     30 C          -5.7257  -10.3347   29.3771 C.ar    1  UNL1        0.0757
     31 C          -6.8446  -11.1186   29.7087 C.ar    1  UNL1        0.0039
     32 H          -4.1273   -9.3833   33.3204 H       1  UNL1        0.1071
     33 C          -5.1395  -10.4077   28.0203 C.2     1  UNL1        0.3380
     34 O          -4.7441   -9.3616   27.4381 O.2     1  UNL1       -0.2451
     35 O          -5.0179  -11.6348   27.3731 O.3     1  UNL1       -0.4771
     36 H          -4.6174  -11.6960   26.4447 H       1  UNL1        0.2954
@<TRIPOS>BOND
     1    14    15    1
     2    15    16    1
     3    16    17   ar
     4    17    18   ar
     5    18    19   ar
     6    19    20    1
     7    19    21   ar
     8    21    22   ar
     9    22    23    1
    10    15     1    1
    11     1    24    1
    12    24    25    1
    13    25    26   ar
    14    26    27   ar
    15    27    28    1
    16    27    29   ar
    17    29    30   ar
    18    30    33    1
    19    33    34    2
    20    33    35    1
    21    30    31   ar
    22     1     2   am
    23     2     3    2
    24     2     4    1
    25     4     5   ar
    26     5     6   ar
    27     6     7   ar
    28     7     8   ar
    29     8     9   ar
    30     9    10   ar
    31    10    11   ar
    32    11    12   ar
    33    12    13   ar
    34    22    16   ar
    35    31    25   ar
    36    13     4   ar
    37    11     6   ar
    38    28    32    1
    39    35    36    1
@<TRIPOS>MOLECULE
*****
 36 39 0 0 0
SMALL
GASTEIGER

@<TRIPOS>ATOM
      1 N          -9.0962  -10.9316   30.3794 N.am    1  UNL1       -0.2685
      2 C          -9.7207  -12.2267   30.3209 C.2     1  UNL1        0.2672
      3 O          -9.7019  -12.8747   29.2391 O.2     1  UNL1       -0.2682
      4 C         -10.4164  -12.7787   31.5014 C.ar    1  UNL1        0.1347
      5 C         -11.4402  -13.7295   31.3608 C.ar    1  UNL1        0.0238
      6 C         -12.0918  -14.2165   32.5015 C.ar    1  UNL1        0.0031
      7 C         -13.1170  -15.1693   32.3935 C.ar    1  UNL1        0.0001
      8 C         -13.7567  -15.6438   33.5430 C.ar    1  UNL1        0.0000
      9 C         -13.3795  -15.1723   34.8038 C.ar    1  UNL1        0.0000
     10 C         -12.3600  -14.2230   34.9239 C.ar    1  UNL1        0.0015
     11 C         -11.7120  -13.7410   33.7768 C.ar    1  UNL1        0.0192
     12 C         -10.6895  -12.7896   33.8693 C.ar    1  UNL1        0.0989
     13 N         -10.0776  -12.3371   32.7439 N.ar    1  UNL1       -0.2393
     14 C          -8.3950   -9.7975   32.4866 C.3     1  UNL1        0.0265
     15 C          -7.9835  -10.7162   31.3246 C.3     1  UNL1        0.1007
     16 C          -6.7360  -10.2636   30.5792 C.ar    1  UNL1        0.0234
     17 C          -6.1340   -9.0099   30.8182 C.ar    1  UNL1        0.0019
     18 C          -5.0154   -8.6068   30.0835 C.ar    1  UNL1        0.0295
     19 C          -4.4899   -9.4371   29.0926 C.ar    1  UNL1        0.1424
     20 F          -3.4063   -9.0416   28.3803 F       1  UNL1       -0.2041
     21 C          -5.0867  -10.6710   28.8291 C.ar    1  UNL1        0.0590
     22 C          -6.2062  -11.0822   29.5593 C.ar    1  UNL1        0.1399
     23 F          -6.7763  -12.2786   29.2647 F       1  UNL1       -0.2044
     24 C          -9.4183   -9.9536   29.3290 C.3     1  UNL1        0.1207
     25 C          -9.7502   -8.6199   29.9465 C.ar    1  UNL1       -0.0016
     26 C          -8.8050   -7.5833   29.9388 C.ar    1  UNL1        0.0033
     27 C          -9.1342   -6.3254   30.4502 C.ar    1  UNL1        0.0214
     28 S          -7.9226   -5.0082   30.4290 S.3     1  UNL1       -0.1414
     29 C         -10.4114   -6.0922   30.9694 C.ar    1  UNL1        0.0123
     30 C         -11.3745   -7.1167   30.9778 C.ar    1  UNL1        0.0757
     31 C         -11.0341   -8.3788   30.4605 C.ar    1  UNL1        0.0039
     32 H          -8.3353   -4.5776   29.1540 H       1  UNL1        0.1071
     33 C         -12.7314   -6.8720   31.5151 C.2     1  UNL1        0.3380
     34 O         -12.8839   -6.3105   32.6337 O.2     1  UNL1       -0.2451
     35 O         -13.8546   -7.2595   30.7886 O.3     1  UNL1       -0.4771
     36 H         -14.7879   -7.0960   31.1469 H       1  UNL1        0.2954
@<TRIPOS>BOND
     1    14    15    1
     2    15    16    1
     3    16    17   ar
     4    17    18   ar
     5    18    19   ar
     6    19    20    1
     7    19    21   ar
     8    21    22   ar
     9    22    23    1
    10    15     1    1
    11     1    24    1
    12    24    25    1
    13    25    26   ar
    14    26    27   ar
    15    27    28    1
    16    27    29   ar
    17    29    30   ar
    18    30    33    1
    19    33    34    2
    20    33    35    1
    21    30    31   ar
    22     1     2   am
    23     2     3    2
    24     2     4    1
    25     4     5   ar
    26     5     6   ar
    27     6     7   ar
    28     7     8   ar
    29     8     9   ar
    30     9    10   ar
    31    10    11   ar
    32    11    12   ar
    33    12    13   ar
    34    22    16   ar
    35    31    25   ar
    36    13     4   ar
    37    11     6   ar
    38    28    32    1
    39    35    36    1
@<TRIPOS>MOLECULE
*****
 36 39 0 0 0
SMALL
GASTEIGER

@<TRIPOS>ATOM
      1 N          -9.3878  -10.7888   30.1749 N.am    1  UNL1       -0.2685
      2 C          -9.8735  -12.1430   30.2054 C.2     1  UNL1        0.2672
      3 O          -9.8254  -12.8417   29.1565 O.2     1  UNL1       -0.2682
      4 C         -10.4637  -12.7013   31.4392 C.ar    1  UNL1        0.1347
      5 C         -11.5016  -13.6456   31.3836 C.ar    1  UNL1        0.0238
      6 C         -12.0511  -14.1388   32.5743 C.ar    1  UNL1        0.0031
      7 C         -13.0874  -15.0854   32.5513 C.ar    1  UNL1        0.0001
      8 C         -13.6242  -15.5661   33.7498 C.ar    1  UNL1        0.0000
      9 C         -13.1326  -15.1072   34.9753 C.ar    1  UNL1        0.0000
     10 C         -12.1009  -14.1642   35.0109 C.ar    1  UNL1        0.0015
     11 C         -11.5555  -13.6760   33.8141 C.ar    1  UNL1        0.0192
     12 C         -10.5232  -12.7307   33.8220 C.ar    1  UNL1        0.0989
     13 N         -10.0122  -12.2720   32.6498 N.ar    1  UNL1       -0.2393
     14 C          -8.7031   -9.3673   32.1058 C.3     1  UNL1        0.0265
     15 C          -8.2708  -10.4095   31.0615 C.3     1  UNL1        0.1007
     16 C          -7.0557  -10.0058   30.2386 C.ar    1  UNL1        0.0234
     17 C          -6.6004   -8.6713   30.1800 C.ar    1  UNL1        0.0019
     18 C          -5.5083   -8.3273   29.3783 C.ar    1  UNL1        0.0295
     19 C          -4.8644   -9.3012   28.6138 C.ar    1  UNL1        0.1424
     20 F          -3.8070   -8.9633   27.8354 F       1  UNL1       -0.2041
     21 C          -5.3158  -10.6216   28.6440 C.ar    1  UNL1        0.0590
     22 C          -6.4078  -10.9745   29.4432 C.ar    1  UNL1        0.1399
     23 F          -6.8358  -12.2628   29.4344 F       1  UNL1       -0.2044
     24 C          -9.8495   -9.9063   29.0925 C.3     1  UNL1        0.1207
     25 C         -10.3445   -8.6023   29.6622 C.ar    1  UNL1       -0.0016
     26 C         -11.4861   -8.5757   30.4770 C.ar    1  UNL1        0.0033
     27 C         -11.9077   -7.3784   31.0609 C.ar    1  UNL1        0.0214
     28 S         -13.3617   -7.3575   32.1044 S.3     1  UNL1       -0.1414
     29 C         -11.1897   -6.1993   30.8387 C.ar    1  UNL1        0.0123
     30 C         -10.0382   -6.2083   30.0317 C.ar    1  UNL1        0.0757
     31 C          -9.6215   -7.4179   29.4491 C.ar    1  UNL1        0.0039
     32 H         -12.6027   -7.6316   33.2577 H       1  UNL1        0.1071
     33 C          -9.2678   -4.9658   29.8029 C.2     1  UNL1        0.3380
     34 O          -9.8313   -3.9431   29.3271 O.2     1  UNL1       -0.2451
     35 O          -7.9109   -4.9140   30.1122 O.3     1  UNL1       -0.4771
     36 H          -7.3745   -4.0683   29.9602 H       1  UNL1        0.2954
@<TRIPOS>BOND
     1    14    15    1
     2    15    16    1
     3    16    17   ar
     4    17    18   ar
     5    18    19   ar
     6    19    20    1
     7    19    21   ar
     8    21    22   ar
     9    22    23    1
    10    15     1    1
    11     1    24    1
    12    24    25    1
    13    25    26   ar
    14    26    27   ar
    15    27    28    1
    16    27    29   ar
    17    29    30   ar
    18    30    33    1
    19    33    34    2
    20    33    35    1
    21    30    31   ar
    22     1     2   am
    23     2     3    2
    24     2     4    1
    25     4     5   ar
    26     5     6   ar
    27     6     7   ar
    28     7     8   ar
    29     8     9   ar
    30     9    10   ar
    31    10    11   ar
    32    11    12   ar
    33    12    13   ar
    34    22    16   ar
    35    31    25   ar
    36    13     4   ar
    37    11     6   ar
    38    28    32    1
    39    35    36    1
@<TRIPOS>MOLECULE
*****
 36 39 0 0 0
SMALL
GASTEIGER

@<TRIPOS>ATOM
      1 N          -8.9127  -10.9842   30.8411 N.am    1  UNL1       -0.2685
      2 C          -9.5862  -12.1613   30.3600 C.2     1  UNL1        0.2672
      3 O          -9.1294  -12.7679   29.3531 O.2     1  UNL1       -0.2682
      4 C         -10.8260  -12.6349   31.0088 C.ar    1  UNL1        0.1347
      5 C         -10.9169  -13.9319   31.5395 C.ar    1  UNL1        0.0238
      6 C         -12.1152  -14.3540   32.1300 C.ar    1  UNL1        0.0031
      7 C         -12.2360  -15.6434   32.6717 C.ar    1  UNL1        0.0001
      8 C         -13.4400  -16.0478   33.2568 C.ar    1  UNL1        0.0000
      9 C         -14.5283  -15.1717   33.3052 C.ar    1  UNL1        0.0000
     10 C         -14.4201  -13.8851   32.7687 C.ar    1  UNL1        0.0015
     11 C         -13.2164  -13.4698   32.1797 C.ar    1  UNL1        0.0192
     12 C         -13.0823  -12.1878   31.6341 C.ar    1  UNL1        0.0989
     13 N         -11.9068  -11.8091   31.0680 N.ar    1  UNL1       -0.2393
     14 C          -9.4944  -10.8627   33.2628 C.3     1  UNL1        0.0265
     15 C          -8.3751  -10.9792   32.2153 C.3     1  UNL1        0.1007
     16 C          -7.2783   -9.9326   32.3508 C.ar    1  UNL1        0.0234
     17 C          -7.4963   -8.6988   33.0001 C.ar    1  UNL1        0.0019
     18 C          -6.4802   -7.7413   33.0670 C.ar    1  UNL1        0.0295
     19 C          -5.2403   -7.9912   32.4772 C.ar    1  UNL1        0.1424
     20 F          -4.2580   -7.0591   32.5419 F       1  UNL1       -0.2041
     21 C          -5.0157   -9.1978   31.8126 C.ar    1  UNL1        0.0590
     22 C          -6.0267  -10.1614   31.7408 C.ar    1  UNL1        0.1399
     23 F          -5.7838  -11.3159   31.0691 F       1  UNL1       -0.2044
     24 C          -8.5664   -9.9333   29.8719 C.3     1  UNL1        0.1207
     25 C          -9.4309   -8.7192   30.0927 C.ar    1  UNL1       -0.0016
     26 C         -10.7287   -8.8603   30.6062 C.ar    1  UNL1        0.0033
     27 C         -11.5070   -7.7314   30.8748 C.ar    1  UNL1        0.0214
     28 S         -13.1591   -7.9230   31.5364 S.3     1  UNL1       -0.1414
     29 C         -10.9933   -6.4529   30.6365 C.ar    1  UNL1        0.0123
     30 C          -9.6915   -6.2918   30.1300 C.ar    1  UNL1        0.0757
     31 C          -8.9158   -7.4335   29.8634 C.ar    1  UNL1        0.0039
     32 H         -12.6886   -7.8918   32.8627 H       1  UNL1        0.1071
     33 C          -9.1385   -4.9409   29.8872 C.2     1  UNL1        0.3380
     34 O          -9.8658   -4.0295   29.4075 O.2     1  UNL1       -0.2451
     35 O          -7.8073   -4.6628   30.1876 O.3     1  UNL1       -0.4771
     36 H          -7.4190   -3.7413   30.0260 H       1  UNL1        0.2954
@<TRIPOS>BOND
     1    14    15    1
     2    15    16    1
     3    16    17   ar
     4    17    18   ar
     5    18    19   ar
     6    19    20    1
     7    19    21   ar
     8    21    22   ar
     9    22    23    1
    10    15     1    1
    11     1    24    1
    12    24    25    1
    13    25    26   ar
    14    26    27   ar
    15    27    28    1
    16    27    29   ar
    17    29    30   ar
    18    30    33    1
    19    33    34    2
    20    33    35    1
    21    30    31   ar
    22     1     2   am
    23     2     3    2
    24     2     4    1
    25     4     5   ar
    26     5     6   ar
    27     6     7   ar
    28     7     8   ar
    29     8     9   ar
    30     9    10   ar
    31    10    11   ar
    32    11    12   ar
    33    12    13   ar
    34    22    16   ar
    35    31    25   ar
    36    13     4   ar
    37    11     6   ar
    38    28    32    1
    39    35    36    1
@<TRIPOS>MOLECULE
*****
 36 39 0 0 0
SMALL
GASTEIGER

@<TRIPOS>ATOM
      1 N          -8.8784  -11.1043   30.8106 N.am    1  UNL1       -0.2685
      2 C          -9.6005  -12.2460   30.3149 C.2     1  UNL1        0.2672
      3 O          -9.1953  -12.8303   29.2732 O.2     1  UNL1       -0.2682
      4 C         -10.8301  -12.7080   30.9908 C.ar    1  UNL1        0.1347
      5 C         -10.9429  -14.0223   31.4722 C.ar    1  UNL1        0.0238
      6 C         -12.1316  -14.4318   32.0904 C.ar    1  UNL1        0.0031
      7 C         -12.2736  -15.7381   32.5843 C.ar    1  UNL1        0.0001
      8 C         -13.4677  -16.1295   33.1980 C.ar    1  UNL1        0.0000
      9 C         -14.5249  -15.2234   33.3225 C.ar    1  UNL1        0.0000
     10 C         -14.3955  -13.9197   32.8342 C.ar    1  UNL1        0.0015
     11 C         -13.2015  -13.5173   32.2171 C.ar    1  UNL1        0.0192
     12 C         -13.0467  -12.2186   31.7185 C.ar    1  UNL1        0.0989
     13 N         -11.8812  -11.8529   31.1239 N.ar    1  UNL1       -0.2393
     14 C          -9.3803  -11.1454   33.2528 C.3     1  UNL1        0.0265
     15 C          -8.2944  -11.1601   32.1646 C.3     1  UNL1        0.1007
     16 C          -7.2299  -10.0843   32.3266 C.ar    1  UNL1        0.0234
     17 C          -7.4744   -8.8895   33.0367 C.ar    1  UNL1        0.0019
     18 C          -6.4891   -7.9023   33.1276 C.ar    1  UNL1        0.0295
     19 C          -5.2546   -8.0830   32.5024 C.ar    1  UNL1        0.1424
     20 F          -4.3022   -7.1221   32.5907 F       1  UNL1       -0.2041
     21 C          -5.0047   -9.2497   31.7782 C.ar    1  UNL1        0.0590
     22 C          -5.9848  -10.2425   31.6819 C.ar    1  UNL1        0.1399
     23 F          -5.7186  -11.3562   30.9527 F       1  UNL1       -0.2044
     24 C          -8.5363  -10.0309   29.8649 C.3     1  UNL1        0.1207
     25 C          -9.2726   -8.7670   30.2266 C.ar    1  UNL1       -0.0016
     26 C          -8.6766   -7.5158   30.0092 C.ar    1  UNL1        0.0033
     27 C          -9.3836   -6.3416   30.2810 C.ar    1  UNL1        0.0214
     28 S          -8.6158   -4.7506   29.9933 S.3     1  UNL1       -0.1414
     29 C         -10.6926   -6.4084   30.7679 C.ar    1  UNL1        0.0123
     30 C         -11.3092   -7.6535   30.9839 C.ar    1  UNL1        0.0757
     31 C         -10.5901   -8.8293   30.7070 C.ar    1  UNL1        0.0039
     32 H          -9.0852   -4.7047   28.6671 H       1  UNL1        0.1071
     33 C         -12.6985   -7.7299   31.4878 C.2     1  UNL1        0.3380
     34 O         -12.9881   -8.4918   32.4498 O.2     1  UNL1       -0.2451
     35 O         -13.7006   -6.9592   30.9037 O.3     1  UNL1       -0.4771
     36 H         -14.6545   -7.0034   31.2415 H       1  UNL1        0.2954
@<TRIPOS>BOND
     1    14    15    1
     2    15    16    1
     3    16    17   ar
     4    17    18   ar
     5    18    19   ar
     6    19    20    1
     7    19    21   ar
     8    21    22   ar
     9    22    23    1
    10    15     1    1
    11     1    24    1
    12    24    25    1
    13    25    26   ar
    14    26    27   ar
    15    27    28    1
    16    27    29   ar
    17    29    30   ar
    18    30    33    1
    19    33    34    2
    20    33    35    1
    21    30    31   ar
    22     1     2   am
    23     2     3    2
    24     2     4    1
    25     4     5   ar
    26     5     6   ar
    27     6     7   ar
    28     7     8   ar
    29     8     9   ar
    30     9    10   ar
    31    10    11   ar
    32    11    12   ar
    33    12    13   ar
    34    22    16   ar
    35    31    25   ar
    36    13     4   ar
    37    11     6   ar
    38    28    32    1
    39    35    36    1
@<TRIPOS>MOLECULE
*****
 36 39 0 0 0
SMALL
GASTEIGER

@<TRIPOS>ATOM
      1 N          -9.0426  -10.5060   32.0503 N.am    1  UNL1       -0.2685
      2 C         -10.3744  -10.3405   32.5695 C.2     1  UNL1        0.2672
      3 O         -10.7128   -9.2304   33.0633 O.2     1  UNL1       -0.2682
      4 C         -11.3271  -11.4694   32.5663 C.ar    1  UNL1        0.1347
      5 C         -11.1867  -12.5394   33.4649 C.ar    1  UNL1        0.0238
      6 C         -12.0975  -13.6031   33.4200 C.ar    1  UNL1        0.0031
      7 C         -11.9849  -14.6854   34.3069 C.ar    1  UNL1        0.0001
      8 C         -12.9029  -15.7386   34.2472 C.ar    1  UNL1        0.0000
      9 C         -13.9357  -15.7197   33.3054 C.ar    1  UNL1        0.0000
     10 C         -14.0578  -14.6473   32.4166 C.ar    1  UNL1        0.0015
     11 C         -13.1421  -13.5857   32.4686 C.ar    1  UNL1        0.0192
     12 C         -13.2411  -12.5011   31.5893 C.ar    1  UNL1        0.0989
     13 N         -12.3416  -11.4854   31.6583 N.ar    1  UNL1       -0.2393
     14 C          -9.3550  -12.2722   30.3180 C.3     1  UNL1        0.0265
     15 C          -8.8678  -10.8468   30.6252 C.3     1  UNL1        0.1007
     16 C          -7.4384  -10.5644   30.1850 C.ar    1  UNL1        0.0234
     17 C          -6.3489  -11.3408   30.6343 C.ar    1  UNL1        0.0019
     18 C          -5.0436  -11.0258   30.2462 C.ar    1  UNL1        0.0295
     19 C          -4.8027   -9.9276   29.4195 C.ar    1  UNL1        0.1424
     20 F          -3.5350   -9.6238   29.0472 F       1  UNL1       -0.2041
     21 C          -5.8672   -9.1369   28.9839 C.ar    1  UNL1        0.0590
     22 C          -7.1763   -9.4446   29.3674 C.ar    1  UNL1        0.1399
     23 F          -8.1875   -8.6437   28.9444 F       1  UNL1       -0.2044
     24 C          -7.9096  -10.0865   32.8893 C.3     1  UNL1        0.1207
     25 C          -7.4890   -8.6851   32.5296 C.ar    1  UNL1       -0.0016
     26 C          -6.1710   -8.2628   32.7583 C.ar    1  UNL1        0.0033
     27 C          -5.7613   -6.9865   32.3638 C.ar    1  UNL1        0.0214
     28 S          -4.0752   -6.4607   32.6544 S.3     1  UNL1       -0.1414
     29 C          -6.6639   -6.1240   31.7341 C.ar    1  UNL1        0.0123
     30 C          -7.9867   -6.5332   31.4890 C.ar    1  UNL1        0.0757
     31 C          -8.3894   -7.8193   31.8890 C.ar    1  UNL1        0.0039
     32 H          -3.6486   -6.9623   31.4104 H       1  UNL1        0.1071
     33 C          -8.9428   -5.6289   30.8122 C.2     1  UNL1        0.3380
     34 O          -8.5611   -4.8879   29.8661 O.2     1  UNL1       -0.2451
     35 O         -10.2756   -5.5884   31.2141 O.3     1  UNL1       -0.4771
     36 H         -10.9384   -4.9737   30.7570 H       1  UNL1        0.2954
@<TRIPOS>BOND
     1    14    15    1
     2    15    16    1
     3    16    17   ar
     4    17    18   ar
     5    18    19   ar
     6    19    20    1
     7    19    21   ar
     8    21    22   ar
     9    22    23    1
    10    15     1    1
    11     1    24    1
    12    24    25    1
    13    25    26   ar
    14    26    27   ar
    15    27    28    1
    16    27    29   ar
    17    29    30   ar
    18    30    33    1
    19    33    34    2
    20    33    35    1
    21    30    31   ar
    22     1     2   am
    23     2     3    2
    24     2     4    1
    25     4     5   ar
    26     5     6   ar
    27     6     7   ar
    28     7     8   ar
    29     8     9   ar
    30     9    10   ar
    31    10    11   ar
    32    11    12   ar
    33    12    13   ar
    34    22    16   ar
    35    31    25   ar
    36    13     4   ar
    37    11     6   ar
    38    28    32    1
    39    35    36    1
