@<TRIPOS>MOLECULE
*****
 51 56 0 0 0
SMALL
GASTEIGER

@<TRIPOS>ATOM
      1 C          60.3338   85.9529   11.3693 C.2     1  UNL1        0.2483
      2 O          60.0201   86.5867   12.4142 O.2     1  UNL1       -0.2701
      3 N          60.7271   84.5743   11.4611 N.am    1  UNL1       -0.2945
      4 H          60.7342   84.0099   10.5840 H       1  UNL1        0.1501
      5 C          60.0603   87.8863    7.5358 C.ar    1  UNL1        0.0502
      6 C          59.2321   86.7983    7.8517 C.ar    1  UNL1        0.0148
      7 C          59.3213   86.1814    9.1022 C.ar    1  UNL1        0.0080
      8 C          60.2486   86.6319   10.0567 C.ar    1  UNL1        0.0808
      9 C          61.0698   87.7331    9.7445 C.ar    1  UNL1        0.1457
     10 F          61.9301   88.2463   10.6593 F       1  UNL1       -0.2040
     11 C          60.9761   88.3486    8.4923 C.ar    1  UNL1        0.0443
     12 N          59.9930   90.2083    4.0360 N.pl3   1  UNL1       -0.2897
     13 C          58.9328   90.3835    5.0376 C.3     1  UNL1        0.1136
     14 C          58.6964   89.0699    5.7801 C.3     1  UNL1        0.1123
     15 N          59.9760   88.5240    6.2474 N.pl3   1  UNL1       -0.3040
     16 C          61.0492   88.3537    5.2606 C.3     1  UNL1        0.1123
     17 C          61.2749   89.6594    4.4943 C.3     1  UNL1        0.1136
     18 C          61.0109   91.8460    0.8147 C.ar    1  UNL1       -0.0140
     19 C          61.0866   91.1579    2.0366 C.ar    1  UNL1        0.0300
     20 C          59.9271   90.9051    2.7779 C.ar    1  UNL1        0.1315
     21 N          58.7310   91.3516    2.3145 N.ar    1  UNL1       -0.2292
     22 C          58.6132   92.0268    1.1434 C.ar    1  UNL1        0.1038
     23 C          59.7464   92.3059    0.3555 C.ar    1  UNL1        0.0867
     24 C          59.5810   93.0384   -0.9634 C.3     1  UNL1        0.4197
     25 F          60.6723   93.8430   -1.2439 F       1  UNL1       -0.1658
     26 F          59.4484   92.1334   -2.0000 F       1  UNL1       -0.1658
     27 F          58.4569   93.8421   -0.9079 F       1  UNL1       -0.1658
     28 C          63.4792   92.2170    1.0401 C.3     1  UNL1        0.0050
     29 C          62.3048   92.1033    0.0712 C.3     1  UNL1        0.0265
     30 C          60.8453   83.8847   12.7504 C.3     1  UNL1        0.1535
     31 C          61.3292   84.8305   13.8232 C.2     1  UNL1        0.2443
     32 O          60.7537   84.8235   14.9451 O.2     1  UNL1       -0.2730
     33 N          62.4307   85.7232   13.5777 N.am    1  UNL1       -0.2825
     34 H          63.0491   85.5344   12.7573 H       1  UNL1        0.1549
     35 C          62.7832   86.8256   14.4309 C.ar    1  UNL1        0.0535
     36 C          63.3067   87.9947   13.8621 C.ar    1  UNL1        0.0353
     37 C          63.6235   89.0809   14.6810 C.ar    1  UNL1        0.1002
     38 N          63.4084   89.0101   16.0211 N.ar    1  UNL1       -0.2422
     39 C          62.8832   87.8980   16.5997 C.ar    1  UNL1        0.1002
     40 C          62.5539   86.7885   15.8170 C.ar    1  UNL1        0.0353
     41 C          59.5260   83.1871   13.1471 C.3     1  UNL1        0.0569
     42 C          58.9141   82.3614   12.0464 C.ar    1  UNL1       -0.0017
     43 C          58.4257   82.8342   10.8311 C.ar    1  UNL1        0.0681
     44 N          57.9775   81.8106   10.0699 N.ar    1  UNL1       -0.3523
     45 C          58.1713   80.6959   10.7952 C.ar    1  UNL1        0.0563
     46 C          57.8629   79.3864   10.4288 C.ar    1  UNL1        0.0170
     47 C          58.1470   78.3615   11.3495 C.ar    1  UNL1        0.0015
     48 C          58.7225   78.6650   12.6030 C.ar    1  UNL1        0.0001
     49 C          59.0209   79.9958   12.9467 C.ar    1  UNL1        0.0012
     50 C          58.7364   80.9906   12.0099 C.ar    1  UNL1        0.0131
     51 H          57.5653   81.8777    9.1128 H       1  UNL1        0.1660
@<TRIPOS>BOND
     1    28    29    1
     2    29    18    1
     3    18    19   ar
     4    19    20   ar
     5    20    12    1
     6    12    13    1
     7    13    14    1
     8    14    15    1
     9    15     5    1
    10     5     6   ar
    11     6     7   ar
    12     7     8   ar
    13     8     1    1
    14     1     2    2
    15     1     3   am
    16     3    30    1
    17    30    41    1
    18    41    42    1
    19    42    43   ar
    20    43    44   ar
    21    44    45   ar
    22    45    46   ar
    23    46    47   ar
    24    47    48   ar
    25    48    49   ar
    26    49    50   ar
    27    30    31    1
    28    31    32    2
    29    31    33   am
    30    33    35    1
    31    35    36   ar
    32    36    37   ar
    33    37    38   ar
    34    38    39   ar
    35    39    40   ar
    36     8     9   ar
    37     9    10    1
    38     9    11   ar
    39    15    16    1
    40    16    17    1
    41    20    21   ar
    42    21    22   ar
    43    22    23   ar
    44    23    24    1
    45    24    25    1
    46    24    26    1
    47    24    27    1
    48    23    18   ar
    49    17    12    1
    50    11     5   ar
    51    50    42   ar
    52    40    35   ar
    53    50    45   ar
    54     3     4    1
    55    44    51    1
    56    33    34    1
@<TRIPOS>MOLECULE
*****
 51 56 0 0 0
SMALL
GASTEIGER

@<TRIPOS>ATOM
      1 C          59.7489   86.1985   11.5191 C.2     1  UNL1        0.2483
      2 O          59.3343   86.8507   12.5164 O.2     1  UNL1       -0.2701
      3 N          60.1432   84.8261   11.6767 N.am    1  UNL1       -0.2945
      4 H          60.2365   84.2438   10.8165 H       1  UNL1        0.1501
      5 C          59.8190   88.0487    7.6357 C.ar    1  UNL1        0.0502
      6 C          58.9962   86.9402    7.8880 C.ar    1  UNL1        0.0148
      7 C          58.9729   86.3505    9.1544 C.ar    1  UNL1        0.0080
      8 C          59.7809   86.8493   10.1899 C.ar    1  UNL1        0.0808
      9 C          60.5959   87.9708    9.9403 C.ar    1  UNL1        0.1457
     10 F          61.3396   88.5293   10.9280 F       1  UNL1       -0.2040
     11 C          60.6150   88.5589    8.6718 C.ar    1  UNL1        0.0443
     12 N          60.0815   90.2909    4.0933 N.pl3   1  UNL1       -0.2897
     13 C          58.9529   90.5156    5.0065 C.3     1  UNL1        0.1136
     14 C          58.6254   89.2256    5.7559 C.3     1  UNL1        0.1123
     15 N          59.8505   88.6586    6.3315 N.pl3   1  UNL1       -0.3040
     16 C          60.9910   88.4390    5.4342 C.3     1  UNL1        0.1123
     17 C          61.3095   89.7208    4.6603 C.3     1  UNL1        0.1136
     18 C          61.3439   91.6340    0.8226 C.ar    1  UNL1       -0.0140
     19 C          61.3055   90.9705    2.0598 C.ar    1  UNL1        0.0300
     20 C          60.1306   90.9602    2.8197 C.ar    1  UNL1        0.1315
     21 N          59.0349   91.6172    2.3587 N.ar    1  UNL1       -0.2292
     22 C          59.0302   92.2770    1.1731 C.ar    1  UNL1        0.1038
     23 C          60.1836   92.3171    0.3664 C.ar    1  UNL1        0.0867
     24 C          60.1409   93.0391   -0.9680 C.3     1  UNL1        0.4197
     25 F          59.0215   93.8463   -1.0791 F       1  UNL1       -0.1658
     26 F          61.2556   93.8439   -1.1125 F       1  UNL1       -0.1658
     27 F          60.1066   92.1124   -1.9940 F       1  UNL1       -0.1658
     28 C          63.7913   92.1653    0.9180 C.3     1  UNL1        0.0050
     29 C          62.6515   91.6229    0.0591 C.3     1  UNL1        0.0265
     30 C          60.1465   84.1646   12.9860 C.3     1  UNL1        0.1535
     31 C          59.7147   82.7233   12.8608 C.2     1  UNL1        0.2443
     32 O          60.1343   81.8869   13.7060 O.2     1  UNL1       -0.2730
     33 N          58.8358   82.3057   11.8007 N.am    1  UNL1       -0.2825
     34 H          58.3008   83.0380   11.2824 H       1  UNL1        0.1549
     35 C          58.5885   80.9337   11.4491 C.ar    1  UNL1        0.0535
     36 C          58.8528   79.9258   12.3866 C.ar    1  UNL1        0.0353
     37 C          58.5870   78.5932   12.0635 C.ar    1  UNL1        0.1002
     38 N          58.0580   78.2777   10.8519 N.ar    1  UNL1       -0.2422
     39 C          57.7718   79.2343    9.9297 C.ar    1  UNL1        0.1002
     40 C          58.0238   80.5792   10.2119 C.ar    1  UNL1        0.0353
     41 C          61.5146   84.2991   13.6895 C.3     1  UNL1        0.0569
     42 C          62.6013   83.4506   13.0838 C.ar    1  UNL1       -0.0017
     43 C          63.4724   82.6080   13.7697 C.ar    1  UNL1        0.0681
     44 N          64.2985   81.9757   12.9061 N.ar    1  UNL1       -0.3523
     45 C          63.9628   82.4158   11.6814 C.ar    1  UNL1        0.0563
     46 C          64.5382   82.0486   10.4657 C.ar    1  UNL1        0.0170
     47 C          64.0328   82.6398    9.2935 C.ar    1  UNL1        0.0015
     48 C          62.9785   83.5771    9.3621 C.ar    1  UNL1        0.0001
     49 C          62.4188   83.9305   10.6030 C.ar    1  UNL1        0.0012
     50 C          62.9344   83.3211   11.7481 C.ar    1  UNL1        0.0131
     51 H          65.0444   81.2858   13.1468 H       1  UNL1        0.1660
@<TRIPOS>BOND
     1    28    29    1
     2    29    18    1
     3    18    19   ar
     4    19    20   ar
     5    20    12    1
     6    12    13    1
     7    13    14    1
     8    14    15    1
     9    15     5    1
    10     5     6   ar
    11     6     7   ar
    12     7     8   ar
    13     8     1    1
    14     1     2    2
    15     1     3   am
    16     3    30    1
    17    30    41    1
    18    41    42    1
    19    42    43   ar
    20    43    44   ar
    21    44    45   ar
    22    45    46   ar
    23    46    47   ar
    24    47    48   ar
    25    48    49   ar
    26    49    50   ar
    27    30    31    1
    28    31    32    2
    29    31    33   am
    30    33    35    1
    31    35    36   ar
    32    36    37   ar
    33    37    38   ar
    34    38    39   ar
    35    39    40   ar
    36     8     9   ar
    37     9    10    1
    38     9    11   ar
    39    15    16    1
    40    16    17    1
    41    20    21   ar
    42    21    22   ar
    43    22    23   ar
    44    23    24    1
    45    24    25    1
    46    24    26    1
    47    24    27    1
    48    23    18   ar
    49    17    12    1
    50    11     5   ar
    51    50    42   ar
    52    40    35   ar
    53    50    45   ar
    54     3     4    1
    55    44    51    1
    56    33    34    1
