@<TRIPOS>MOLECULE
*****
 47 52 0 0 0
SMALL
GASTEIGER

@<TRIPOS>ATOM
      1 C          59.3615   85.4277   11.1512 C.ar    1  UNL1        0.1318
      2 C          58.6740   86.5115   11.7223 C.ar    1  UNL1        0.0356
      3 C          59.3933   87.5960   12.2267 C.ar    1  UNL1        0.0191
      4 C          60.7957   87.6012   12.1680 C.ar    1  UNL1        0.0702
      5 C          61.4419   86.5179   11.5596 C.ar    1  UNL1        0.1149
      6 N          60.7212   85.4723   11.0759 N.ar    1  UNL1       -0.2279
      7 C          57.7823   81.7461    9.4194 C.3     1  UNL1        0.0472
      8 C          57.4232   83.1201    8.8003 C.3     1  UNL1        0.0252
      9 C          58.4276   84.2193    9.1638 C.3     1  UNL1        0.0923
     10 N          58.6569   84.2889   10.6153 N.pl3   1  UNL1       -0.2932
     11 C          58.1631   83.2141   11.4907 C.3     1  UNL1        0.0923
     12 C          58.4066   81.8518   10.8362 C.3     1  UNL1        0.0252
     13 C          58.6637   80.9068    8.4756 C.3     1  UNL1        0.2054
     14 O          59.9240   80.6168    9.0810 O.3     1  UNL1       -0.4754
     15 C          61.9945   81.2858   10.1617 C.ar    1  UNL1        0.0686
     16 C          63.0043   82.2394   10.3583 C.ar    1  UNL1        0.0061
     17 C          63.0434   83.4055    9.5937 C.ar    1  UNL1        0.0067
     18 C          62.0660   83.6492    8.6172 C.ar    1  UNL1        0.0785
     19 C          61.0456   82.7020    8.4244 C.ar    1  UNL1        0.0434
     20 C          60.9844   81.5304    9.2067 C.ar    1  UNL1        0.1414
     21 C          62.1063   84.8763    7.7840 C.2     1  UNL1        0.3381
     22 O          62.6079   84.8317    6.6291 O.2     1  UNL1       -0.2451
     23 O          61.5880   86.0891    8.2370 O.3     1  UNL1       -0.4771
     24 H          61.0800   86.1739    9.1077 H       1  UNL1        0.2954
     25 C          61.7991   80.0435   12.4380 C.3     1  UNL1        0.0774
     26 C          62.0298   80.0383   10.9584 C.2     1  UNL1        0.1764
     27 O          62.2307   78.9373   10.3785 O.2     1  UNL1       -0.2912
     28 N          61.5694   88.7110   12.6551 N.am    1  UNL1       -0.2766
     29 C          62.2972   89.6101   11.8053 C.2     1  UNL1        0.2839
     30 O          61.9336   89.7808   10.6106 O.2     1  UNL1       -0.2665
     31 H          61.5110   88.9424   13.6720 H       1  UNL1        0.1553
     32 C          63.4212   90.4088   12.3248 C.ar    1  UNL1        0.1946
     33 O          63.8288   91.5213   11.7393 O.2     1  UNL1       -0.4492
     34 C          64.8290   92.0010   12.4375 C.ar    1  UNL1        0.1452
     35 C          65.5540   93.1612   12.1889 C.ar    1  UNL1        0.0375
     36 C          66.5924   93.4934   13.0767 C.ar    1  UNL1        0.0031
     37 C          66.8891   92.6657   14.1936 C.ar    1  UNL1        0.0002
     38 C          66.1272   91.4921   14.4087 C.ar    1  UNL1        0.0028
     39 C          65.1051   91.1938   13.5072 C.ar    1  UNL1        0.0337
     40 C          64.2133   90.1416   13.4486 C.ar    1  UNL1        0.0202
     41 C          64.1355   88.9780   14.3904 C.3     1  UNL1        0.0345
     42 C          67.9872   93.0271   15.1255 C.ar    1  UNL1        0.0000
     43 C          68.2703   94.3768   15.4093 C.ar    1  UNL1        0.0000
     44 C          69.3043   94.7140   16.2881 C.ar    1  UNL1        0.0000
     45 C          70.0663   93.7113   16.8917 C.ar    1  UNL1        0.0000
     46 C          69.7956   92.3688   16.6183 C.ar    1  UNL1        0.0000
     47 C          68.7623   92.0257   15.7411 C.ar    1  UNL1        0.0000
@<TRIPOS>BOND
     1    25    26    1
     2    26    27    2
     3    26    15    1
     4    15    16   ar
     5    16    17   ar
     6    17    18   ar
     7    18    21    1
     8    21    22    2
     9    21    23    1
    10    18    19   ar
    11    19    20   ar
    12    20    14    1
    13    14    13    1
    14    13     7    1
    15     7     8    1
    16     8     9    1
    17     9    10    1
    18    10     1    1
    19     1     2   ar
    20     2     3   ar
    21     3     4   ar
    22     4    28    1
    23    28    29   am
    24    29    30    2
    25    29    32    1
    26    32    33   ar
    27    33    34   ar
    28    34    35   ar
    29    35    36   ar
    30    36    37   ar
    31    37    42    1
    32    42    43   ar
    33    43    44   ar
    34    44    45   ar
    35    45    46   ar
    36    46    47   ar
    37    37    38   ar
    38    38    39   ar
    39    39    40   ar
    40    40    41    1
    41     4     5   ar
    42     5     6   ar
    43    10    11    1
    44    11    12    1
    45    20    15   ar
    46    12     7    1
    47     6     1   ar
    48    40    32   ar
    49    39    34   ar
    50    47    42   ar
    51    23    24    1
    52    28    31    1
@<TRIPOS>MOLECULE
*****
 47 52 0 0 0
SMALL
GASTEIGER

@<TRIPOS>ATOM
      1 C          59.8623   85.5196    9.6291 C.ar    1  UNL1        0.1318
      2 C          59.1460   86.6678   10.0056 C.ar    1  UNL1        0.0356
      3 C          59.7954   87.6886   10.7016 C.ar    1  UNL1        0.0191
      4 C          61.1553   87.5660   11.0274 C.ar    1  UNL1        0.0702
      5 C          61.8422   86.4215   10.6037 C.ar    1  UNL1        0.1149
      6 N          61.1893   85.4399    9.9280 N.ar    1  UNL1       -0.2279
      7 C          57.9380   81.9678    7.9771 C.3     1  UNL1        0.0472
      8 C          59.3040   82.4470    7.4253 C.3     1  UNL1        0.0252
      9 C          60.0668   83.3382    8.4120 C.3     1  UNL1        0.0923
     10 N          59.2306   84.4430    8.9062 N.pl3   1  UNL1       -0.2932
     11 C          57.7812   84.4396    8.6523 C.3     1  UNL1        0.0923
     12 C          57.2179   83.0299    8.8499 C.3     1  UNL1        0.0252
     13 C          58.0601   80.6207    8.7138 C.3     1  UNL1        0.2054
     14 O          58.4052   80.8206   10.0849 O.3     1  UNL1       -0.4754
     15 C          60.1240   81.5056   11.6593 C.ar    1  UNL1        0.0686
     16 C          61.4394   81.4035   12.1359 C.ar    1  UNL1        0.0061
     17 C          62.3107   80.4411   11.6254 C.ar    1  UNL1        0.0067
     18 C          61.8878   79.5612   10.6179 C.ar    1  UNL1        0.0785
     19 C          60.5743   79.6672   10.1291 C.ar    1  UNL1        0.0434
     20 C          59.6923   80.6505   10.6228 C.ar    1  UNL1        0.1414
     21 C          62.7981   78.5207   10.0792 C.2     1  UNL1        0.3381
     22 O          62.9098   77.4173   10.6769 O.2     1  UNL1       -0.2451
     23 O          63.5327   78.7208    8.9107 O.3     1  UNL1       -0.4771
     24 H          63.4147   79.5375    8.3255 H       1  UNL1        0.2954
     25 C          59.7288   83.8231   12.7712 C.3     1  UNL1        0.0774
     26 C          59.2209   82.5051   12.2738 C.2     1  UNL1        0.1764
     27 O          57.9876   82.2583   12.3576 O.2     1  UNL1       -0.2912
     28 N          61.8639   88.6068   11.7219 N.am    1  UNL1       -0.2766
     29 C          62.4250   89.7586   11.0747 C.2     1  UNL1        0.2839
     30 O          61.9401   90.1678    9.9856 O.2     1  UNL1       -0.2665
     31 H          61.8768   88.5806   12.7660 H       1  UNL1        0.1553
     32 C          63.5126   90.5309   11.7007 C.ar    1  UNL1        0.1946
     33 O          63.9972   91.6357   11.1612 O.2     1  UNL1       -0.4492
     34 C          64.9379   92.0912   11.9520 C.ar    1  UNL1        0.1452
     35 C          65.7081   93.2358   11.7778 C.ar    1  UNL1        0.0375
     36 C          66.6659   93.5425   12.7602 C.ar    1  UNL1        0.0031
     37 C          66.8390   92.7053   13.8958 C.ar    1  UNL1        0.0002
     38 C          66.0350   91.5482   14.0333 C.ar    1  UNL1        0.0028
     39 C          65.0954   91.2751   13.0389 C.ar    1  UNL1        0.0337
     40 C          64.1903   90.2430   12.8922 C.ar    1  UNL1        0.0202
     41 C          63.9996   89.0788   13.8169 C.3     1  UNL1        0.0345
     42 C          67.8528   93.0398   14.9279 C.ar    1  UNL1        0.0000
     43 C          68.1471   94.3822   15.2339 C.ar    1  UNL1        0.0000
     44 C          69.1016   94.6941   16.2070 C.ar    1  UNL1        0.0000
     45 C          69.7723   93.6730   16.8838 C.ar    1  UNL1        0.0000
     46 C          69.4895   92.3374   16.5892 C.ar    1  UNL1        0.0000
     47 C          68.5355   92.0196   15.6178 C.ar    1  UNL1        0.0000
@<TRIPOS>BOND
     1    25    26    1
     2    26    27    2
     3    26    15    1
     4    15    16   ar
     5    16    17   ar
     6    17    18   ar
     7    18    21    1
     8    21    22    2
     9    21    23    1
    10    18    19   ar
    11    19    20   ar
    12    20    14    1
    13    14    13    1
    14    13     7    1
    15     7     8    1
    16     8     9    1
    17     9    10    1
    18    10     1    1
    19     1     2   ar
    20     2     3   ar
    21     3     4   ar
    22     4    28    1
    23    28    29   am
    24    29    30    2
    25    29    32    1
    26    32    33   ar
    27    33    34   ar
    28    34    35   ar
    29    35    36   ar
    30    36    37   ar
    31    37    42    1
    32    42    43   ar
    33    43    44   ar
    34    44    45   ar
    35    45    46   ar
    36    46    47   ar
    37    37    38   ar
    38    38    39   ar
    39    39    40   ar
    40    40    41    1
    41     4     5   ar
    42     5     6   ar
    43    10    11    1
    44    11    12    1
    45    20    15   ar
    46    12     7    1
    47     6     1   ar
    48    40    32   ar
    49    39    34   ar
    50    47    42   ar
    51    23    24    1
    52    28    31    1
@<TRIPOS>MOLECULE
*****
 47 52 0 0 0
SMALL
GASTEIGER

@<TRIPOS>ATOM
      1 C          59.6226   84.5918   11.9142 C.ar    1  UNL1        0.1318
      2 C          58.9133   85.8034   11.8678 C.ar    1  UNL1        0.0356
      3 C          59.5642   86.9964   12.1860 C.ar    1  UNL1        0.0191
      4 C          60.9185   86.9845   12.5550 C.ar    1  UNL1        0.0702
      5 C          61.5990   85.7605   12.5553 C.ar    1  UNL1        0.1149
      6 N          60.9448   84.6113   12.2427 N.ar    1  UNL1       -0.2279
      7 C          58.2173   80.5331   11.1399 C.3     1  UNL1        0.0472
      8 C          58.3242   81.5591    9.9840 C.3     1  UNL1        0.0252
      9 C          59.2892   82.7088   10.2939 C.3     1  UNL1        0.0923
     10 N          58.9891   83.3371   11.5898 N.pl3   1  UNL1       -0.2932
     11 C          58.0523   82.6901   12.5220 C.3     1  UNL1        0.0923
     12 C          58.2988   81.1795   12.5484 C.3     1  UNL1        0.0252
     13 C          59.2364   79.3888   10.9844 C.3     1  UNL1        0.2054
     14 O          60.1684   79.3876   12.0663 O.3     1  UNL1       -0.4754
     15 C          62.2066   80.3680   11.1793 C.ar    1  UNL1        0.0686
     16 C          63.3285   81.1922   11.3523 C.ar    1  UNL1        0.0061
     17 C          63.4785   81.9604   12.5069 C.ar    1  UNL1        0.0067
     18 C          62.5109   81.9159   13.5219 C.ar    1  UNL1        0.0785
     19 C          61.3908   81.0829   13.3582 C.ar    1  UNL1        0.0434
     20 C          61.2403   80.2859   12.2047 C.ar    1  UNL1        0.1414
     21 C          62.6485   82.7420   14.7467 C.2     1  UNL1        0.3381
     22 O          61.6909   83.4704   15.1205 O.2     1  UNL1       -0.2451
     23 O          63.8120   82.7278   15.5155 O.3     1  UNL1       -0.4771
     24 H          64.5778   82.0920   15.3341 H       1  UNL1        0.2954
     25 C          62.7952   78.3312    9.6733 C.3     1  UNL1        0.0774
     26 C          62.0650   79.6168    9.9113 C.2     1  UNL1        0.1764
     27 O          61.2901   80.0502    9.0165 O.2     1  UNL1       -0.2912
     28 N          61.6288   88.1954   12.8659 N.am    1  UNL1       -0.2766
     29 C          62.3457   88.9715   11.8943 C.2     1  UNL1        0.2839
     30 O          62.0145   88.9213   10.6792 O.2     1  UNL1       -0.2665
     31 H          61.5275   88.5918   13.8270 H       1  UNL1        0.1553
     32 C          63.4177   89.8981   12.2988 C.ar    1  UNL1        0.1946
     33 O          63.6991   90.9950   11.6176 O.2     1  UNL1       -0.4492
     34 C          64.6840   91.6071   12.2285 C.ar    1  UNL1        0.1452
     35 C          65.2924   92.8029   11.8632 C.ar    1  UNL1        0.0375
     36 C          66.3369   93.2856   12.6713 C.ar    1  UNL1        0.0031
     37 C          66.7554   92.5699   13.8259 C.ar    1  UNL1        0.0002
     38 C          66.1100   91.3553   14.1606 C.ar    1  UNL1        0.0028
     39 C          65.0782   90.9067   13.3358 C.ar    1  UNL1        0.0337
     40 C          64.2803   89.7816   13.3960 C.ar    1  UNL1        0.0202
     41 C          64.3477   88.6877   14.4187 C.3     1  UNL1        0.0345
     42 C          67.8588   93.0899   14.6727 C.ar    1  UNL1        0.0000
     43 C          67.6078   94.0660   15.6559 C.ar    1  UNL1        0.0000
     44 C          68.6486   94.5530   16.4526 C.ar    1  UNL1        0.0000
     45 C          69.9487   94.0736   16.2776 C.ar    1  UNL1        0.0000
     46 C          70.2107   93.1056   15.3056 C.ar    1  UNL1        0.0000
     47 C          69.1737   92.6143   14.5068 C.ar    1  UNL1        0.0000
@<TRIPOS>BOND
     1    25    26    1
     2    26    27    2
     3    26    15    1
     4    15    16   ar
     5    16    17   ar
     6    17    18   ar
     7    18    21    1
     8    21    22    2
     9    21    23    1
    10    18    19   ar
    11    19    20   ar
    12    20    14    1
    13    14    13    1
    14    13     7    1
    15     7     8    1
    16     8     9    1
    17     9    10    1
    18    10     1    1
    19     1     2   ar
    20     2     3   ar
    21     3     4   ar
    22     4    28    1
    23    28    29   am
    24    29    30    2
    25    29    32    1
    26    32    33   ar
    27    33    34   ar
    28    34    35   ar
    29    35    36   ar
    30    36    37   ar
    31    37    42    1
    32    42    43   ar
    33    43    44   ar
    34    44    45   ar
    35    45    46   ar
    36    46    47   ar
    37    37    38   ar
    38    38    39   ar
    39    39    40   ar
    40    40    41    1
    41     4     5   ar
    42     5     6   ar
    43    10    11    1
    44    11    12    1
    45    20    15   ar
    46    12     7    1
    47     6     1   ar
    48    40    32   ar
    49    39    34   ar
    50    47    42   ar
    51    23    24    1
    52    28    31    1
@<TRIPOS>MOLECULE
*****
 47 52 0 0 0
SMALL
GASTEIGER

@<TRIPOS>ATOM
      1 C          59.6630   83.7299   12.8589 C.ar    1  UNL1        0.1318
      2 C          58.8975   84.9059   12.7933 C.ar    1  UNL1        0.0356
      3 C          59.5033   86.1381   13.0436 C.ar    1  UNL1        0.0191
      4 C          60.8685   86.2011   13.3639 C.ar    1  UNL1        0.0702
      5 C          61.6043   85.0096   13.3850 C.ar    1  UNL1        0.1149
      6 N          60.9933   83.8211   13.1387 N.ar    1  UNL1       -0.2279
      7 C          58.4560   79.6373   11.9416 C.3     1  UNL1        0.0472
      8 C          57.8321   80.8291   11.1731 C.3     1  UNL1        0.0252
      9 C          58.6989   82.0921   11.2249 C.3     1  UNL1        0.0923
     10 N          59.0772   82.4366   12.6041 N.pl3   1  UNL1       -0.2932
     11 C          58.8480   81.4732   13.6926 C.3     1  UNL1        0.0923
     12 C          59.2134   80.0611   13.2281 C.3     1  UNL1        0.0252
     13 C          59.3392   78.7674   11.0275 C.3     1  UNL1        0.2054
     14 O          59.9016   79.5475    9.9720 O.3     1  UNL1       -0.4754
     15 C          60.9331   81.6074    9.2005 C.ar    1  UNL1        0.0686
     16 C          61.9478   82.5694    9.3135 C.ar    1  UNL1        0.0061
     17 C          62.8589   82.5253   10.3688 C.ar    1  UNL1        0.0067
     18 C          62.7810   81.5103   11.3342 C.ar    1  UNL1        0.0785
     19 C          61.7731   80.5375   11.2189 C.ar    1  UNL1        0.0434
     20 C          60.8606   80.5603   10.1441 C.ar    1  UNL1        0.1414
     21 C          63.7318   81.4622   12.4723 C.2     1  UNL1        0.3381
     22 O          63.4748   80.7394   13.4716 O.2     1  UNL1       -0.2451
     23 O          64.9222   82.1886   12.4660 O.3     1  UNL1       -0.4771
     24 H          65.2412   82.7060   11.6573 H       1  UNL1        0.2954
     25 C          59.1726   82.9882    7.8752 C.3     1  UNL1        0.0774
     26 C          59.9560   81.7311    8.0951 C.2     1  UNL1        0.1764
     27 O          59.7954   80.7677    7.2983 O.2     1  UNL1       -0.2912
     28 N          61.5325   87.4536   13.6041 N.am    1  UNL1       -0.2766
     29 C          62.0644   88.2870   12.5634 C.2     1  UNL1        0.2839
     30 O          61.5816   88.2279   11.4006 O.2     1  UNL1       -0.2665
     31 H          61.5317   87.8317   14.5778 H       1  UNL1        0.1553
     32 C          63.1170   89.2791   12.8440 C.ar    1  UNL1        0.1946
     33 O          63.2461   90.3914   12.1421 O.2     1  UNL1       -0.4492
     34 C          64.2567   91.0644   12.6358 C.ar    1  UNL1        0.1452
     35 C          64.7413   92.2960   12.2093 C.ar    1  UNL1        0.0375
     36 C          65.8426   92.8436   12.8907 C.ar    1  UNL1        0.0031
     37 C          66.4398   92.1559   13.9820 C.ar    1  UNL1        0.0002
     38 C          65.9160   90.9032   14.3824 C.ar    1  UNL1        0.0028
     39 C          64.8232   90.3904   13.6831 C.ar    1  UNL1        0.0337
     40 C          64.1100   89.2174   13.8298 C.ar    1  UNL1        0.0202
     41 C          64.3671   88.1302   14.8292 C.3     1  UNL1        0.0345
     42 C          67.6017   92.7444   14.6951 C.ar    1  UNL1        0.0000
     43 C          67.4093   93.7017   15.7095 C.ar    1  UNL1        0.0000
     44 C          68.5053   94.2534   16.3800 C.ar    1  UNL1        0.0000
     45 C          69.8026   93.8580   16.0467 C.ar    1  UNL1        0.0000
     46 C          70.0068   92.9094   15.0422 C.ar    1  UNL1        0.0000
     47 C          68.9146   92.3537   14.3690 C.ar    1  UNL1        0.0000
@<TRIPOS>BOND
     1    25    26    1
     2    26    27    2
     3    26    15    1
     4    15    16   ar
     5    16    17   ar
     6    17    18   ar
     7    18    21    1
     8    21    22    2
     9    21    23    1
    10    18    19   ar
    11    19    20   ar
    12    20    14    1
    13    14    13    1
    14    13     7    1
    15     7     8    1
    16     8     9    1
    17     9    10    1
    18    10     1    1
    19     1     2   ar
    20     2     3   ar
    21     3     4   ar
    22     4    28    1
    23    28    29   am
    24    29    30    2
    25    29    32    1
    26    32    33   ar
    27    33    34   ar
    28    34    35   ar
    29    35    36   ar
    30    36    37   ar
    31    37    42    1
    32    42    43   ar
    33    43    44   ar
    34    44    45   ar
    35    45    46   ar
    36    46    47   ar
    37    37    38   ar
    38    38    39   ar
    39    39    40   ar
    40    40    41    1
    41     4     5   ar
    42     5     6   ar
    43    10    11    1
    44    11    12    1
    45    20    15   ar
    46    12     7    1
    47     6     1   ar
    48    40    32   ar
    49    39    34   ar
    50    47    42   ar
    51    23    24    1
    52    28    31    1
