@<TRIPOS>MOLECULE
*****
 52 58 0 0 0
SMALL
GASTEIGER

@<TRIPOS>ATOM
      1 C          -5.9509  -10.3142   30.0938 C.3     1  UNL1        0.1239
      2 C          -6.5574   -9.7650   31.3862 C.3     1  UNL1        0.0374
      3 C          -6.2262   -8.2729   31.3900 C.3     1  UNL1        0.0739
      4 N          -5.6168   -7.9503   30.0923 N.3     1  UNL1       -0.2638
      5 C          -5.9435   -9.0707   29.2053 C.3     1  UNL1        0.0913
      6 C          -6.7857  -11.4521   29.5407 C.2     1  UNL1        0.2359
      7 O          -7.9253  -11.6919   30.0272 O.2     1  UNL1       -0.2739
      8 N          -6.3206  -12.1911   28.3989 N.am    1  UNL1       -0.2832
      9 H          -5.5630  -11.7669   27.8172 H       1  UNL1        0.1549
     10 C          -6.9002  -13.4293   27.9556 C.ar    1  UNL1        0.0505
     11 C          -8.0215  -13.9557   28.6466 C.ar    1  UNL1        0.0162
     12 C          -8.6407  -15.1435   28.2175 C.ar    1  UNL1        0.0198
     13 C          -8.1123  -15.7800   27.0989 C.ar    1  UNL1        0.0754
     14 N          -8.5648  -16.8832   26.4833 N.ar    1  UNL1       -0.2757
     15 N          -7.7999  -17.1182   25.4235 N.ar    1  UNL1       -0.1726
     16 C          -6.8417  -16.1601   25.3657 C.ar    1  UNL1        0.1036
     17 C          -7.0303  -15.2872   26.4266 C.ar    1  UNL1        0.0376
     18 C          -6.4122  -14.0949   26.8052 C.ar    1  UNL1        0.0177
     19 H          -9.3865  -17.4641   26.7616 H       1  UNL1        0.1889
     20 C          -5.8049  -16.1053   24.3149 C.ar    1  UNL1        0.0388
     21 C          -5.9171  -15.1824   23.2653 C.ar    1  UNL1        0.0079
     22 C          -4.9414  -15.1324   22.2682 C.ar    1  UNL1        0.0578
     23 C          -3.8625  -16.0175   22.3170 C.ar    1  UNL1        0.2247
     24 N          -3.7823  -16.9268   23.3279 N.ar    1  UNL1       -0.2101
     25 C          -4.7169  -16.9927   24.3127 C.ar    1  UNL1        0.1036
     26 O          -2.8838  -15.9627   21.3177 O.3     1  UNL1       -0.4640
     27 C          -2.3826  -17.1124   20.6345 C.3     1  UNL1        0.1678
     28 C          -0.8869  -16.9482   20.3486 C.3     1  UNL1        0.0473
     29 C          -3.1587  -17.2899   19.3311 C.3     1  UNL1        0.0473
     30 C          -4.4743  -11.6379   32.0729 C.3     1  UNL1        0.0696
     31 S          -4.2199  -10.8657   30.4369 S.3     1  UNL1       -0.1308
     32 C          -6.0731   -6.6503   29.5652 C.3     1  UNL1        0.1587
     33 C          -7.1594   -6.0781   30.4357 C.2     1  UNL1        0.2423
     34 O          -6.8946   -5.0774   31.1555 O.2     1  UNL1       -0.2733
     35 N          -8.4778   -6.6615   30.4774 N.am    1  UNL1       -0.2740
     36 C          -9.1004   -7.2826   29.3041 C.3     1  UNL1        0.1196
     37 C          -9.7839   -8.5694   29.6782 C.2     1  UNL1       -0.0089
     38 C         -10.1029   -8.8916   30.9487 C.2     1  UNL1       -0.0231
     39 C          -9.6560   -8.0268   32.1150 C.3     1  UNL1        0.0476
     40 C          -9.2860   -6.6032   31.6944 C.3     1  UNL1        0.0984
     41 C         -10.7623  -10.1930   31.2333 C.ar    1  UNL1       -0.0042
     42 C         -10.6531  -11.2638   30.3279 C.ar    1  UNL1       -0.0002
     43 C         -11.2490  -12.4960   30.6079 C.ar    1  UNL1        0.0031
     44 C         -11.9727  -12.6831   31.7964 C.ar    1  UNL1        0.0375
     45 C         -12.0913  -11.6124   32.6976 C.ar    1  UNL1        0.0031
     46 C         -11.4923  -10.3805   32.4191 C.ar    1  UNL1       -0.0002
     47 C         -12.6023  -13.9876   32.0939 C.ar    1  UNL1        0.1832
     48 N         -12.0320  -15.1816   31.8071 N.ar    1  UNL1       -0.2034
     49 C         -12.9577  -16.0575   32.2433 C.ar    1  UNL1        0.1972
     50 N         -14.0155  -15.4211   32.7703 N.ar    1  UNL1       -0.2281
     51 C         -15.2385  -16.0320   33.2706 C.3     1  UNL1        0.1556
     52 N         -13.8147  -14.1208   32.6712 N.ar    1  UNL1       -0.1484
@<TRIPOS>BOND
     1    30    31    1
     2     1    31    1
     3     1     6    1
     4     6     7    2
     5     6     8   am
     6     8    10    1
     7    10    11   ar
     8    11    12   ar
     9    12    13   ar
    10    13    14   ar
    11    14    15   ar
    12    15    16   ar
    13    16    20    1
    14    20    21   ar
    15    21    22   ar
    16    22    23   ar
    17    23    26    1
    18    26    27    1
    19    27    28    1
    20    27    29    1
    21    23    24   ar
    22    24    25   ar
    23    16    17   ar
    24    17    18   ar
    25     1     2    1
    26     2     3    1
    27     3     4    1
    28     4    32    1
    29    32    33    1
    30    33    34    2
    31    33    35   am
    32    35    36    1
    33    36    37    1
    34    37    38    2
    35    38    41    1
    36    41    42   ar
    37    42    43   ar
    38    43    44   ar
    39    44    47    1
    40    47    48   ar
    41    48    49   ar
    42    49    50   ar
    43    50    51    1
    44    50    52   ar
    45    44    45   ar
    46    45    46   ar
    47    38    39    1
    48    39    40    1
    49     4     5    1
    50     5     1    1
    51    18    10   ar
    52    40    35    1
    53    17    13   ar
    54    46    41   ar
    55    25    20   ar
    56    52    47   ar
    57     8     9    1
    58    14    19    1
@<TRIPOS>MOLECULE
*****
 52 58 0 0 0
SMALL
GASTEIGER

@<TRIPOS>ATOM
      1 C          -6.3667   -9.8220   30.5742 C.3     1  UNL1        0.1239
      2 C          -6.9681   -9.1258   31.7962 C.3     1  UNL1        0.0374
      3 C          -6.6706   -7.6387   31.6058 C.3     1  UNL1        0.0739
      4 N          -6.0859   -7.4709   30.2681 N.3     1  UNL1       -0.2638
      5 C          -6.3991   -8.7014   29.5354 C.3     1  UNL1        0.0913
      6 C          -7.1828  -11.0378   30.1830 C.2     1  UNL1        0.2359
      7 O          -8.1005  -11.4522   30.9441 O.2     1  UNL1       -0.2739
      8 N          -6.9768  -11.6557   28.9017 N.am    1  UNL1       -0.2832
      9 H          -6.4716  -11.1068   28.1697 H       1  UNL1        0.1549
     10 C          -7.5071  -12.9407   28.5372 C.ar    1  UNL1        0.0505
     11 C          -8.5818  -13.4842   29.2864 C.ar    1  UNL1        0.0162
     12 C          -9.1538  -14.7203   28.9349 C.ar    1  UNL1        0.0198
     13 C          -8.6259  -15.3866   27.8336 C.ar    1  UNL1        0.0754
     14 N          -9.0406  -16.5397   27.2867 N.ar    1  UNL1       -0.2757
     15 N          -8.2946  -16.7913   26.2174 N.ar    1  UNL1       -0.1726
     16 C          -7.3863  -15.7929   26.0839 C.ar    1  UNL1        0.1036
     17 C          -7.5882  -14.8776   27.1058 C.ar    1  UNL1        0.0376
     18 C          -7.0190  -13.6397   27.4068 C.ar    1  UNL1        0.0177
     19 H          -9.8249  -17.1442   27.6177 H       1  UNL1        0.1889
     20 C          -6.3827  -15.7421   25.0011 C.ar    1  UNL1        0.0388
     21 C          -5.1598  -16.4127   25.1453 C.ar    1  UNL1        0.0079
     22 C          -4.2076  -16.3617   24.1258 C.ar    1  UNL1        0.0578
     23 C          -4.4771  -15.6266   22.9696 C.ar    1  UNL1        0.2247
     24 N          -5.6583  -14.9579   22.8563 N.ar    1  UNL1       -0.2101
     25 C          -6.6031  -14.9954   23.8329 C.ar    1  UNL1        0.1036
     26 O          -3.5218  -15.5802   21.9474 O.3     1  UNL1       -0.4640
     27 C          -3.0520  -16.7334   21.2480 C.3     1  UNL1        0.1678
     28 C          -1.5309  -16.6685   21.0816 C.3     1  UNL1        0.0473
     29 C          -3.7359  -16.7965   19.8838 C.3     1  UNL1        0.0473
     30 C          -3.9076  -10.1722   29.2780 C.3     1  UNL1        0.0696
     31 S          -4.6192  -10.2895   30.9565 S.3     1  UNL1       -0.1308
     32 C          -6.5784   -6.2581   29.5881 C.3     1  UNL1        0.1587
     33 C          -7.7703   -5.6923   30.3123 C.2     1  UNL1        0.2423
     34 O          -7.6298   -4.6246   30.9681 O.2     1  UNL1       -0.2733
     35 N          -9.0514   -6.3545   30.2880 N.am    1  UNL1       -0.2740
     36 C          -9.5282   -7.1021   29.1202 C.3     1  UNL1        0.1196
     37 C         -10.1679   -8.3980   29.5380 C.2     1  UNL1       -0.0089
     38 C         -10.5818   -8.6421   30.7984 C.2     1  UNL1       -0.0231
     39 C         -10.2931   -7.6640   31.9243 C.3     1  UNL1        0.0476
     40 C          -9.9688   -6.2557   31.4222 C.3     1  UNL1        0.0984
     41 C         -11.1886   -9.9578   31.1307 C.ar    1  UNL1       -0.0042
     42 C         -11.0812  -11.0409   30.2399 C.ar    1  UNL1       -0.0002
     43 C         -11.6269  -12.2855   30.5638 C.ar    1  UNL1        0.0031
     44 C         -12.2977  -12.4733   31.7829 C.ar    1  UNL1        0.0375
     45 C         -12.4146  -11.3906   32.6699 C.ar    1  UNL1        0.0031
     46 C         -11.8657  -10.1462   32.3474 C.ar    1  UNL1       -0.0002
     47 C         -12.8740  -13.7909   32.1269 C.ar    1  UNL1        0.1832
     48 N         -14.0028  -13.9513   32.8571 N.ar    1  UNL1       -0.2034
     49 C         -14.1236  -15.2917   32.9136 C.ar    1  UNL1        0.1972
     50 N         -13.1286  -15.8958   32.2453 N.ar    1  UNL1       -0.2281
     51 C         -12.8862  -17.3282   32.1523 C.3     1  UNL1        0.1556
     52 N         -12.3273  -14.9679   31.7574 N.ar    1  UNL1       -0.1484
@<TRIPOS>BOND
     1    30    31    1
     2     1    31    1
     3     1     6    1
     4     6     7    2
     5     6     8   am
     6     8    10    1
     7    10    11   ar
     8    11    12   ar
     9    12    13   ar
    10    13    14   ar
    11    14    15   ar
    12    15    16   ar
    13    16    20    1
    14    20    21   ar
    15    21    22   ar
    16    22    23   ar
    17    23    26    1
    18    26    27    1
    19    27    28    1
    20    27    29    1
    21    23    24   ar
    22    24    25   ar
    23    16    17   ar
    24    17    18   ar
    25     1     2    1
    26     2     3    1
    27     3     4    1
    28     4    32    1
    29    32    33    1
    30    33    34    2
    31    33    35   am
    32    35    36    1
    33    36    37    1
    34    37    38    2
    35    38    41    1
    36    41    42   ar
    37    42    43   ar
    38    43    44   ar
    39    44    47    1
    40    47    48   ar
    41    48    49   ar
    42    49    50   ar
    43    50    51    1
    44    50    52   ar
    45    44    45   ar
    46    45    46   ar
    47    38    39    1
    48    39    40    1
    49     4     5    1
    50     5     1    1
    51    18    10   ar
    52    40    35    1
    53    17    13   ar
    54    46    41   ar
    55    25    20   ar
    56    52    47   ar
    57     8     9    1
    58    14    19    1
