@<TRIPOS>MOLECULE
*****
 48 53 0 0 0
SMALL
GASTEIGER

@<TRIPOS>ATOM
      1 C          59.9044   90.1063    6.5949 C.2     1  UNL1        0.2839
      2 O          58.7081   89.7146    6.5339 O.2     1  UNL1       -0.2665
      3 N          60.6118   90.0698    7.8432 N.am    1  UNL1       -0.2766
      4 H          61.3634   90.7805    7.9953 H       1  UNL1        0.1553
      5 C          58.5168   92.1129    4.4923 C.3     1  UNL1        0.0345
      6 C          59.9031   91.5379    4.4475 C.ar    1  UNL1        0.0204
      7 C          60.5141   90.7107    5.3989 C.ar    1  UNL1        0.1946
      8 O          61.7777   90.5141    5.0837 O.2     1  UNL1       -0.4492
      9 C          62.0216   91.1547    3.9689 C.ar    1  UNL1        0.1454
     10 C          63.2248   91.1776    3.2771 C.ar    1  UNL1        0.0375
     11 C          63.2848   91.9000    2.0790 C.ar    1  UNL1        0.0033
     12 C          62.1534   92.5997    1.5929 C.ar    1  UNL1        0.0064
     13 C          60.9309   92.5699    2.3261 C.ar    1  UNL1        0.0782
     14 C          60.9054   91.8215    3.5222 C.ar    1  UNL1        0.0399
     15 C          62.2873   93.3636    0.3295 C.ar    1  UNL1        0.0002
     16 C          61.3024   93.2573   -0.6672 C.ar    1  UNL1        0.0000
     17 C          61.4294   93.9712   -1.8629 C.ar    1  UNL1        0.0000
     18 C          62.5421   94.7893   -2.0755 C.ar    1  UNL1        0.0000
     19 C          63.5319   94.8921   -1.0944 C.ar    1  UNL1        0.0000
     20 C          63.4089   94.1801    0.1027 C.ar    1  UNL1        0.0000
     21 C          59.7242   93.2391    1.8035 C.2     1  UNL1        0.3381
     22 O          59.6157   94.4908    1.8753 O.2     1  UNL1       -0.2451
     23 O          58.7250   92.5014    1.1758 O.3     1  UNL1       -0.4771
     24 H          58.7906   91.4936    1.0955 H       1  UNL1        0.2954
     25 C          60.2661   89.2023    8.9366 C.ar    1  UNL1        0.0702
     26 C          60.0421   87.8292    8.7483 C.ar    1  UNL1        0.0191
     27 C          59.7332   87.0138    9.8382 C.ar    1  UNL1        0.0356
     28 C          59.6550   87.5738   11.1220 C.ar    1  UNL1        0.1318
     29 N          59.9064   88.9026   11.2846 N.ar    1  UNL1       -0.2279
     30 C          60.2099   89.7156   10.2387 C.ar    1  UNL1        0.1149
     31 N          59.3421   86.7575   12.2671 N.pl3   1  UNL1       -0.2932
     32 C          57.9509   86.5644   12.6871 C.3     1  UNL1        0.0923
     33 C          57.5186   85.1274   12.3830 C.3     1  UNL1        0.0252
     34 C          58.4959   84.1140   13.0190 C.3     1  UNL1        0.0472
     35 C          59.9439   84.4023   12.5628 C.3     1  UNL1        0.0252
     36 C          60.3398   85.8543   12.8518 C.3     1  UNL1        0.0923
     37 C          58.1196   82.6574   12.6827 C.3     1  UNL1        0.2054
     38 O          57.8578   82.4946   11.2861 O.3     1  UNL1       -0.4755
     39 C          58.7260   81.9474   10.3249 C.ar    1  UNL1        0.1388
     40 C          58.3759   82.0901    8.9778 C.ar    1  UNL1        0.0369
     41 C          59.1946   81.5754    7.9718 C.ar    1  UNL1        0.0033
     42 C          60.3761   80.9093    8.3009 C.ar    1  UNL1        0.0066
     43 C          60.7496   80.7484    9.6462 C.ar    1  UNL1        0.0785
     44 C          59.9165   81.2662   10.6550 C.ar    1  UNL1        0.0433
     45 C          62.0038   80.0460    9.9997 C.2     1  UNL1        0.3381
     46 O          62.6745   80.4038   11.0057 O.2     1  UNL1       -0.2451
     47 O          62.4553   78.9807    9.2245 O.3     1  UNL1       -0.4771
     48 H          63.3116   78.4928    9.4586 H       1  UNL1        0.2954
@<TRIPOS>BOND
     1     5     6    1
     2     6     7   ar
     3     7     1    1
     4     1     2    2
     5     1     3   am
     6     3    25    1
     7    25    26   ar
     8    26    27   ar
     9    27    28   ar
    10    28    31    1
    11    31    32    1
    12    32    33    1
    13    33    34    1
    14    34    37    1
    15    37    38    1
    16    38    39    1
    17    39    40   ar
    18    40    41   ar
    19    41    42   ar
    20    42    43   ar
    21    43    45    1
    22    45    46    2
    23    45    47    1
    24    43    44   ar
    25    34    35    1
    26    35    36    1
    27    28    29   ar
    28    29    30   ar
    29     7     8   ar
    30     8     9   ar
    31     9    10   ar
    32    10    11   ar
    33    11    12   ar
    34    12    15    1
    35    15    16   ar
    36    16    17   ar
    37    17    18   ar
    38    18    19   ar
    39    19    20   ar
    40    12    13   ar
    41    13    21    1
    42    21    22    2
    43    21    23    1
    44    13    14   ar
    45    14     6   ar
    46    30    25   ar
    47    14     9   ar
    48    36    31    1
    49    20    15   ar
    50    44    39   ar
    51     3     4    1
    52    47    48    1
    53    23    24    1
@<TRIPOS>MOLECULE
*****
 48 53 0 0 0
SMALL
GASTEIGER

@<TRIPOS>ATOM
      1 C          61.2160   88.9686   13.3855 C.2     1  UNL1        0.2839
      2 O          60.5933   89.4700   12.4114 O.2     1  UNL1       -0.2665
      3 N          60.7755   87.7300   13.9618 N.am    1  UNL1       -0.2766
      4 H          60.9656   87.5735   14.9779 H       1  UNL1        0.1553
      5 C          63.7193   90.3231   11.8787 C.3     1  UNL1        0.0345
      6 C          63.4402   90.2773   13.3532 C.ar    1  UNL1        0.0204
      7 C          62.3179   89.7338   13.9919 C.ar    1  UNL1        0.1946
      8 O          62.3604   89.9943   15.2823 O.2     1  UNL1       -0.4492
      9 C          63.4580   90.6647   15.5243 C.ar    1  UNL1        0.1454
     10 C          63.8996   91.1037   16.7649 C.ar    1  UNL1        0.0375
     11 C          65.1219   91.7840   16.8286 C.ar    1  UNL1        0.0033
     12 C          65.8806   92.0299   15.6582 C.ar    1  UNL1        0.0064
     13 C          65.4017   91.5780   14.3935 C.ar    1  UNL1        0.0782
     14 C          64.1723   90.8856   14.3706 C.ar    1  UNL1        0.0399
     15 C          67.1558   92.7744   15.7892 C.ar    1  UNL1        0.0002
     16 C          67.2440   94.1060   15.3489 C.ar    1  UNL1        0.0000
     17 C          68.4474   94.8086   15.4647 C.ar    1  UNL1        0.0000
     18 C          69.5720   94.1863   16.0130 C.ar    1  UNL1        0.0000
     19 C          69.4963   92.8588   16.4432 C.ar    1  UNL1        0.0000
     20 C          68.2950   92.1526   16.3293 C.ar    1  UNL1        0.0000
     21 C          66.2081   91.7681   13.1726 C.2     1  UNL1        0.3381
     22 O          65.7476   92.4345   12.2096 O.2     1  UNL1       -0.2451
     23 O          67.5032   91.2642   13.0976 O.3     1  UNL1       -0.4771
     24 H          67.9028   90.7322   13.8615 H       1  UNL1        0.2954
     25 C          59.9843   86.7552   13.2609 C.ar    1  UNL1        0.0702
     26 C          58.5816   86.7600   13.3215 C.ar    1  UNL1        0.0191
     27 C          57.8463   85.8129   12.6070 C.ar    1  UNL1        0.0356
     28 C          58.5172   84.8621   11.8237 C.ar    1  UNL1        0.1318
     29 N          59.8773   84.8960   11.7561 N.ar    1  UNL1       -0.2279
     30 C          60.6139   85.8091   12.4420 C.ar    1  UNL1        0.1149
     31 N          57.7861   83.8744   11.0719 N.pl3   1  UNL1       -0.2932
     32 C          57.0207   84.2592    9.8823 C.3     1  UNL1        0.0923
     33 C          57.7187   83.7248    8.6288 C.3     1  UNL1        0.0252
     34 C          57.9538   82.2019    8.7386 C.3     1  UNL1        0.0472
     35 C          58.7302   81.8682   10.0324 C.3     1  UNL1        0.0252
     36 C          58.0256   82.4400   11.2674 C.3     1  UNL1        0.0923
     37 C          58.7069   81.6426    7.5153 C.3     1  UNL1        0.2054
     38 O          59.4871   82.6554    6.8742 O.3     1  UNL1       -0.4755
     39 C          60.6104   83.3145    7.4041 C.ar    1  UNL1        0.1388
     40 C          61.1240   84.4006    6.6870 C.ar    1  UNL1        0.0369
     41 C          62.2340   85.1030    7.1581 C.ar    1  UNL1        0.0033
     42 C          62.8463   84.7269    8.3545 C.ar    1  UNL1        0.0066
     43 C          62.3533   83.6372    9.0928 C.ar    1  UNL1        0.0785
     44 C          61.2365   82.9312    8.6088 C.ar    1  UNL1        0.0433
     45 C          62.9972   83.2373   10.3643 C.2     1  UNL1        0.3381
     46 O          64.2257   82.9550   10.3969 O.2     1  UNL1       -0.2451
     47 O          62.2520   83.1702   11.5388 O.3     1  UNL1       -0.4771
     48 H          62.6834   82.8987   12.4142 H       1  UNL1        0.2954
@<TRIPOS>BOND
     1     5     6    1
     2     6     7   ar
     3     7     1    1
     4     1     2    2
     5     1     3   am
     6     3    25    1
     7    25    26   ar
     8    26    27   ar
     9    27    28   ar
    10    28    31    1
    11    31    32    1
    12    32    33    1
    13    33    34    1
    14    34    37    1
    15    37    38    1
    16    38    39    1
    17    39    40   ar
    18    40    41   ar
    19    41    42   ar
    20    42    43   ar
    21    43    45    1
    22    45    46    2
    23    45    47    1
    24    43    44   ar
    25    34    35    1
    26    35    36    1
    27    28    29   ar
    28    29    30   ar
    29     7     8   ar
    30     8     9   ar
    31     9    10   ar
    32    10    11   ar
    33    11    12   ar
    34    12    15    1
    35    15    16   ar
    36    16    17   ar
    37    17    18   ar
    38    18    19   ar
    39    19    20   ar
    40    12    13   ar
    41    13    21    1
    42    21    22    2
    43    21    23    1
    44    13    14   ar
    45    14     6   ar
    46    30    25   ar
    47    14     9   ar
    48    36    31    1
    49    20    15   ar
    50    44    39   ar
    51     3     4    1
    52    47    48    1
    53    23    24    1
@<TRIPOS>MOLECULE
*****
 48 53 0 0 0
SMALL
GASTEIGER

@<TRIPOS>ATOM
      1 C          59.9866   90.0876    6.6882 C.2     1  UNL1        0.2839
      2 O          58.9618   89.3629    6.5747 O.2     1  UNL1       -0.2665
      3 N          60.5008   90.4098    7.9890 N.am    1  UNL1       -0.2766
      4 H          61.0026   91.3202    8.0999 H       1  UNL1        0.1553
      5 C          58.5269   92.0442    4.5875 C.3     1  UNL1        0.0345
      6 C          59.9235   91.4963    4.5267 C.ar    1  UNL1        0.0204
      7 C          60.5655   90.6913    5.4767 C.ar    1  UNL1        0.1946
      8 O          61.8277   90.5163    5.1437 O.2     1  UNL1       -0.4492
      9 C          62.0415   91.1499    4.0187 C.ar    1  UNL1        0.1454
     10 C          63.2331   91.1892    3.3079 C.ar    1  UNL1        0.0375
     11 C          63.2601   91.9000    2.1017 C.ar    1  UNL1        0.0033
     12 C          62.1077   92.5722    1.6263 C.ar    1  UNL1        0.0064
     13 C          60.8975   92.5260    2.3790 C.ar    1  UNL1        0.0782
     14 C          60.9054   91.7898    3.5829 C.ar    1  UNL1        0.0399
     15 C          62.2067   93.3253    0.3533 C.ar    1  UNL1        0.0002
     16 C          61.2197   93.1730   -0.6353 C.ar    1  UNL1        0.0000
     17 C          61.3140   93.8767   -1.8400 C.ar    1  UNL1        0.0000
     18 C          62.3961   94.7304   -2.0698 C.ar    1  UNL1        0.0000
     19 C          63.3880   94.8792   -1.0967 C.ar    1  UNL1        0.0000
     20 C          63.2976   94.1776    0.1093 C.ar    1  UNL1        0.0000
     21 C          59.6698   93.1658    1.8686 C.2     1  UNL1        0.3381
     22 O          59.5730   94.4203    1.8500 O.2     1  UNL1       -0.2451
     23 O          58.6350   92.3927    1.3507 O.3     1  UNL1       -0.4771
     24 H          58.6901   91.3811    1.3445 H       1  UNL1        0.2954
     25 C          60.2589   89.6199    9.1659 C.ar    1  UNL1        0.0702
     26 C          60.2824   88.2165    9.1319 C.ar    1  UNL1        0.0191
     27 C          60.0679   87.4838   10.3003 C.ar    1  UNL1        0.0356
     28 C          59.8360   88.1582   11.5082 C.ar    1  UNL1        0.1318
     29 N          59.8481   89.5202   11.5226 N.ar    1  UNL1       -0.2279
     30 C          60.0556   90.2545   10.3980 C.ar    1  UNL1        0.1149
     31 N          59.6152   87.4299   12.7314 N.pl3   1  UNL1       -0.2932
     32 C          58.9779   86.1099   12.7084 C.3     1  UNL1        0.0923
     33 C          60.0155   85.0340   13.0398 C.3     1  UNL1        0.0252
     34 C          60.7240   85.3479   14.3763 C.3     1  UNL1        0.0472
     35 C          61.3368   86.7661   14.3414 C.3     1  UNL1        0.0252
     36 C          60.2837   87.8186   13.9784 C.3     1  UNL1        0.0923
     37 C          61.8159   84.3122   14.7100 C.3     1  UNL1        0.2054
     38 O          63.0242   84.5771   13.9922 O.3     1  UNL1       -0.4755
     39 C          63.3752   84.0835   12.7233 C.ar    1  UNL1        0.1388
     40 C          64.2411   82.9857   12.6705 C.ar    1  UNL1        0.0369
     41 C          64.6265   82.4421   11.4445 C.ar    1  UNL1        0.0033
     42 C          64.1505   82.9911   10.2529 C.ar    1  UNL1        0.0066
     43 C          63.2828   84.0966   10.2770 C.ar    1  UNL1        0.0785
     44 C          62.9024   84.6418   11.5171 C.ar    1  UNL1        0.0433
     45 C          62.7724   84.6797    9.0157 C.2     1  UNL1        0.3381
     46 O          63.4980   85.4478    8.3276 O.2     1  UNL1       -0.2451
     47 O          61.4847   84.3842    8.5752 O.3     1  UNL1       -0.4771
     48 H          61.1265   84.7772    7.7130 H       1  UNL1        0.2954
@<TRIPOS>BOND
     1     5     6    1
     2     6     7   ar
     3     7     1    1
     4     1     2    2
     5     1     3   am
     6     3    25    1
     7    25    26   ar
     8    26    27   ar
     9    27    28   ar
    10    28    31    1
    11    31    32    1
    12    32    33    1
    13    33    34    1
    14    34    37    1
    15    37    38    1
    16    38    39    1
    17    39    40   ar
    18    40    41   ar
    19    41    42   ar
    20    42    43   ar
    21    43    45    1
    22    45    46    2
    23    45    47    1
    24    43    44   ar
    25    34    35    1
    26    35    36    1
    27    28    29   ar
    28    29    30   ar
    29     7     8   ar
    30     8     9   ar
    31     9    10   ar
    32    10    11   ar
    33    11    12   ar
    34    12    15    1
    35    15    16   ar
    36    16    17   ar
    37    17    18   ar
    38    18    19   ar
    39    19    20   ar
    40    12    13   ar
    41    13    21    1
    42    21    22    2
    43    21    23    1
    44    13    14   ar
    45    14     6   ar
    46    30    25   ar
    47    14     9   ar
    48    36    31    1
    49    20    15   ar
    50    44    39   ar
    51     3     4    1
    52    47    48    1
    53    23    24    1
@<TRIPOS>MOLECULE
*****
 48 53 0 0 0
SMALL
GASTEIGER

@<TRIPOS>ATOM
      1 C          59.8232   90.0642    6.4382 C.2     1  UNL1        0.2839
      2 O          58.6647   90.4395    6.7626 O.2     1  UNL1       -0.2665
      3 N          60.5341   89.1275    7.2612 N.am    1  UNL1       -0.2766
      4 H          61.5781   89.1828    7.2676 H       1  UNL1        0.1553
      5 C          58.4869   92.0573    4.2901 C.3     1  UNL1        0.0345
      6 C          59.8872   91.5156    4.3050 C.ar    1  UNL1        0.0204
      7 C          60.4730   90.6940    5.2769 C.ar    1  UNL1        0.1946
      8 O          61.7542   90.5301    5.0192 O.2     1  UNL1       -0.4492
      9 C          62.0342   91.1868    3.9223 C.ar    1  UNL1        0.1454
     10 C          63.2672   91.2443    3.2875 C.ar    1  UNL1        0.0375
     11 C          63.3653   91.9792    2.0995 C.ar    1  UNL1        0.0033
     12 C          62.2413   92.6566    1.5671 C.ar    1  UNL1        0.0064
     13 C          60.9872   92.5912    2.2424 C.ar    1  UNL1        0.0782
     14 C          60.9242   91.8313    3.4298 C.ar    1  UNL1        0.0399
     15 C          62.4153   93.4353    0.3177 C.ar    1  UNL1        0.0002
     16 C          61.4094   93.4289   -0.6637 C.ar    1  UNL1        0.0000
     17 C          61.5736   94.1568   -1.8463 C.ar    1  UNL1        0.0000
     18 C          62.7440   94.8892   -2.0613 C.ar    1  UNL1        0.0000
     19 C          63.7542   94.8921   -1.0957 C.ar    1  UNL1        0.0000
     20 C          63.5941   94.1658    0.0883 C.ar    1  UNL1        0.0000
     21 C          59.7903   93.2368    1.6698 C.2     1  UNL1        0.3381
     22 O          59.6030   94.4712    1.8271 O.2     1  UNL1       -0.2451
     23 O          58.8912   92.5013    0.9035 O.3     1  UNL1       -0.4771
     24 H          59.0222   91.5081    0.7526 H       1  UNL1        0.2954
     25 C          59.8971   88.2090    8.1658 C.ar    1  UNL1        0.0702
     26 C          60.0956   88.2813    9.5538 C.ar    1  UNL1        0.0191
     27 C          59.4401   87.3881   10.4026 C.ar    1  UNL1        0.0356
     28 C          58.5776   86.4237    9.8607 C.ar    1  UNL1        0.1318
     29 N          58.3769   86.3924    8.5138 N.ar    1  UNL1       -0.2279
     30 C          59.0033   87.2522    7.6681 C.ar    1  UNL1        0.1149
     31 N          57.8837   85.4906   10.7112 N.pl3   1  UNL1       -0.2932
     32 C          57.1651   84.3497   10.1359 C.3     1  UNL1        0.0923
     33 C          57.9168   83.0554   10.4578 C.3     1  UNL1        0.0252
     34 C          58.1566   82.9236   11.9783 C.3     1  UNL1        0.0472
     35 C          58.8816   84.1760   12.5202 C.3     1  UNL1        0.0252
     36 C          58.1238   85.4579   12.1583 C.3     1  UNL1        0.0923
     37 C          58.9623   81.6572   12.3297 C.3     1  UNL1        0.2054
     38 O          59.9546   81.9282   13.3233 O.3     1  UNL1       -0.4755
     39 C          61.3497   81.8695   13.1579 C.ar    1  UNL1        0.1388
     40 C          62.0990   81.2666   14.1742 C.ar    1  UNL1        0.0369
     41 C          63.4874   81.1700   14.0724 C.ar    1  UNL1        0.0033
     42 C          64.1456   81.6770   12.9509 C.ar    1  UNL1        0.0066
     43 C          63.4176   82.2911   11.9173 C.ar    1  UNL1        0.0785
     44 C          62.0184   82.3886   12.0295 C.ar    1  UNL1        0.0433
     45 C          64.1113   82.8266   10.7243 C.2     1  UNL1        0.3381
     46 O          65.3422   83.0968   10.7687 O.2     1  UNL1       -0.2451
     47 O          63.4108   83.0363    9.5390 O.3     1  UNL1       -0.4771
     48 H          63.8764   83.4013    8.7168 H       1  UNL1        0.2954
@<TRIPOS>BOND
     1     5     6    1
     2     6     7   ar
     3     7     1    1
     4     1     2    2
     5     1     3   am
     6     3    25    1
     7    25    26   ar
     8    26    27   ar
     9    27    28   ar
    10    28    31    1
    11    31    32    1
    12    32    33    1
    13    33    34    1
    14    34    37    1
    15    37    38    1
    16    38    39    1
    17    39    40   ar
    18    40    41   ar
    19    41    42   ar
    20    42    43   ar
    21    43    45    1
    22    45    46    2
    23    45    47    1
    24    43    44   ar
    25    34    35    1
    26    35    36    1
    27    28    29   ar
    28    29    30   ar
    29     7     8   ar
    30     8     9   ar
    31     9    10   ar
    32    10    11   ar
    33    11    12   ar
    34    12    15    1
    35    15    16   ar
    36    16    17   ar
    37    17    18   ar
    38    18    19   ar
    39    19    20   ar
    40    12    13   ar
    41    13    21    1
    42    21    22    2
    43    21    23    1
    44    13    14   ar
    45    14     6   ar
    46    30    25   ar
    47    14     9   ar
    48    36    31    1
    49    20    15   ar
    50    44    39   ar
    51     3     4    1
    52    47    48    1
    53    23    24    1
@<TRIPOS>MOLECULE
*****
 48 53 0 0 0
SMALL
GASTEIGER

@<TRIPOS>ATOM
      1 C          59.9517   90.1307    6.6651 C.2     1  UNL1        0.2839
      2 O          58.8889   89.4652    6.5396 O.2     1  UNL1       -0.2665
      3 N          60.4806   90.4043    7.9711 N.am    1  UNL1       -0.2766
      4 H          61.0315   91.2840    8.0964 H       1  UNL1        0.1553
      5 C          58.5621   92.0896    4.5193 C.3     1  UNL1        0.0345
      6 C          59.9537   91.5261    4.4940 C.ar    1  UNL1        0.0204
      7 C          60.5648   90.7203    5.4635 C.ar    1  UNL1        0.1946
      8 O          61.8323   90.5295    5.1606 O.2     1  UNL1       -0.4492
      9 C          62.0788   91.1534    4.0370 C.ar    1  UNL1        0.1454
     10 C          63.2867   91.1751    3.3535 C.ar    1  UNL1        0.0375
     11 C          63.3492   91.8779    2.1438 C.ar    1  UNL1        0.0033
     12 C          62.2154   92.5594    1.6380 C.ar    1  UNL1        0.0064
     13 C          60.9879   92.5312    2.3629 C.ar    1  UNL1        0.0782
     14 C          60.9601   91.8028    3.5712 C.ar    1  UNL1        0.0399
     15 C          62.3519   93.3032    0.3629 C.ar    1  UNL1        0.0002
     16 C          61.4239   93.1036   -0.6733 C.ar    1  UNL1        0.0000
     17 C          61.5539   93.7984   -1.8798 C.ar    1  UNL1        0.0000
     18 C          62.6136   94.6906   -2.0637 C.ar    1  UNL1        0.0000
     19 C          63.5474   94.8868   -1.0427 C.ar    1  UNL1        0.0000
     20 C          63.4211   94.1941    0.1653 C.ar    1  UNL1        0.0000
     21 C          59.7793   93.1811    1.8205 C.2     1  UNL1        0.3381
     22 O          59.6096   94.4195    1.9659 O.2     1  UNL1       -0.2451
     23 O          58.8480   92.4441    1.0951 O.3     1  UNL1       -0.4771
     24 H          58.9641   91.4476    0.9546 H       1  UNL1        0.2954
     25 C          60.1938   89.6109    9.1355 C.ar    1  UNL1        0.0702
     26 C          60.1647   88.2081    9.0852 C.ar    1  UNL1        0.0191
     27 C          59.9075   87.4708   10.2422 C.ar    1  UNL1        0.0356
     28 C          59.6857   88.1399   11.4549 C.ar    1  UNL1        0.1318
     29 N          59.7492   89.5002   11.4855 N.ar    1  UNL1       -0.2279
     30 C          59.9989   90.2388   10.3724 C.ar    1  UNL1        0.1149
     31 N          59.4218   87.4067   12.6666 N.pl3   1  UNL1       -0.2932
     32 C          59.5222   85.9444   12.6899 C.3     1  UNL1        0.0923
     33 C          60.7538   85.5280   13.4985 C.3     1  UNL1        0.0252
     34 C          60.7255   86.1617   14.9072 C.3     1  UNL1        0.0472
     35 C          60.5794   87.6967   14.8049 C.3     1  UNL1        0.0252
     36 C          59.3570   88.0848   13.9662 C.3     1  UNL1        0.0923
     37 C          61.9819   85.8072   15.7269 C.3     1  UNL1        0.2054
     38 O          62.1679   84.3918   15.8122 O.3     1  UNL1       -0.4755
     39 C          62.6986   83.5508   14.8181 C.ar    1  UNL1        0.1388
     40 C          63.9159   83.9213   14.2363 C.ar    1  UNL1        0.0369
     41 C          64.5016   83.1300   13.2473 C.ar    1  UNL1        0.0033
     42 C          63.8756   81.9558   12.8262 C.ar    1  UNL1        0.0066
     43 C          62.6503   81.5622   13.3910 C.ar    1  UNL1        0.0785
     44 C          62.0639   82.3679   14.3845 C.ar    1  UNL1        0.0433
     45 C          61.9848   80.3156   12.9501 C.2     1  UNL1        0.3381
     46 O          62.4821   79.6192   12.0240 O.2     1  UNL1       -0.2451
     47 O          60.8021   79.8983   13.5556 O.3     1  UNL1       -0.4771
     48 H          60.3395   79.0462   13.2619 H       1  UNL1        0.2954
@<TRIPOS>BOND
     1     5     6    1
     2     6     7   ar
     3     7     1    1
     4     1     2    2
     5     1     3   am
     6     3    25    1
     7    25    26   ar
     8    26    27   ar
     9    27    28   ar
    10    28    31    1
    11    31    32    1
    12    32    33    1
    13    33    34    1
    14    34    37    1
    15    37    38    1
    16    38    39    1
    17    39    40   ar
    18    40    41   ar
    19    41    42   ar
    20    42    43   ar
    21    43    45    1
    22    45    46    2
    23    45    47    1
    24    43    44   ar
    25    34    35    1
    26    35    36    1
    27    28    29   ar
    28    29    30   ar
    29     7     8   ar
    30     8     9   ar
    31     9    10   ar
    32    10    11   ar
    33    11    12   ar
    34    12    15    1
    35    15    16   ar
    36    16    17   ar
    37    17    18   ar
    38    18    19   ar
    39    19    20   ar
    40    12    13   ar
    41    13    21    1
    42    21    22    2
    43    21    23    1
    44    13    14   ar
    45    14     6   ar
    46    30    25   ar
    47    14     9   ar
    48    36    31    1
    49    20    15   ar
    50    44    39   ar
    51     3     4    1
    52    47    48    1
    53    23    24    1
@<TRIPOS>MOLECULE
*****
 48 53 0 0 0
SMALL
GASTEIGER

@<TRIPOS>ATOM
      1 C          62.1938   89.7495   10.4547 C.2     1  UNL1        0.2839
      2 O          61.6946   90.1956    9.3870 O.2     1  UNL1       -0.2665
      3 N          61.6113   88.6078   11.1007 N.am    1  UNL1       -0.2766
      4 H          61.7044   88.5388   12.1397 H       1  UNL1        0.1553
      5 C          63.5387   89.1919   13.3274 C.3     1  UNL1        0.0345
      6 C          63.8525   90.2929   12.3559 C.ar    1  UNL1        0.0204
      7 C          63.2991   90.4908   11.0841 C.ar    1  UNL1        0.1946
      8 O          63.9127   91.4829   10.4725 O.2     1  UNL1       -0.4492
      9 C          64.8263   91.9548   11.2819 C.ar    1  UNL1        0.1454
     10 C          65.6723   93.0273   11.0352 C.ar    1  UNL1        0.0375
     11 C          66.5701   93.4061   12.0409 C.ar    1  UNL1        0.0033
     12 C          66.6236   92.7061   13.2709 C.ar    1  UNL1        0.0064
     13 C          65.7514   91.6011   13.4978 C.ar    1  UNL1        0.0782
     14 C          64.8524   91.2568   12.4660 C.ar    1  UNL1        0.0399
     15 C          67.6108   93.1425   14.2870 C.ar    1  UNL1        0.0002
     16 C          68.9060   92.5971   14.2925 C.ar    1  UNL1        0.0000
     17 C          69.8372   93.0016   15.2540 C.ar    1  UNL1        0.0000
     18 C          69.4813   93.9463   16.2202 C.ar    1  UNL1        0.0000
     19 C          68.1921   94.4856   16.2289 C.ar    1  UNL1        0.0000
     20 C          67.2578   94.0840   15.2694 C.ar    1  UNL1        0.0000
     21 C          65.7479   90.9003   14.7962 C.2     1  UNL1        0.3381
     22 O          66.6848   90.1136   15.0912 O.2     1  UNL1       -0.2451
     23 O          64.7433   91.1462   15.7272 O.3     1  UNL1       -0.4771
     24 H          63.9820   91.7818   15.5201 H       1  UNL1        0.2954
     25 C          60.8058   87.6272   10.4244 C.ar    1  UNL1        0.0702
     26 C          60.1869   87.9002    9.1942 C.ar    1  UNL1        0.0191
     27 C          59.4332   86.9144    8.5552 C.ar    1  UNL1        0.0356
     28 C          59.3044   85.6489    9.1464 C.ar    1  UNL1        0.1318
     29 N          59.9390   85.3976   10.3251 N.ar    1  UNL1       -0.2279
     30 C          60.6787   86.3412   10.9649 C.ar    1  UNL1        0.1149
     31 N          58.5365   84.6097    8.5093 N.pl3   1  UNL1       -0.2932
     32 C          59.1586   83.7208    7.5235 C.3     1  UNL1        0.0923
     33 C          59.3099   82.3192    8.1207 C.3     1  UNL1        0.0252
     34 C          57.9540   81.7969    8.6455 C.3     1  UNL1        0.0472
     35 C          57.3409   82.8009    9.6475 C.3     1  UNL1        0.0252
     36 C          57.2287   84.2009    9.0344 C.3     1  UNL1        0.0923
     37 C          58.0840   80.4097    9.3052 C.3     1  UNL1        0.2054
     38 O          59.3313   80.2723    9.9914 O.3     1  UNL1       -0.4755
     39 C          59.5327   80.2860   11.3829 C.ar    1  UNL1        0.1388
     40 C          58.7097   79.4694   12.1660 C.ar    1  UNL1        0.0369
     41 C          58.8587   79.4308   13.5530 C.ar    1  UNL1        0.0033
     42 C          59.8342   80.2106   14.1758 C.ar    1  UNL1        0.0066
     43 C          60.6718   81.0429   13.4134 C.ar    1  UNL1        0.0785
     44 C          60.5123   81.0797   12.0159 C.ar    1  UNL1        0.0433
     45 C          61.7104   81.8688   14.0695 C.2     1  UNL1        0.3381
     46 O          61.9003   83.0618   13.7081 O.2     1  UNL1       -0.2451
     47 O          62.4882   81.3361   15.0946 O.3     1  UNL1       -0.4771
     48 H          63.2007   81.8933   15.5507 H       1  UNL1        0.2954
@<TRIPOS>BOND
     1     5     6    1
     2     6     7   ar
     3     7     1    1
     4     1     2    2
     5     1     3   am
     6     3    25    1
     7    25    26   ar
     8    26    27   ar
     9    27    28   ar
    10    28    31    1
    11    31    32    1
    12    32    33    1
    13    33    34    1
    14    34    37    1
    15    37    38    1
    16    38    39    1
    17    39    40   ar
    18    40    41   ar
    19    41    42   ar
    20    42    43   ar
    21    43    45    1
    22    45    46    2
    23    45    47    1
    24    43    44   ar
    25    34    35    1
    26    35    36    1
    27    28    29   ar
    28    29    30   ar
    29     7     8   ar
    30     8     9   ar
    31     9    10   ar
    32    10    11   ar
    33    11    12   ar
    34    12    15    1
    35    15    16   ar
    36    16    17   ar
    37    17    18   ar
    38    18    19   ar
    39    19    20   ar
    40    12    13   ar
    41    13    21    1
    42    21    22    2
    43    21    23    1
    44    13    14   ar
    45    14     6   ar
    46    30    25   ar
    47    14     9   ar
    48    36    31    1
    49    20    15   ar
    50    44    39   ar
    51     3     4    1
    52    47    48    1
    53    23    24    1
@<TRIPOS>MOLECULE
*****
 48 53 0 0 0
SMALL
GASTEIGER

@<TRIPOS>ATOM
      1 C          62.0719   89.7113   10.7224 C.2     1  UNL1        0.2839
      2 O          61.7900   89.8709    9.5045 O.2     1  UNL1       -0.2665
      3 N          61.2250   88.9094   11.5590 N.am    1  UNL1       -0.2766
      4 H          61.1798   89.1501   12.5754 H       1  UNL1        0.1553
      5 C          63.5384   89.1933   13.5426 C.3     1  UNL1        0.0345
      6 C          63.8145   90.2767   12.5403 C.ar    1  UNL1        0.0204
      7 C          63.2070   90.4568   11.2908 C.ar    1  UNL1        0.1946
      8 O          63.7978   91.4356   10.6367 O.2     1  UNL1       -0.4492
      9 C          64.7480   91.9158   11.3977 C.ar    1  UNL1        0.1454
     10 C          65.5873   92.9797   11.0967 C.ar    1  UNL1        0.0375
     11 C          66.5298   93.3700   12.0560 C.ar    1  UNL1        0.0033
     12 C          66.6338   92.6899   13.2939 C.ar    1  UNL1        0.0064
     13 C          65.7674   91.5933   13.5767 C.ar    1  UNL1        0.0782
     14 C          64.8226   91.2370   12.5909 C.ar    1  UNL1        0.0399
     15 C          67.6664   93.1376   14.2586 C.ar    1  UNL1        0.0002
     16 C          68.9436   92.5514   14.2480 C.ar    1  UNL1        0.0000
     17 C          69.9176   92.9667   15.1614 C.ar    1  UNL1        0.0000
     18 C          69.6224   93.9631   16.0956 C.ar    1  UNL1        0.0000
     19 C          68.3514   94.5436   16.1206 C.ar    1  UNL1        0.0000
     20 C          67.3746   94.1314   15.2091 C.ar    1  UNL1        0.0000
     21 C          65.8173   90.9137   14.8854 C.2     1  UNL1        0.3381
     22 O          64.9348   91.1468   15.7516 O.2     1  UNL1       -0.2451
     23 O          66.8033   89.9684   15.1516 O.3     1  UNL1       -0.4771
     24 H          67.5208   89.7541   14.4691 H       1  UNL1        0.2954
     25 C          60.3465   87.8842   11.0642 C.ar    1  UNL1        0.0702
     26 C          60.1714   87.6615    9.6891 C.ar    1  UNL1        0.0191
     27 C          59.3294   86.6400    9.2465 C.ar    1  UNL1        0.0356
     28 C          58.6659   85.8344   10.1838 C.ar    1  UNL1        0.1318
     29 N          58.8751   86.0495   11.5124 N.ar    1  UNL1       -0.2279
     30 C          59.6908   87.0371   11.9666 C.ar    1  UNL1        0.1149
     31 N          57.7936   84.7698    9.7581 N.pl3   1  UNL1       -0.2932
     32 C          57.6068   84.4842    8.3324 C.3     1  UNL1        0.0923
     33 C          58.2924   83.1613    7.9806 C.3     1  UNL1        0.0252
     34 C          57.7974   82.0245    8.9022 C.3     1  UNL1        0.0472
     35 C          57.9896   82.4110   10.3859 C.3     1  UNL1        0.0252
     36 C          57.3195   83.7523   10.7029 C.3     1  UNL1        0.0923
     37 C          58.5119   80.6900    8.6104 C.3     1  UNL1        0.2054
     38 O          59.9205   80.8763    8.4469 O.3     1  UNL1       -0.4755
     39 C          60.8848   80.9445    9.4679 C.ar    1  UNL1        0.1388
     40 C          60.9336   79.8901   10.3863 C.ar    1  UNL1        0.0369
     41 C          61.8693   79.8913   11.4216 C.ar    1  UNL1        0.0033
     42 C          62.7696   80.9497   11.5523 C.ar    1  UNL1        0.0066
     43 C          62.7399   82.0235   10.6459 C.ar    1  UNL1        0.0785
     44 C          61.7905   82.0172    9.6075 C.ar    1  UNL1        0.0433
     45 C          63.6955   83.1463   10.7785 C.2     1  UNL1        0.3381
     46 O          63.3020   84.2763   11.1761 O.2     1  UNL1       -0.2451
     47 O          65.0406   82.9650   10.4664 O.3     1  UNL1       -0.4771
     48 H          65.7027   83.7266   10.5548 H       1  UNL1        0.2954
@<TRIPOS>BOND
     1     5     6    1
     2     6     7   ar
     3     7     1    1
     4     1     2    2
     5     1     3   am
     6     3    25    1
     7    25    26   ar
     8    26    27   ar
     9    27    28   ar
    10    28    31    1
    11    31    32    1
    12    32    33    1
    13    33    34    1
    14    34    37    1
    15    37    38    1
    16    38    39    1
    17    39    40   ar
    18    40    41   ar
    19    41    42   ar
    20    42    43   ar
    21    43    45    1
    22    45    46    2
    23    45    47    1
    24    43    44   ar
    25    34    35    1
    26    35    36    1
    27    28    29   ar
    28    29    30   ar
    29     7     8   ar
    30     8     9   ar
    31     9    10   ar
    32    10    11   ar
    33    11    12   ar
    34    12    15    1
    35    15    16   ar
    36    16    17   ar
    37    17    18   ar
    38    18    19   ar
    39    19    20   ar
    40    12    13   ar
    41    13    21    1
    42    21    22    2
    43    21    23    1
    44    13    14   ar
    45    14     6   ar
    46    30    25   ar
    47    14     9   ar
    48    36    31    1
    49    20    15   ar
    50    44    39   ar
    51     3     4    1
    52    47    48    1
    53    23    24    1
@<TRIPOS>MOLECULE
*****
 48 53 0 0 0
SMALL
GASTEIGER

@<TRIPOS>ATOM
      1 C          59.7596   89.7010    7.0057 C.2     1  UNL1        0.2839
      2 O          58.6682   89.2606    6.5551 O.2     1  UNL1       -0.2665
      3 N          60.6350   90.4603    6.1588 N.am    1  UNL1       -0.2766
      4 H          61.6609   90.4121    6.3546 H       1  UNL1        0.1553
      5 C          60.5678   86.7657    8.0560 C.3     1  UNL1        0.0345
      6 C          60.4674   88.0376    8.8477 C.ar    1  UNL1        0.0204
      7 C          60.1697   89.3195    8.3672 C.ar    1  UNL1        0.1946
      8 O          60.3001   90.2066    9.3320 O.2     1  UNL1       -0.4492
      9 C          60.6510   89.5718   10.4213 C.ar    1  UNL1        0.1454
     10 C          60.8578   90.1344   11.6733 C.ar    1  UNL1        0.0375
     11 C          61.2024   89.2841   12.7313 C.ar    1  UNL1        0.0033
     12 C          61.3495   87.8903   12.5274 C.ar    1  UNL1        0.0064
     13 C          61.1417   87.3366   11.2300 C.ar    1  UNL1        0.0782
     14 C          60.7838   88.2228   10.1918 C.ar    1  UNL1        0.0399
     15 C          61.7369   87.0467   13.6831 C.ar    1  UNL1        0.0002
     16 C          63.0831   86.6947   13.8801 C.ar    1  UNL1        0.0000
     17 C          63.4507   85.8933   14.9654 C.ar    1  UNL1        0.0000
     18 C          62.4784   85.4317   15.8565 C.ar    1  UNL1        0.0000
     19 C          61.1359   85.7676   15.6619 C.ar    1  UNL1        0.0000
     20 C          60.7639   86.5688   14.5781 C.ar    1  UNL1        0.0000
     21 C          61.2275   85.8798   11.0117 C.2     1  UNL1        0.3381
     22 O          62.3328   85.3478   10.7311 O.2     1  UNL1       -0.2451
     23 O          60.1029   85.0758   11.1712 O.3     1  UNL1       -0.4771
     24 H          59.2023   85.4761   11.4061 H       1  UNL1        0.2954
     25 C          60.1996   91.1759    4.9901 C.ar    1  UNL1        0.0702
     26 C          58.8680   91.5913    4.8312 C.ar    1  UNL1        0.0191
     27 C          58.4880   92.3062    3.6942 C.ar    1  UNL1        0.0356
     28 C          59.4459   92.6124    2.7164 C.ar    1  UNL1        0.1318
     29 N          60.7380   92.2256    2.9066 N.ar    1  UNL1       -0.2279
     30 C          61.1313   91.5297    4.0057 C.ar    1  UNL1        0.1149
     31 N          59.0854   93.3522    1.5340 N.pl3   1  UNL1       -0.2932
     32 C          59.4652   94.7610    1.3913 C.3     1  UNL1        0.0923
     33 C          60.5587   94.8917    0.3278 C.3     1  UNL1        0.0252
     34 C          60.1132   94.2408   -1.0005 C.3     1  UNL1        0.0472
     35 C          59.6918   92.7726   -0.7667 C.3     1  UNL1        0.0252
     36 C          58.6188   92.6684    0.3225 C.3     1  UNL1        0.0923
     37 C          61.2161   94.3057   -2.0756 C.3     1  UNL1        0.2054
     38 O          62.2736   93.3845   -1.7955 O.3     1  UNL1       -0.4755
     39 C          63.2383   93.4939   -0.7784 C.ar    1  UNL1        0.1388
     40 C          64.3136   94.3627   -0.9943 C.ar    1  UNL1        0.0369
     41 C          65.3041   94.5231   -0.0246 C.ar    1  UNL1        0.0033
     42 C          65.2322   93.8146    1.1757 C.ar    1  UNL1        0.0066
     43 C          64.1650   92.9323    1.4168 C.ar    1  UNL1        0.0785
     44 C          63.1726   92.7726    0.4322 C.ar    1  UNL1        0.0433
     45 C          64.0827   92.1817    2.6900 C.2     1  UNL1        0.3381
     46 O          63.5502   92.7047    3.7064 O.2     1  UNL1       -0.2451
     47 O          64.5917   90.8884    2.7777 O.3     1  UNL1       -0.4771
     48 H          64.5393   90.3660    3.6441 H       1  UNL1        0.2954
@<TRIPOS>BOND
     1     5     6    1
     2     6     7   ar
     3     7     1    1
     4     1     2    2
     5     1     3   am
     6     3    25    1
     7    25    26   ar
     8    26    27   ar
     9    27    28   ar
    10    28    31    1
    11    31    32    1
    12    32    33    1
    13    33    34    1
    14    34    37    1
    15    37    38    1
    16    38    39    1
    17    39    40   ar
    18    40    41   ar
    19    41    42   ar
    20    42    43   ar
    21    43    45    1
    22    45    46    2
    23    45    47    1
    24    43    44   ar
    25    34    35    1
    26    35    36    1
    27    28    29   ar
    28    29    30   ar
    29     7     8   ar
    30     8     9   ar
    31     9    10   ar
    32    10    11   ar
    33    11    12   ar
    34    12    15    1
    35    15    16   ar
    36    16    17   ar
    37    17    18   ar
    38    18    19   ar
    39    19    20   ar
    40    12    13   ar
    41    13    21    1
    42    21    22    2
    43    21    23    1
    44    13    14   ar
    45    14     6   ar
    46    30    25   ar
    47    14     9   ar
    48    36    31    1
    49    20    15   ar
    50    44    39   ar
    51     3     4    1
    52    47    48    1
    53    23    24    1
