@<TRIPOS>MOLECULE
*****
 46 51 0 0 0
SMALL
GASTEIGER

@<TRIPOS>ATOM
      1 C         -31.0497   46.3863   -5.9694 C.ar    1  UNL1       -0.0044
      2 C         -30.9572   46.1914   -4.5828 C.ar    1  UNL1        0.0313
      3 C         -30.5368   47.2409   -3.7492 C.ar    1  UNL1        0.1315
      4 N         -30.2293   48.4437   -4.3067 N.ar    1  UNL1       -0.2279
      5 C         -30.3138   48.6698   -5.6424 C.ar    1  UNL1        0.1146
      6 C         -30.7212   47.6477   -6.5127 C.ar    1  UNL1        0.0661
      7 N         -30.4271   47.0670   -2.3193 N.pl3   1  UNL1       -0.2933
      8 C         -29.1822   47.4454   -1.6331 C.3     1  UNL1        0.0923
      9 C         -28.9375   46.5204   -0.4369 C.3     1  UNL1        0.0252
     10 C         -30.1237   46.5055    0.5655 C.3     1  UNL1        0.0472
     11 C         -31.4430   47.0230   -0.0568 C.3     1  UNL1        0.0252
     12 C         -31.5836   46.6145   -1.5270 C.3     1  UNL1        0.0923
     13 C         -29.7798   47.2975    1.8379 C.3     1  UNL1        0.2054
     14 O         -30.8430   47.1889    2.7827 O.3     1  UNL1       -0.4755
     15 C         -31.0708   48.0943    3.8292 C.ar    1  UNL1        0.1388
     16 C         -31.3074   47.6748    5.1514 C.ar    1  UNL1        0.0369
     17 C         -31.5282   48.6172    6.1577 C.ar    1  UNL1        0.0033
     18 C         -31.5160   49.9816    5.8593 C.ar    1  UNL1        0.0066
     19 C         -31.2815   50.4193    4.5440 C.ar    1  UNL1        0.0785
     20 C         -31.0601   49.4638    3.5361 C.ar    1  UNL1        0.0433
     21 C         -31.2671   51.8632    4.2207 C.2     1  UNL1        0.3381
     22 O         -30.9685   52.2549    3.0600 O.2     1  UNL1       -0.2451
     23 O         -31.5838   52.8045    5.1969 O.3     1  UNL1       -0.4771
     24 H         -31.5770   53.7953    4.9861 H       1  UNL1        0.2954
     25 N         -30.8601   47.9062   -7.9210 N.am    1  UNL1       -0.2769
     26 C         -29.9659   48.7543   -8.6613 C.2     1  UNL1        0.2839
     27 O         -28.9906   49.3055   -8.0839 O.2     1  UNL1       -0.2665
     28 H         -31.6694   47.4730   -8.4140 H       1  UNL1        0.1553
     29 C         -30.1801   49.0298  -10.0930 C.ar    1  UNL1        0.1946
     30 O         -30.6803   50.1752  -10.5221 O.2     1  UNL1       -0.4492
     31 C         -30.7587   50.1169  -11.8290 C.ar    1  UNL1        0.1452
     32 C         -31.2314   51.0992  -12.6924 C.ar    1  UNL1        0.0375
     33 C         -31.2231   50.8252  -14.0714 C.ar    1  UNL1        0.0031
     34 C         -30.7448   49.5808  -14.5643 C.ar    1  UNL1        0.0002
     35 C         -30.2715   48.6087  -13.6504 C.ar    1  UNL1        0.0028
     36 C         -30.2963   48.9145  -12.2894 C.ar    1  UNL1        0.0337
     37 C         -29.8966   48.1945  -11.1815 C.ar    1  UNL1        0.0202
     38 C         -29.2603   46.8377  -11.1784 C.3     1  UNL1        0.0345
     39 C         -30.7409   49.3022  -16.0228 C.ar    1  UNL1        0.0000
     40 C         -31.4700   50.1176  -16.9093 C.ar    1  UNL1        0.0000
     41 C         -31.4635   49.8534  -18.2824 C.ar    1  UNL1        0.0000
     42 C         -30.7324   48.7752  -18.7855 C.ar    1  UNL1        0.0000
     43 C         -30.0053   47.9588  -17.9165 C.ar    1  UNL1        0.0000
     44 C         -30.0072   48.2187  -16.5427 C.ar    1  UNL1        0.0000
     45 C         -30.3301   44.4114   -7.3252 C.3     1  UNL1        0.0051
     46 C         -31.5139   45.2414   -6.8383 C.3     1  UNL1        0.0278
@<TRIPOS>BOND
     1    45    46    1
     2    46     1    1
     3     1     2   ar
     4     2     3   ar
     5     3     7    1
     6     7     8    1
     7     8     9    1
     8     9    10    1
     9    10    13    1
    10    13    14    1
    11    14    15    1
    12    15    16   ar
    13    16    17   ar
    14    17    18   ar
    15    18    19   ar
    16    19    21    1
    17    21    22    2
    18    21    23    1
    19    19    20   ar
    20    10    11    1
    21    11    12    1
    22     3     4   ar
    23     4     5   ar
    24     5     6   ar
    25     6    25    1
    26    25    26   am
    27    26    27    2
    28    26    29    1
    29    29    30   ar
    30    30    31   ar
    31    31    32   ar
    32    32    33   ar
    33    33    34   ar
    34    34    39    1
    35    39    40   ar
    36    40    41   ar
    37    41    42   ar
    38    42    43   ar
    39    43    44   ar
    40    34    35   ar
    41    35    36   ar
    42    36    37   ar
    43    37    38    1
    44     6     1   ar
    45    37    29   ar
    46    12     7    1
    47    36    31   ar
    48    20    15   ar
    49    44    39   ar
    50    23    24    1
    51    25    28    1
@<TRIPOS>MOLECULE
*****
 46 51 0 0 0
SMALL
GASTEIGER

@<TRIPOS>ATOM
      1 C         -26.1450   49.5886   -9.0835 C.ar    1  UNL1       -0.0044
      2 C         -27.1049   48.6866   -9.5677 C.ar    1  UNL1        0.0313
      3 C         -27.8694   49.0104  -10.7007 C.ar    1  UNL1        0.1315
      4 N         -27.6590   50.2040  -11.3195 N.ar    1  UNL1       -0.2279
      5 C         -26.7349   51.0973  -10.8832 C.ar    1  UNL1        0.1146
      6 C         -25.9551   50.8186   -9.7508 C.ar    1  UNL1        0.0661
      7 N         -28.8680   48.1035  -11.2175 N.pl3   1  UNL1       -0.2933
      8 C         -29.8345   48.5788  -12.2194 C.3     1  UNL1        0.0923
      9 C         -31.1755   47.8604  -12.0405 C.3     1  UNL1        0.0252
     10 C         -31.0442   46.3143  -12.1077 C.3     1  UNL1        0.0472
     11 C         -29.5962   45.8231  -11.8675 C.3     1  UNL1        0.0252
     12 C         -28.8628   46.6817  -10.8317 C.3     1  UNL1        0.0923
     13 C         -31.5837   45.7730  -13.4420 C.3     1  UNL1        0.2054
     14 O         -30.5000   45.4440  -14.3092 O.3     1  UNL1       -0.4755
     15 C         -30.2910   46.0178  -15.5717 C.ar    1  UNL1        0.1388
     16 C         -30.3883   45.2753  -16.7631 C.ar    1  UNL1        0.0369
     17 C         -30.1712   45.8945  -17.9956 C.ar    1  UNL1        0.0033
     18 C         -29.8562   47.2539  -18.0546 C.ar    1  UNL1        0.0066
     19 C         -29.7545   48.0117  -16.8746 C.ar    1  UNL1        0.0785
     20 C         -29.9744   47.3806  -15.6373 C.ar    1  UNL1        0.0433
     21 C         -29.4212   49.4523  -16.9297 C.2     1  UNL1        0.3381
     22 O         -29.8039   50.1598  -17.9008 O.2     1  UNL1       -0.2451
     23 O         -28.6807   50.0412  -15.9078 O.3     1  UNL1       -0.4771
     24 H         -28.4472   51.0266  -15.9358 H       1  UNL1        0.2954
     25 N         -24.9406   51.7443   -9.3225 N.am    1  UNL1       -0.2769
     26 C         -23.6332   51.8151   -9.9164 C.2     1  UNL1        0.2839
     27 O         -23.3285   51.0528  -10.8726 O.2     1  UNL1       -0.2665
     28 H         -25.1666   52.3724   -8.5225 H       1  UNL1        0.1553
     29 C         -22.6099   52.7457   -9.4081 C.ar    1  UNL1        0.1946
     30 O         -21.5705   52.3327   -8.7043 O.2     1  UNL1       -0.4492
     31 C         -20.8520   53.3831   -8.3913 C.ar    1  UNL1        0.1452
     32 C         -19.6740   53.4123   -7.6528 C.ar    1  UNL1        0.0375
     33 C         -19.0616   54.6593   -7.4367 C.ar    1  UNL1        0.0031
     34 C         -19.6320   55.8518   -7.9591 C.ar    1  UNL1        0.0002
     35 C         -20.8320   55.7768   -8.7064 C.ar    1  UNL1        0.0028
     36 C         -21.4125   54.5230   -8.8993 C.ar    1  UNL1        0.0337
     37 C         -22.5484   54.1346   -9.5811 C.ar    1  UNL1        0.0202
     38 C         -23.4690   55.0213  -10.3633 C.3     1  UNL1        0.0345
     39 C         -18.9766   57.1634   -7.7243 C.ar    1  UNL1        0.0000
     40 C         -19.2181   58.2491   -8.5875 C.ar    1  UNL1        0.0000
     41 C         -18.6003   59.4833   -8.3632 C.ar    1  UNL1        0.0000
     42 C         -17.7363   59.6479   -7.2785 C.ar    1  UNL1        0.0000
     43 C         -17.4883   58.5786   -6.4151 C.ar    1  UNL1        0.0000
     44 C         -18.1040   57.3424   -6.6339 C.ar    1  UNL1        0.0000
     45 C         -25.8589   47.9205   -7.2419 C.3     1  UNL1        0.0051
     46 C         -25.3321   49.2076   -7.8689 C.3     1  UNL1        0.0278
@<TRIPOS>BOND
     1    45    46    1
     2    46     1    1
     3     1     2   ar
     4     2     3   ar
     5     3     7    1
     6     7     8    1
     7     8     9    1
     8     9    10    1
     9    10    13    1
    10    13    14    1
    11    14    15    1
    12    15    16   ar
    13    16    17   ar
    14    17    18   ar
    15    18    19   ar
    16    19    21    1
    17    21    22    2
    18    21    23    1
    19    19    20   ar
    20    10    11    1
    21    11    12    1
    22     3     4   ar
    23     4     5   ar
    24     5     6   ar
    25     6    25    1
    26    25    26   am
    27    26    27    2
    28    26    29    1
    29    29    30   ar
    30    30    31   ar
    31    31    32   ar
    32    32    33   ar
    33    33    34   ar
    34    34    39    1
    35    39    40   ar
    36    40    41   ar
    37    41    42   ar
    38    42    43   ar
    39    43    44   ar
    40    34    35   ar
    41    35    36   ar
    42    36    37   ar
    43    37    38    1
    44     6     1   ar
    45    37    29   ar
    46    12     7    1
    47    36    31   ar
    48    20    15   ar
    49    44    39   ar
    50    23    24    1
    51    25    28    1
