@<TRIPOS>MOLECULE
*****
 44 49 0 0 0
SMALL
GASTEIGER

@<TRIPOS>ATOM
      1 C          61.2424   87.3838    9.9716 C.ar    1  UNL1        0.0702
      2 C          62.0554   86.8729    8.9477 C.ar    1  UNL1        0.0191
      3 C          62.6261   85.6059    9.0757 C.ar    1  UNL1        0.0356
      4 C          62.3827   84.8513   10.2340 C.ar    1  UNL1        0.1318
      5 N          61.5972   85.3706   11.2166 N.ar    1  UNL1       -0.2279
      6 C          61.0441   86.6078   11.1204 C.ar    1  UNL1        0.1149
      7 N          62.8869   83.5109   10.3655 N.pl3   1  UNL1       -0.2932
      8 C          61.9861   82.3626   10.5197 C.3     1  UNL1        0.0923
      9 C          62.0484   81.8157   11.9607 C.3     1  UNL1        0.0252
     10 C          63.2824   82.3332   12.7364 C.3     1  UNL1        0.0472
     11 C          64.5256   82.3492   11.8227 C.3     1  UNL1        0.0252
     12 C          64.3185   83.3013   10.6259 C.3     1  UNL1        0.0923
     13 C          63.5246   81.5019   14.0102 C.3     1  UNL1        0.2054
     14 O          63.7236   82.3524   15.1414 O.3     1  UNL1       -0.4755
     15 C          63.6973   83.7581   15.1123 C.ar    1  UNL1        0.1388
     16 C          64.8816   84.4351   14.8026 C.ar    1  UNL1        0.0369
     17 C          64.9094   85.8303   14.7575 C.ar    1  UNL1        0.0033
     18 C          63.7518   86.5647   15.0214 C.ar    1  UNL1        0.0066
     19 C          62.5491   85.9091   15.3308 C.ar    1  UNL1        0.0785
     20 C          62.5310   84.5037   15.3829 C.ar    1  UNL1        0.0433
     21 C          61.3195   86.6877   15.5996 C.2     1  UNL1        0.3381
     22 O          60.7686   86.6413   16.7328 O.2     1  UNL1       -0.2451
     23 O          60.7595   87.4816   14.6036 O.3     1  UNL1       -0.4771
     24 H          59.9158   88.0151   14.7758 H       1  UNL1        0.2954
     25 C          60.5251   89.6089   10.9602 C.2     1  UNL1        0.2839
     26 O          59.4301   90.1996   11.1556 O.2     1  UNL1       -0.2665
     27 N          60.6229   88.6770    9.8752 N.am    1  UNL1       -0.2766
     28 H          60.1287   88.9207    8.9871 H       1  UNL1        0.1553
     29 C          63.2451   91.2466   10.2145 C.3     1  UNL1        0.0345
     30 C          62.8440   90.6247   11.5182 C.ar    1  UNL1        0.0202
     31 C          61.6675   89.9318   11.8406 C.ar    1  UNL1        0.1946
     32 O          61.6696   89.6198   13.1250 O.2     1  UNL1       -0.4492
     33 C          62.7861   90.0626   13.6485 C.ar    1  UNL1        0.1452
     34 C          63.1887   89.9777   14.9761 C.ar    1  UNL1        0.0375
     35 C          64.4140   90.5667   15.3336 C.ar    1  UNL1        0.0031
     36 C          65.2256   91.2134   14.3608 C.ar    1  UNL1        0.0002
     37 C          64.7840   91.2590   13.0150 C.ar    1  UNL1        0.0028
     38 C          63.5538   90.6806   12.7013 C.ar    1  UNL1        0.0337
     39 C          66.5194   91.8381   14.7507 C.ar    1  UNL1        0.0000
     40 C          67.6660   91.6756   13.9477 C.ar    1  UNL1        0.0000
     41 C          68.8861   92.2419   14.3286 C.ar    1  UNL1        0.0000
     42 C          68.9785   92.9790   15.5103 C.ar    1  UNL1        0.0000
     43 C          67.8498   93.1553   16.3123 C.ar    1  UNL1        0.0000
     44 C          66.6265   92.5924   15.9366 C.ar    1  UNL1        0.0000
@<TRIPOS>BOND
     1    29    30    1
     2    30    31   ar
     3    31    25    1
     4    25    26    2
     5    25    27   am
     6    27     1    1
     7     1     2   ar
     8     2     3   ar
     9     3     4   ar
    10     4     7    1
    11     7     8    1
    12     8     9    1
    13     9    10    1
    14    10    13    1
    15    13    14    1
    16    14    15    1
    17    15    16   ar
    18    16    17   ar
    19    17    18   ar
    20    18    19   ar
    21    19    21    1
    22    21    22    2
    23    21    23    1
    24    19    20   ar
    25    10    11    1
    26    11    12    1
    27     4     5   ar
    28     5     6   ar
    29    31    32   ar
    30    32    33   ar
    31    33    34   ar
    32    34    35   ar
    33    35    36   ar
    34    36    39    1
    35    39    40   ar
    36    40    41   ar
    37    41    42   ar
    38    42    43   ar
    39    43    44   ar
    40    36    37   ar
    41    37    38   ar
    42    38    30   ar
    43     6     1   ar
    44    38    33   ar
    45    12     7    1
    46    44    39   ar
    47    20    15   ar
    48    27    28    1
    49    23    24    1
@<TRIPOS>MOLECULE
*****
 44 49 0 0 0
SMALL
GASTEIGER

@<TRIPOS>ATOM
      1 C          61.2630   87.3277    9.9294 C.ar    1  UNL1        0.0702
      2 C          62.3192   86.5806    9.3848 C.ar    1  UNL1        0.0191
      3 C          62.7813   85.4410   10.0444 C.ar    1  UNL1        0.0356
      4 C          62.1844   85.0517   11.2537 C.ar    1  UNL1        0.1318
      5 N          61.1669   85.7961   11.7662 N.ar    1  UNL1       -0.2279
      6 C          60.7113   86.9177   11.1496 C.ar    1  UNL1        0.1149
      7 N          62.5792   83.8395   11.9193 N.pl3   1  UNL1       -0.2932
      8 C          62.8590   82.6082   11.1713 C.3     1  UNL1        0.0923
      9 C          61.7347   81.5751   11.3900 C.3     1  UNL1        0.0252
     10 C          60.8392   81.9236   12.6020 C.3     1  UNL1        0.0472
     11 C          61.6970   82.4459   13.7733 C.3     1  UNL1        0.0252
     12 C          62.4394   83.7401   13.3794 C.3     1  UNL1        0.0923
     13 C          59.9801   80.7160   13.0215 C.3     1  UNL1        0.2054
     14 O          58.6733   80.7991   12.4492 O.3     1  UNL1       -0.4755
     15 C          58.3515   81.4779   11.2603 C.ar    1  UNL1        0.1388
     16 C          58.1891   80.7251   10.0925 C.ar    1  UNL1        0.0369
     17 C          57.8666   81.3493    8.8859 C.ar    1  UNL1        0.0033
     18 C          57.7025   82.7348    8.8340 C.ar    1  UNL1        0.0066
     19 C          57.8561   83.5129    9.9928 C.ar    1  UNL1        0.0785
     20 C          58.1895   82.8779   11.2027 C.ar    1  UNL1        0.0433
     21 C          57.6711   84.9803    9.9395 C.2     1  UNL1        0.3381
     22 O          57.3059   85.6161   10.9651 O.2     1  UNL1       -0.2451
     23 O          57.9007   85.6742    8.7555 O.3     1  UNL1       -0.4771
     24 H          57.7731   86.6779    8.7071 H       1  UNL1        0.2954
     25 C          60.7295   89.8083    9.8605 C.2     1  UNL1        0.2839
     26 O          59.6856   90.5053    9.7574 O.2     1  UNL1       -0.2665
     27 N          60.7461   88.4991    9.2767 N.am    1  UNL1       -0.2766
     28 H          60.2660   88.3778    8.3563 H       1  UNL1        0.1553
     29 C          61.6344   89.4204   12.9697 C.3     1  UNL1        0.0345
     30 C          62.2837   90.2342   11.8912 C.ar    1  UNL1        0.0202
     31 C          61.9001   90.3895   10.5507 C.ar    1  UNL1        0.1946
     32 O          62.7930   91.1256    9.9121 O.2     1  UNL1       -0.4492
     33 C          63.7265   91.4639   10.7671 C.ar    1  UNL1        0.1452
     34 C          64.8710   92.2118   10.5164 C.ar    1  UNL1        0.0375
     35 C          65.7705   92.4180   11.5768 C.ar    1  UNL1        0.0031
     36 C          65.5067   91.8924   12.8719 C.ar    1  UNL1        0.0002
     37 C          64.3174   91.1521   13.0861 C.ar    1  UNL1        0.0028
     38 C          63.4580   90.9516   12.0056 C.ar    1  UNL1        0.0337
     39 C          66.4682   92.1125   13.9869 C.ar    1  UNL1        0.0000
     40 C          66.0077   92.4370   15.2786 C.ar    1  UNL1        0.0000
     41 C          66.9131   92.6682   16.3184 C.ar    1  UNL1        0.0000
     42 C          68.2863   92.5756   16.0859 C.ar    1  UNL1        0.0000
     43 C          68.7577   92.2476   14.8136 C.ar    1  UNL1        0.0000
     44 C          67.8575   92.0143   13.7698 C.ar    1  UNL1        0.0000
@<TRIPOS>BOND
     1    29    30    1
     2    30    31   ar
     3    31    25    1
     4    25    26    2
     5    25    27   am
     6    27     1    1
     7     1     2   ar
     8     2     3   ar
     9     3     4   ar
    10     4     7    1
    11     7     8    1
    12     8     9    1
    13     9    10    1
    14    10    13    1
    15    13    14    1
    16    14    15    1
    17    15    16   ar
    18    16    17   ar
    19    17    18   ar
    20    18    19   ar
    21    19    21    1
    22    21    22    2
    23    21    23    1
    24    19    20   ar
    25    10    11    1
    26    11    12    1
    27     4     5   ar
    28     5     6   ar
    29    31    32   ar
    30    32    33   ar
    31    33    34   ar
    32    34    35   ar
    33    35    36   ar
    34    36    39    1
    35    39    40   ar
    36    40    41   ar
    37    41    42   ar
    38    42    43   ar
    39    43    44   ar
    40    36    37   ar
    41    37    38   ar
    42    38    30   ar
    43     6     1   ar
    44    38    33   ar
    45    12     7    1
    46    44    39   ar
    47    20    15   ar
    48    27    28    1
    49    23    24    1
@<TRIPOS>MOLECULE
*****
 44 49 0 0 0
SMALL
GASTEIGER

@<TRIPOS>ATOM
      1 C          61.5174   87.2757    9.7222 C.ar    1  UNL1        0.0702
      2 C          61.2320   86.7955   11.0099 C.ar    1  UNL1        0.0191
      3 C          61.8814   85.6577   11.4907 C.ar    1  UNL1        0.0356
      4 C          62.8168   84.9992   10.6773 C.ar    1  UNL1        0.1318
      5 N          63.0716   85.4790    9.4295 N.ar    1  UNL1       -0.2279
      6 C          62.4400   86.5755    8.9348 C.ar    1  UNL1        0.1149
      7 N          63.5640   83.8729   11.1685 N.pl3   1  UNL1       -0.2932
      8 C          64.0491   82.8206   10.2678 C.3     1  UNL1        0.0923
      9 C          63.2393   81.5229   10.4661 C.3     1  UNL1        0.0252
     10 C          62.4253   81.5294   11.7813 C.3     1  UNL1        0.0472
     11 C          63.2549   82.1480   12.9256 C.3     1  UNL1        0.0252
     12 C          63.6142   83.6164   12.6152 C.3     1  UNL1        0.0923
     13 C          61.9355   80.1129   12.1366 C.3     1  UNL1        0.2054
     14 O          60.5104   80.0351   12.0631 O.3     1  UNL1       -0.4755
     15 C          59.6839   80.9447   11.3797 C.ar    1  UNL1        0.1388
     16 C          58.9630   81.8775   12.1327 C.ar    1  UNL1        0.0369
     17 C          58.1301   82.8048   11.5035 C.ar    1  UNL1        0.0033
     18 C          58.0091   82.8097   10.1127 C.ar    1  UNL1        0.0066
     19 C          58.7249   81.8865    9.3335 C.ar    1  UNL1        0.0785
     20 C          59.5552   80.9499    9.9750 C.ar    1  UNL1        0.0433
     21 C          58.6049   81.8993    7.8585 C.2     1  UNL1        0.3381
     22 O          59.4056   82.5758    7.1578 O.2     1  UNL1       -0.2451
     23 O          57.6067   81.1621    7.2290 O.3     1  UNL1       -0.4771
     24 H          57.5131   81.1672    6.2204 H       1  UNL1        0.2954
     25 C          60.8000   89.7051    9.8833 C.2     1  UNL1        0.2839
     26 O          59.7038   90.3252    9.8848 O.2     1  UNL1       -0.2665
     27 N          60.8834   88.4516    9.1926 N.am    1  UNL1       -0.2766
     28 H          60.3676   88.3671    8.2875 H       1  UNL1        0.1553
     29 C          61.7218   89.3584   12.9924 C.3     1  UNL1        0.0345
     30 C          62.3486   90.1809   11.9072 C.ar    1  UNL1        0.0202
     31 C          61.9581   90.3185   10.5668 C.ar    1  UNL1        0.1946
     32 O          62.8314   91.0720    9.9213 O.2     1  UNL1       -0.4492
     33 C          63.7586   91.4378   10.7717 C.ar    1  UNL1        0.1452
     34 C          64.8841   92.2115   10.5133 C.ar    1  UNL1        0.0375
     35 C          65.7811   92.4458   11.5700 C.ar    1  UNL1        0.0031
     36 C          65.5333   91.9221   12.8690 C.ar    1  UNL1        0.0002
     37 C          64.3627   91.1547   13.0910 C.ar    1  UNL1        0.0028
     38 C          63.5057   90.9269   12.0140 C.ar    1  UNL1        0.0337
     39 C          66.4920   92.1722   13.9801 C.ar    1  UNL1        0.0000
     40 C          67.8808   92.0600   13.7690 C.ar    1  UNL1        0.0000
     41 C          68.7784   92.2705   14.8199 C.ar    1  UNL1        0.0000
     42 C          68.3049   92.5985   16.0914 C.ar    1  UNL1        0.0000
     43 C          66.9324   92.7208   16.3143 C.ar    1  UNL1        0.0000
     44 C          66.0296   92.5125   15.2674 C.ar    1  UNL1        0.0000
@<TRIPOS>BOND
     1    29    30    1
     2    30    31   ar
     3    31    25    1
     4    25    26    2
     5    25    27   am
     6    27     1    1
     7     1     2   ar
     8     2     3   ar
     9     3     4   ar
    10     4     7    1
    11     7     8    1
    12     8     9    1
    13     9    10    1
    14    10    13    1
    15    13    14    1
    16    14    15    1
    17    15    16   ar
    18    16    17   ar
    19    17    18   ar
    20    18    19   ar
    21    19    21    1
    22    21    22    2
    23    21    23    1
    24    19    20   ar
    25    10    11    1
    26    11    12    1
    27     4     5   ar
    28     5     6   ar
    29    31    32   ar
    30    32    33   ar
    31    33    34   ar
    32    34    35   ar
    33    35    36   ar
    34    36    39    1
    35    39    40   ar
    36    40    41   ar
    37    41    42   ar
    38    42    43   ar
    39    43    44   ar
    40    36    37   ar
    41    37    38   ar
    42    38    30   ar
    43     6     1   ar
    44    38    33   ar
    45    12     7    1
    46    44    39   ar
    47    20    15   ar
    48    27    28    1
    49    23    24    1
@<TRIPOS>MOLECULE
*****
 44 49 0 0 0
SMALL
GASTEIGER

@<TRIPOS>ATOM
      1 C          60.6488   89.6307   10.3822 C.ar    1  UNL1        0.0702
      2 C          62.0133   89.9192   10.5415 C.ar    1  UNL1        0.0191
      3 C          62.5944   89.8687   11.8093 C.ar    1  UNL1        0.0356
      4 C          61.8046   89.5307   12.9194 C.ar    1  UNL1        0.1318
      5 N          60.4823   89.2624   12.7414 N.ar    1  UNL1       -0.2279
      6 C          59.8920   89.3207   11.5191 C.ar    1  UNL1        0.1149
      7 N          62.3854   89.3897   14.2275 N.pl3   1  UNL1       -0.2932
      8 C          63.8373   89.4479   14.4341 C.3     1  UNL1        0.0923
      9 C          64.3931   88.0477   14.7655 C.3     1  UNL1        0.0252
     10 C          63.2822   87.0524   15.1749 C.3     1  UNL1        0.0472
     11 C          62.2443   87.7462   16.0815 C.3     1  UNL1        0.0252
     12 C          61.5518   88.9081   15.3385 C.3     1  UNL1        0.0923
     13 C          63.8790   85.8024   15.8484 C.3     1  UNL1        0.2054
     14 O          64.5895   85.0045   14.8992 O.3     1  UNL1       -0.4755
     15 C          64.0212   83.9926   14.1052 C.ar    1  UNL1        0.1388
     16 C          63.2153   83.0355   14.7308 C.ar    1  UNL1        0.0369
     17 C          62.6247   82.0113   13.9881 C.ar    1  UNL1        0.0033
     18 C          62.8333   81.9331   12.6099 C.ar    1  UNL1        0.0066
     19 C          63.6347   82.8837   11.9571 C.ar    1  UNL1        0.0785
     20 C          64.2334   83.9073   12.7133 C.ar    1  UNL1        0.0433
     21 C          63.8465   82.8067   10.4944 C.2     1  UNL1        0.3381
     22 O          64.9474   82.4062   10.0282 O.2     1  UNL1       -0.2451
     23 O          62.8306   83.1745    9.6176 O.3     1  UNL1       -0.4771
     24 H          62.9666   83.1296    8.6148 H       1  UNL1        0.2954
     25 C          59.9332   88.5308    8.2095 C.2     1  UNL1        0.2839
     26 O          60.1799   88.7015    6.9864 O.2     1  UNL1       -0.2665
     27 N          60.0128   89.6564    9.0938 N.am    1  UNL1       -0.2766
     28 H          59.6672   90.5748    8.7340 H       1  UNL1        0.1553
     29 C          61.6387   86.4508   10.0539 C.3     1  UNL1        0.0345
     30 C          60.2771   86.2807    9.4503 C.ar    1  UNL1        0.0202
     31 C          59.5396   87.1818    8.6679 C.ar    1  UNL1        0.1946
     32 O          58.3463   86.6764    8.4080 O.2     1  UNL1       -0.4492
     33 C          58.2750   85.4946    8.9694 C.ar    1  UNL1        0.1452
     34 C          57.1906   84.6251    8.9732 C.ar    1  UNL1        0.0375
     35 C          57.3144   83.4182    9.6833 C.ar    1  UNL1        0.0031
     36 C          58.5208   83.0894   10.3614 C.ar    1  UNL1        0.0002
     37 C          59.6074   83.9978   10.3142 C.ar    1  UNL1        0.0028
     38 C          59.4413   85.1941    9.6160 C.ar    1  UNL1        0.0337
     39 C          58.6399   81.8107   11.1144 C.ar    1  UNL1        0.0000
     40 C          58.2365   80.5934   10.5304 C.ar    1  UNL1        0.0000
     41 C          58.3256   79.3971   11.2484 C.ar    1  UNL1        0.0000
     42 C          58.8201   79.3979   12.5537 C.ar    1  UNL1        0.0000
     43 C          59.2308   80.5948   13.1431 C.ar    1  UNL1        0.0000
     44 C          59.1452   81.7942   12.4302 C.ar    1  UNL1        0.0000
@<TRIPOS>BOND
     1    29    30    1
     2    30    31   ar
     3    31    25    1
     4    25    26    2
     5    25    27   am
     6    27     1    1
     7     1     2   ar
     8     2     3   ar
     9     3     4   ar
    10     4     7    1
    11     7     8    1
    12     8     9    1
    13     9    10    1
    14    10    13    1
    15    13    14    1
    16    14    15    1
    17    15    16   ar
    18    16    17   ar
    19    17    18   ar
    20    18    19   ar
    21    19    21    1
    22    21    22    2
    23    21    23    1
    24    19    20   ar
    25    10    11    1
    26    11    12    1
    27     4     5   ar
    28     5     6   ar
    29    31    32   ar
    30    32    33   ar
    31    33    34   ar
    32    34    35   ar
    33    35    36   ar
    34    36    39    1
    35    39    40   ar
    36    40    41   ar
    37    41    42   ar
    38    42    43   ar
    39    43    44   ar
    40    36    37   ar
    41    37    38   ar
    42    38    30   ar
    43     6     1   ar
    44    38    33   ar
    45    12     7    1
    46    44    39   ar
    47    20    15   ar
    48    27    28    1
    49    23    24    1
@<TRIPOS>MOLECULE
*****
 44 49 0 0 0
SMALL
GASTEIGER

@<TRIPOS>ATOM
      1 C          60.8507   85.3046    8.3409 C.ar    1  UNL1        0.0702
      2 C          60.2020   84.2026    8.9198 C.ar    1  UNL1        0.0191
      3 C          60.9426   83.2330    9.5971 C.ar    1  UNL1        0.0356
      4 C          62.3365   83.3679    9.6915 C.ar    1  UNL1        0.1318
      5 N          62.9442   84.4409    9.1158 N.ar    1  UNL1       -0.2279
      6 C          62.2453   85.3887    8.4383 C.ar    1  UNL1        0.1149
      7 N          63.1225   82.4323   10.4499 N.pl3   1  UNL1       -0.2932
      8 C          62.5422   81.1925   10.9793 C.3     1  UNL1        0.0923
      9 C          62.3827   81.2807   12.5110 C.3     1  UNL1        0.0252
     10 C          63.2056   82.4374   13.1253 C.3     1  UNL1        0.0472
     11 C          64.5892   82.5328   12.4491 C.3     1  UNL1        0.0252
     12 C          64.4474   82.8362   10.9427 C.3     1  UNL1        0.0923
     13 C          63.3297   82.2789   14.6523 C.3     1  UNL1        0.2054
     14 O          62.5113   83.2345   15.3302 O.3     1  UNL1       -0.4755
     15 C          62.7105   84.6265   15.3157 C.ar    1  UNL1        0.1388
     16 C          64.0227   85.1058   15.2428 C.ar    1  UNL1        0.0369
     17 C          64.2757   86.4788   15.2226 C.ar    1  UNL1        0.0033
     18 C          63.2180   87.3886   15.2746 C.ar    1  UNL1        0.0066
     19 C          61.8914   86.9334   15.3440 C.ar    1  UNL1        0.0785
     20 C          61.6449   85.5490   15.3728 C.ar    1  UNL1        0.0433
     21 C          60.7700   87.8982   15.3879 C.2     1  UNL1        0.3381
     22 O          60.9491   89.0669   15.8258 O.2     1  UNL1       -0.2451
     23 O          59.5052   87.5251   14.9438 O.3     1  UNL1       -0.4771
     24 H          58.7299   88.1763   14.9734 H       1  UNL1        0.2954
     25 C          59.6622   87.5459    8.2563 C.2     1  UNL1        0.2839
     26 O          58.4912   87.9387    8.0104 O.2     1  UNL1       -0.2665
     27 N          60.1262   86.3338    7.6473 N.am    1  UNL1       -0.2766
     28 H          59.8351   86.1506    6.6603 H       1  UNL1        0.1553
     29 C          60.3540   87.0831   11.4097 C.3     1  UNL1        0.0345
     30 C          60.8019   88.1837   10.4957 C.ar    1  UNL1        0.0202
     31 C          60.5137   88.3739    9.1360 C.ar    1  UNL1        0.1946
     32 O          61.1757   89.4235    8.6808 O.2     1  UNL1       -0.4492
     33 C          61.8671   89.9287    9.6725 C.ar    1  UNL1        0.1452
     34 C          62.7265   91.0205    9.6334 C.ar    1  UNL1        0.0375
     35 C          63.4097   91.3656   10.8125 C.ar    1  UNL1        0.0031
     36 C          63.2119   90.6303   12.0139 C.ar    1  UNL1        0.0002
     37 C          62.3112   89.5362   12.0120 C.ar    1  UNL1        0.0028
     38 C          61.6658   89.2114   10.8185 C.ar    1  UNL1        0.0337
     39 C          63.9440   91.0012   13.2560 C.ar    1  UNL1        0.0000
     40 C          63.4383   90.6428   14.5216 C.ar    1  UNL1        0.0000
     41 C          64.1142   91.0140   15.6877 C.ar    1  UNL1        0.0000
     42 C          65.3021   91.7425   15.6079 C.ar    1  UNL1        0.0000
     43 C          65.8196   92.0983   14.3613 C.ar    1  UNL1        0.0000
     44 C          65.1492   91.7293   13.1914 C.ar    1  UNL1        0.0000
@<TRIPOS>BOND
     1    29    30    1
     2    30    31   ar
     3    31    25    1
     4    25    26    2
     5    25    27   am
     6    27     1    1
     7     1     2   ar
     8     2     3   ar
     9     3     4   ar
    10     4     7    1
    11     7     8    1
    12     8     9    1
    13     9    10    1
    14    10    13    1
    15    13    14    1
    16    14    15    1
    17    15    16   ar
    18    16    17   ar
    19    17    18   ar
    20    18    19   ar
    21    19    21    1
    22    21    22    2
    23    21    23    1
    24    19    20   ar
    25    10    11    1
    26    11    12    1
    27     4     5   ar
    28     5     6   ar
    29    31    32   ar
    30    32    33   ar
    31    33    34   ar
    32    34    35   ar
    33    35    36   ar
    34    36    39    1
    35    39    40   ar
    36    40    41   ar
    37    41    42   ar
    38    42    43   ar
    39    43    44   ar
    40    36    37   ar
    41    37    38   ar
    42    38    30   ar
    43     6     1   ar
    44    38    33   ar
    45    12     7    1
    46    44    39   ar
    47    20    15   ar
    48    27    28    1
    49    23    24    1
@<TRIPOS>MOLECULE
*****
 44 49 0 0 0
SMALL
GASTEIGER

@<TRIPOS>ATOM
      1 C          61.5394   86.9777   10.0637 C.ar    1  UNL1        0.0702
      2 C          62.4276   86.2506    9.2557 C.ar    1  UNL1        0.0191
      3 C          62.8474   84.9789    9.6484 C.ar    1  UNL1        0.0356
      4 C          62.3773   84.4370   10.8548 C.ar    1  UNL1        0.1318
      5 N          61.5227   85.1637   11.6253 N.ar    1  UNL1       -0.2279
      6 C          61.1130   86.4096   11.2708 C.ar    1  UNL1        0.1149
      7 N          62.7239   83.0988   11.2516 N.pl3   1  UNL1       -0.2932
      8 C          63.1560   82.0944   10.2725 C.3     1  UNL1        0.0923
      9 C          62.0553   81.0344   10.0630 C.3     1  UNL1        0.0252
     10 C          60.9849   81.0653   11.1790 C.3     1  UNL1        0.0472
     11 C          61.6474   81.2824   12.5554 C.3     1  UNL1        0.0252
     12 C          62.3845   82.6373   12.6055 C.3     1  UNL1        0.0923
     13 C          60.1254   79.7873   11.1578 C.3     1  UNL1        0.2054
     14 O          58.8117   80.0669   10.6694 O.3     1  UNL1       -0.4755
     15 C          58.3582   81.3272   10.2411 C.ar    1  UNL1        0.1388
     16 C          58.0585   81.4961    8.8851 C.ar    1  UNL1        0.0369
     17 C          57.6020   82.7263    8.4081 C.ar    1  UNL1        0.0033
     18 C          57.4395   83.8022    9.2828 C.ar    1  UNL1        0.0066
     19 C          57.7294   83.6577   10.6491 C.ar    1  UNL1        0.0785
     20 C          58.1972   82.4180   11.1207 C.ar    1  UNL1        0.0433
     21 C          57.5465   84.7953   11.5779 C.2     1  UNL1        0.3381
     22 O          57.3907   85.9648   11.1332 O.2     1  UNL1       -0.2451
     23 O          57.5426   84.5851   12.9533 O.3     1  UNL1       -0.4771
     24 H          57.4223   85.3573   13.5978 H       1  UNL1        0.2954
     25 C          60.9587   89.3908   10.5953 C.2     1  UNL1        0.2839
     26 O          59.9165   90.0970   10.5644 O.2     1  UNL1       -0.2665
     27 N          61.0699   88.2838    9.6912 N.am    1  UNL1       -0.2766
     28 H          60.6965   88.4148    8.7238 H       1  UNL1        0.1553
     29 C          63.5252   91.3344   10.0736 C.3     1  UNL1        0.0345
     30 C          63.1444   90.5850   11.3148 C.ar    1  UNL1        0.0202
     31 C          62.0328   89.7597   11.5413 C.ar    1  UNL1        0.1946
     32 O          62.0226   89.3584   12.8007 O.2     1  UNL1       -0.4492
     33 C          63.0709   89.8693   13.3980 C.ar    1  UNL1        0.1452
     34 C          63.4348   89.7294   14.7321 C.ar    1  UNL1        0.0375
     35 C          64.5824   90.4079   15.1782 C.ar    1  UNL1        0.0031
     36 C          65.3577   91.1982   14.2853 C.ar    1  UNL1        0.0002
     37 C          64.9596   91.2965   12.9288 C.ar    1  UNL1        0.0028
     38 C          63.8046   90.6251   12.5268 C.ar    1  UNL1        0.0337
     39 C          66.5687   91.9164   14.7689 C.ar    1  UNL1        0.0000
     40 C          66.5024   92.7554   15.8992 C.ar    1  UNL1        0.0000
     41 C          67.6347   93.4487   16.3367 C.ar    1  UNL1        0.0000
     42 C          68.8464   93.3124   15.6572 C.ar    1  UNL1        0.0000
     43 C          68.9298   92.4791   14.5405 C.ar    1  UNL1        0.0000
     44 C          67.8013   91.7823   14.0985 C.ar    1  UNL1        0.0000
@<TRIPOS>BOND
     1    29    30    1
     2    30    31   ar
     3    31    25    1
     4    25    26    2
     5    25    27   am
     6    27     1    1
     7     1     2   ar
     8     2     3   ar
     9     3     4   ar
    10     4     7    1
    11     7     8    1
    12     8     9    1
    13     9    10    1
    14    10    13    1
    15    13    14    1
    16    14    15    1
    17    15    16   ar
    18    16    17   ar
    19    17    18   ar
    20    18    19   ar
    21    19    21    1
    22    21    22    2
    23    21    23    1
    24    19    20   ar
    25    10    11    1
    26    11    12    1
    27     4     5   ar
    28     5     6   ar
    29    31    32   ar
    30    32    33   ar
    31    33    34   ar
    32    34    35   ar
    33    35    36   ar
    34    36    39    1
    35    39    40   ar
    36    40    41   ar
    37    41    42   ar
    38    42    43   ar
    39    43    44   ar
    40    36    37   ar
    41    37    38   ar
    42    38    30   ar
    43     6     1   ar
    44    38    33   ar
    45    12     7    1
    46    44    39   ar
    47    20    15   ar
    48    27    28    1
    49    23    24    1
@<TRIPOS>MOLECULE
*****
 44 49 0 0 0
SMALL
GASTEIGER

@<TRIPOS>ATOM
      1 C          61.2298   87.4440    9.3468 C.ar    1  UNL1        0.0702
      2 C          61.7901   87.3036   10.6261 C.ar    1  UNL1        0.0191
      3 C          62.3847   86.0977   10.9996 C.ar    1  UNL1        0.0356
      4 C          62.4149   85.0299   10.0889 C.ar    1  UNL1        0.1318
      5 N          61.8586   85.1870    8.8569 N.ar    1  UNL1       -0.2279
      6 C          61.2607   86.3465    8.4773 C.ar    1  UNL1        0.1149
      7 N          63.0898   83.8010   10.4091 N.pl3   1  UNL1       -0.2932
      8 C          62.3473   82.5636   10.6768 C.3     1  UNL1        0.0923
      9 C          62.4065   82.2109   12.1772 C.3     1  UNL1        0.0252
     10 C          63.5150   82.9892   12.9240 C.3     1  UNL1        0.0472
     11 C          64.7914   83.0704   12.0610 C.3     1  UNL1        0.0252
     12 C          64.5206   83.8304   10.7455 C.3     1  UNL1        0.0923
     13 C          63.8000   82.3623   14.3017 C.3     1  UNL1        0.2054
     14 O          64.4141   83.3125   15.1748 O.3     1  UNL1       -0.4755
     15 C          64.0957   84.6810   15.2350 C.ar    1  UNL1        0.1388
     16 C          65.0757   85.6050   14.8571 C.ar    1  UNL1        0.0369
     17 C          64.8104   86.9752   14.8956 C.ar    1  UNL1        0.0033
     18 C          63.5606   87.4370   15.3124 C.ar    1  UNL1        0.0066
     19 C          62.5582   86.5302   15.6930 C.ar    1  UNL1        0.0785
     20 C          62.8358   85.1518   15.6600 C.ar    1  UNL1        0.0433
     21 C          61.2299   87.0198   16.1243 C.2     1  UNL1        0.3381
     22 O          60.9292   88.2387   16.0075 O.2     1  UNL1       -0.2451
     23 O          60.2973   86.1382   16.6619 O.3     1  UNL1       -0.4771
     24 H          59.3868   86.4636   16.9640 H       1  UNL1        0.2954
     25 C          60.5739   89.8703    9.7008 C.2     1  UNL1        0.2839
     26 O          59.4934   90.5145    9.7607 O.2     1  UNL1       -0.2665
     27 N          60.6208   88.6720    8.9152 N.am    1  UNL1       -0.2766
     28 H          60.0959   88.6698    8.0114 H       1  UNL1        0.1553
     29 C          61.3175   89.5637   12.8615 C.3     1  UNL1        0.0345
     30 C          62.0670   90.2815   11.7798 C.ar    1  UNL1        0.0202
     31 C          61.7521   90.4013   10.4180 C.ar    1  UNL1        0.1946
     32 O          62.7205   91.0453    9.7897 O.2     1  UNL1       -0.4492
     33 C          63.6384   91.3578   10.6708 C.ar    1  UNL1        0.1452
     34 C          64.8419   92.0140   10.4406 C.ar    1  UNL1        0.0375
     35 C          65.7082   92.2066   11.5308 C.ar    1  UNL1        0.0031
     36 C          65.3539   91.7596   12.8339 C.ar    1  UNL1        0.0002
     37 C          64.1078   91.1124   13.0253 C.ar    1  UNL1        0.0028
     38 C          63.2828   90.9218   11.9166 C.ar    1  UNL1        0.0337
     39 C          66.2805   91.9644   13.9809 C.ar    1  UNL1        0.0000
     40 C          67.6735   91.8378   13.8099 C.ar    1  UNL1        0.0000
     41 C          68.5405   92.0056   14.8937 C.ar    1  UNL1        0.0000
     42 C          68.0318   92.3047   16.1587 C.ar    1  UNL1        0.0000
     43 C          66.6547   92.4409   16.3423 C.ar    1  UNL1        0.0000
     44 C          65.7826   92.2753   15.2624 C.ar    1  UNL1        0.0000
@<TRIPOS>BOND
     1    29    30    1
     2    30    31   ar
     3    31    25    1
     4    25    26    2
     5    25    27   am
     6    27     1    1
     7     1     2   ar
     8     2     3   ar
     9     3     4   ar
    10     4     7    1
    11     7     8    1
    12     8     9    1
    13     9    10    1
    14    10    13    1
    15    13    14    1
    16    14    15    1
    17    15    16   ar
    18    16    17   ar
    19    17    18   ar
    20    18    19   ar
    21    19    21    1
    22    21    22    2
    23    21    23    1
    24    19    20   ar
    25    10    11    1
    26    11    12    1
    27     4     5   ar
    28     5     6   ar
    29    31    32   ar
    30    32    33   ar
    31    33    34   ar
    32    34    35   ar
    33    35    36   ar
    34    36    39    1
    35    39    40   ar
    36    40    41   ar
    37    41    42   ar
    38    42    43   ar
    39    43    44   ar
    40    36    37   ar
    41    37    38   ar
    42    38    30   ar
    43     6     1   ar
    44    38    33   ar
    45    12     7    1
    46    44    39   ar
    47    20    15   ar
    48    27    28    1
    49    23    24    1
@<TRIPOS>MOLECULE
*****
 44 49 0 0 0
SMALL
GASTEIGER

@<TRIPOS>ATOM
      1 C          60.8650   81.4781   13.4853 C.ar    1  UNL1        0.0702
      2 C          59.5271   81.0685   13.3728 C.ar    1  UNL1        0.0191
      3 C          58.7283   81.5671   12.3429 C.ar    1  UNL1        0.0356
      4 C          59.2721   82.4800   11.4257 C.ar    1  UNL1        0.1318
      5 N          60.5696   82.8683   11.5593 N.ar    1  UNL1       -0.2279
      6 C          61.3611   82.4081   12.5632 C.ar    1  UNL1        0.1149
      7 N          58.5041   82.9523   10.3053 N.pl3   1  UNL1       -0.2932
      8 C          58.7879   82.5062    8.9362 C.3     1  UNL1        0.0923
      9 C          59.4358   83.6434    8.1200 C.3     1  UNL1        0.0252
     10 C          59.2645   85.0255    8.7927 C.3     1  UNL1        0.0472
     11 C          57.8480   85.1630    9.3886 C.3     1  UNL1        0.0252
     12 C          57.6035   84.1009   10.4812 C.3     1  UNL1        0.0923
     13 C          59.5781   86.1651    7.8051 C.3     1  UNL1        0.2054
     14 O          60.9061   86.6555    8.0006 O.3     1  UNL1       -0.4755
     15 C          61.4534   87.0402    9.2375 C.ar    1  UNL1        0.1388
     16 C          61.9464   86.0400   10.0821 C.ar    1  UNL1        0.0369
     17 C          62.5026   86.3682   11.3200 C.ar    1  UNL1        0.0033
     18 C          62.5724   87.7018   11.7271 C.ar    1  UNL1        0.0066
     19 C          62.0883   88.7251   10.8962 C.ar    1  UNL1        0.0785
     20 C          61.5215   88.3860    9.6545 C.ar    1  UNL1        0.0433
     21 C          62.1726   90.1395   11.3235 C.2     1  UNL1        0.3381
     22 O          63.2228   90.8070   11.1205 O.2     1  UNL1       -0.2451
     23 O          61.0913   90.7484   11.9528 O.3     1  UNL1       -0.4771
     24 H          61.1400   91.7146   12.2530 H       1  UNL1        0.2954
     25 C          62.9408   81.6173   14.9393 C.2     1  UNL1        0.2839
     26 O          63.9676   80.9104   15.1182 O.2     1  UNL1       -0.2665
     27 N          61.7272   80.9791   14.5211 N.am    1  UNL1       -0.2766
     28 H          61.5096   80.0440   14.9342 H       1  UNL1        0.1553
     29 C          64.7412   83.8438   13.3777 C.3     1  UNL1        0.0345
     30 C          63.8131   84.0259   14.5408 C.ar    1  UNL1        0.0202
     31 C          63.0295   83.0690   15.2029 C.ar    1  UNL1        0.1946
     32 O          62.2862   83.6584   16.1233 O.2     1  UNL1       -0.4492
     33 C          62.5533   84.9409   16.1006 C.ar    1  UNL1        0.1452
     34 C          61.9789   85.9375   16.8809 C.ar    1  UNL1        0.0375
     35 C          62.3815   87.2657   16.6573 C.ar    1  UNL1        0.0031
     36 C          63.3615   87.5769   15.6746 C.ar    1  UNL1        0.0002
     37 C          63.9344   86.5261   14.9156 C.ar    1  UNL1        0.0028
     38 C          63.4962   85.2229   15.1519 C.ar    1  UNL1        0.0337
     39 C          63.7775   88.9873   15.4425 C.ar    1  UNL1        0.0000
     40 C          64.5284   89.3361   14.3021 C.ar    1  UNL1        0.0000
     41 C          64.9396   90.6566   14.0989 C.ar    1  UNL1        0.0000
     42 C          64.6056   91.6456   15.0256 C.ar    1  UNL1        0.0000
     43 C          63.8557   91.3171   16.1562 C.ar    1  UNL1        0.0000
     44 C          63.4406   89.9986   16.3648 C.ar    1  UNL1        0.0000
@<TRIPOS>BOND
     1    29    30    1
     2    30    31   ar
     3    31    25    1
     4    25    26    2
     5    25    27   am
     6    27     1    1
     7     1     2   ar
     8     2     3   ar
     9     3     4   ar
    10     4     7    1
    11     7     8    1
    12     8     9    1
    13     9    10    1
    14    10    13    1
    15    13    14    1
    16    14    15    1
    17    15    16   ar
    18    16    17   ar
    19    17    18   ar
    20    18    19   ar
    21    19    21    1
    22    21    22    2
    23    21    23    1
    24    19    20   ar
    25    10    11    1
    26    11    12    1
    27     4     5   ar
    28     5     6   ar
    29    31    32   ar
    30    32    33   ar
    31    33    34   ar
    32    34    35   ar
    33    35    36   ar
    34    36    39    1
    35    39    40   ar
    36    40    41   ar
    37    41    42   ar
    38    42    43   ar
    39    43    44   ar
    40    36    37   ar
    41    37    38   ar
    42    38    30   ar
    43     6     1   ar
    44    38    33   ar
    45    12     7    1
    46    44    39   ar
    47    20    15   ar
    48    27    28    1
    49    23    24    1
@<TRIPOS>MOLECULE
*****
 44 49 0 0 0
SMALL
GASTEIGER

@<TRIPOS>ATOM
      1 C          60.5777   89.7085   10.2625 C.ar    1  UNL1        0.0702
      2 C          61.9436   89.9895   10.4224 C.ar    1  UNL1        0.0191
      3 C          62.5159   89.9715   11.6951 C.ar    1  UNL1        0.0356
      4 C          61.7159   89.6736   12.8093 C.ar    1  UNL1        0.1318
      5 N          60.3924   89.4119   12.6303 N.ar    1  UNL1       -0.2279
      6 C          59.8107   89.4391   11.4029 C.ar    1  UNL1        0.1149
      7 N          62.2868   89.5663   14.1249 N.pl3   1  UNL1       -0.2932
      8 C          63.7158   89.8002   14.3639 C.3     1  UNL1        0.0923
      9 C          64.4382   88.4715   14.6671 C.3     1  UNL1        0.0252
     10 C          63.4549   87.3322   15.0242 C.3     1  UNL1        0.0472
     11 C          62.3220   87.8616   15.9279 C.3     1  UNL1        0.0252
     12 C          61.5013   88.9497   15.2038 C.3     1  UNL1        0.0923
     13 C          64.1929   86.1469   15.6744 C.3     1  UNL1        0.2054
     14 O          64.8317   85.3406   14.6824 O.3     1  UNL1       -0.4755
     15 C          64.2243   84.2801   13.9866 C.ar    1  UNL1        0.1388
     16 C          63.8366   84.4959   12.6600 C.ar    1  UNL1        0.0369
     17 C          63.2319   83.4755   11.9233 C.ar    1  UNL1        0.0033
     18 C          63.0084   82.2266   12.5058 C.ar    1  UNL1        0.0066
     19 C          63.3919   81.9829   13.8345 C.ar    1  UNL1        0.0785
     20 C          63.9925   83.0183   14.5730 C.ar    1  UNL1        0.0433
     21 C          63.1648   80.6554   14.4480 C.2     1  UNL1        0.3381
     22 O          62.4682   79.7878   13.8547 O.2     1  UNL1       -0.2451
     23 O          63.7202   80.3502   15.6867 O.3     1  UNL1       -0.4771
     24 H          63.5676   79.4461   16.1173 H       1  UNL1        0.2954
     25 C          59.8909   88.5584    8.1065 C.2     1  UNL1        0.2839
     26 O          60.1440   88.7088    6.8820 O.2     1  UNL1       -0.2665
     27 N          59.9504   89.7016    8.9695 N.am    1  UNL1       -0.2766
     28 H          59.5959   90.6085    8.5899 H       1  UNL1        0.1553
     29 C          61.6276   86.5174    9.9652 C.3     1  UNL1        0.0345
     30 C          60.2618   86.3291    9.3767 C.ar    1  UNL1        0.0202
     31 C          59.5110   87.2136    8.5880 C.ar    1  UNL1        0.1946
     32 O          58.3189   86.6962    8.3465 O.2     1  UNL1       -0.4492
     33 C          58.2610   85.5223    8.9256 C.ar    1  UNL1        0.1452
     34 C          57.1828   84.6455    8.9520 C.ar    1  UNL1        0.0375
     35 C          57.3215   83.4500    9.6784 C.ar    1  UNL1        0.0031
     36 C          58.5362   83.1394   10.3501 C.ar    1  UNL1        0.0002
     37 C          59.6160   84.0545   10.2798 C.ar    1  UNL1        0.0028
     38 C          59.4351   85.2393    9.5658 C.ar    1  UNL1        0.0337
     39 C          58.6711   81.8727   11.1205 C.ar    1  UNL1        0.0000
     40 C          58.2449   80.6481   10.5689 C.ar    1  UNL1        0.0000
     41 C          58.3492   79.4634   11.3037 C.ar    1  UNL1        0.0000
     42 C          58.8818   79.4831   12.5938 C.ar    1  UNL1        0.0000
     43 C          59.3153   80.6872   13.1510 C.ar    1  UNL1        0.0000
     44 C          59.2147   81.8752   12.4210 C.ar    1  UNL1        0.0000
@<TRIPOS>BOND
     1    29    30    1
     2    30    31   ar
     3    31    25    1
     4    25    26    2
     5    25    27   am
     6    27     1    1
     7     1     2   ar
     8     2     3   ar
     9     3     4   ar
    10     4     7    1
    11     7     8    1
    12     8     9    1
    13     9    10    1
    14    10    13    1
    15    13    14    1
    16    14    15    1
    17    15    16   ar
    18    16    17   ar
    19    17    18   ar
    20    18    19   ar
    21    19    21    1
    22    21    22    2
    23    21    23    1
    24    19    20   ar
    25    10    11    1
    26    11    12    1
    27     4     5   ar
    28     5     6   ar
    29    31    32   ar
    30    32    33   ar
    31    33    34   ar
    32    34    35   ar
    33    35    36   ar
    34    36    39    1
    35    39    40   ar
    36    40    41   ar
    37    41    42   ar
    38    42    43   ar
    39    43    44   ar
    40    36    37   ar
    41    37    38   ar
    42    38    30   ar
    43     6     1   ar
    44    38    33   ar
    45    12     7    1
    46    44    39   ar
    47    20    15   ar
    48    27    28    1
    49    23    24    1
