@<TRIPOS>MOLECULE
*****
 35 39 0 0 0
SMALL
GASTEIGER

@<TRIPOS>ATOM
      1 C          47.1156   11.3668  -23.3918 C.2     1  UNL1        0.2490
      2 O          47.9132   10.5746  -23.9643 O.2     1  UNL1       -0.2699
      3 N          46.0546   11.9791  -24.1526 N.am    1  UNL1       -0.2760
      4 C          45.6764   13.3797  -23.9122 C.3     1  UNL1        0.0954
      5 C          45.2923   14.0873  -25.2248 C.3     1  UNL1        0.0399
      6 C          46.1196   13.5872  -26.4437 C.3     1  UNL1        0.0645
      7 C          45.9388   12.0396  -26.6194 C.3     1  UNL1        0.0399
      8 C          45.5095   11.3078  -25.3353 C.3     1  UNL1        0.0954
      9 C          47.6464   13.9173  -26.2431 C.3     1  UNL1        0.0477
     10 C          47.9020   15.3801  -26.4310 C.ar    1  UNL1        0.0220
     11 C          48.9576   16.1692  -26.0388 C.ar    1  UNL1        0.0923
     12 N          48.8138   17.3804  -26.6336 N.ar    1  UNL1       -0.2534
     13 N          47.7358   17.3701  -27.4133 N.ar    1  UNL1       -0.1651
     14 C          47.1831   16.1512  -27.2899 C.ar    1  UNL1        0.1515
     15 C          46.0204   15.6165  -27.9819 C.2     1  UNL1        0.2650
     16 O          45.4064   16.2922  -28.8492 O.2     1  UNL1       -0.2684
     17 N          45.6025   14.2812  -27.6510 N.am    1  UNL1       -0.3023
     18 H          44.7574   13.9076  -28.1399 H       1  UNL1        0.1497
     19 C          50.0452   12.4606  -19.5391 C.ar    1  UNL1        0.2256
     20 N          50.1741   12.7281  -18.2091 N.ar    1  UNL1       -0.2001
     21 C          49.1073   12.7603  -17.3690 C.ar    1  UNL1        0.1414
     22 CL         49.3530   13.1118  -15.6704 Cl      1  UNL1       -0.0612
     23 C          47.8228   12.5155  -17.8571 C.ar    1  UNL1        0.0310
     24 C          47.6464   12.2365  -19.2179 C.ar    1  UNL1        0.0069
     25 C          46.3670   11.9929  -19.7358 C.ar    1  UNL1        0.0004
     26 C          46.1993   11.7137  -21.0941 C.ar    1  UNL1        0.0045
     27 C          47.3074   11.6636  -21.9545 C.ar    1  UNL1        0.0537
     28 C          48.5891   11.9264  -21.4429 C.ar    1  UNL1        0.0092
     29 C          48.7694   12.2059  -20.0770 C.ar    1  UNL1        0.0534
     30 C          52.0153   13.5696  -20.5564 C.3     1  UNL1        0.2542
     31 O          51.1758   12.4372  -20.3650 O.3     1  UNL1       -0.4561
     32 C          49.7470   18.5188  -26.5163 C.3     1  UNL1        0.0867
     33 C          49.5439   19.2057  -25.1536 C.3     1  UNL1        0.0244
     34 C          51.2095   18.0344  -26.6196 C.3     1  UNL1        0.0244
     35 C          49.4814   19.5263  -27.6519 C.3     1  UNL1        0.0244
@<TRIPOS>BOND
     1    30    31    1
     2    31    19    1
     3    19    20   ar
     4    20    21   ar
     5    21    22    1
     6    21    23   ar
     7    23    24   ar
     8    24    25   ar
     9    25    26   ar
    10    26    27   ar
    11    27     1    1
    12     1     2    2
    13     1     3   am
    14     3     4    1
    15     4     5    1
    16     5     6    1
    17     6     7    1
    18     7     8    1
    19     6     9    1
    20     9    10    1
    21    10    11   ar
    22    11    12   ar
    23    12    32    1
    24    32    33    1
    25    32    34    1
    26    32    35    1
    27    12    13   ar
    28    13    14   ar
    29    14    15    1
    30    15    16    2
    31    15    17   am
    32    27    28   ar
    33    28    29   ar
    34    29    19   ar
    35    29    24   ar
    36     8     3    1
    37    14    10   ar
    38    17     6    1
    39    17    18    1
@<TRIPOS>MOLECULE
*****
 35 39 0 0 0
SMALL
GASTEIGER

@<TRIPOS>ATOM
      1 C          49.0373   12.0379  -22.7594 C.2     1  UNL1        0.2490
      2 O          48.0236   11.3258  -22.9975 O.2     1  UNL1       -0.2699
      3 N          49.9157   11.6819  -21.6726 N.am    1  UNL1       -0.2760
      4 C          50.5122   12.7240  -20.8235 C.3     1  UNL1        0.0954
      5 C          50.6053   12.2634  -19.3570 C.3     1  UNL1        0.0399
      6 C          49.4217   11.3453  -18.9373 C.3     1  UNL1        0.0645
      7 C          49.3584   10.0869  -19.8706 C.3     1  UNL1        0.0399
      8 C          50.0307   10.2867  -21.2406 C.3     1  UNL1        0.0954
      9 C          48.0599   12.1316  -19.0242 C.3     1  UNL1        0.0477
     10 C          47.9420   13.1141  -17.9011 C.ar    1  UNL1        0.0220
     11 C          47.1379   14.2192  -17.7498 C.ar    1  UNL1        0.0923
     12 N          47.2593   14.6484  -16.4681 N.ar    1  UNL1       -0.2534
     13 N          48.0732   13.8354  -15.7998 N.ar    1  UNL1       -0.1651
     14 C          48.4864   12.9012  -16.6732 C.ar    1  UNL1        0.1515
     15 C          49.3415   11.7510  -16.4227 C.2     1  UNL1        0.2650
     16 O          49.7719   11.4943  -15.2675 O.2     1  UNL1       -0.2684
     17 N          49.6688   10.9069  -17.5396 N.am    1  UNL1       -0.3023
     18 H          50.2960   10.0908  -17.3570 H       1  UNL1        0.1497
     19 C          47.9200   16.6734  -24.1325 C.ar    1  UNL1        0.2256
     20 N          48.1831   17.7532  -24.9212 N.ar    1  UNL1       -0.2001
     21 C          49.1972   17.7616  -25.8247 C.ar    1  UNL1        0.1414
     22 CL         49.4734   19.1883  -26.8032 Cl      1  UNL1       -0.0612
     23 C          50.0146   16.6399  -25.9717 C.ar    1  UNL1        0.0310
     24 C          49.7783   15.5089  -25.1805 C.ar    1  UNL1        0.0069
     25 C          50.5876   14.3712  -25.3032 C.ar    1  UNL1        0.0004
     26 C          50.3446   13.2464  -24.5116 C.ar    1  UNL1        0.0045
     27 C          49.2837   13.2364  -23.5922 C.ar    1  UNL1        0.0537
     28 C          48.4825   14.3819  -23.4526 C.ar    1  UNL1        0.0092
     29 C          48.7168   15.5184  -24.2461 C.ar    1  UNL1        0.0534
     30 C          46.1757   17.9124  -22.8802 C.3     1  UNL1        0.2542
     31 O          46.8618   16.7124  -23.2163 O.3     1  UNL1       -0.4561
     32 C          46.5391   15.7876  -15.8648 C.3     1  UNL1        0.0867
     33 C          47.1141   17.1043  -16.4177 C.3     1  UNL1        0.0244
     34 C          45.0339   15.7181  -16.2022 C.3     1  UNL1        0.0244
     35 C          46.7017   15.7513  -14.3326 C.3     1  UNL1        0.0244
@<TRIPOS>BOND
     1    30    31    1
     2    31    19    1
     3    19    20   ar
     4    20    21   ar
     5    21    22    1
     6    21    23   ar
     7    23    24   ar
     8    24    25   ar
     9    25    26   ar
    10    26    27   ar
    11    27     1    1
    12     1     2    2
    13     1     3   am
    14     3     4    1
    15     4     5    1
    16     5     6    1
    17     6     7    1
    18     7     8    1
    19     6     9    1
    20     9    10    1
    21    10    11   ar
    22    11    12   ar
    23    12    32    1
    24    32    33    1
    25    32    34    1
    26    32    35    1
    27    12    13   ar
    28    13    14   ar
    29    14    15    1
    30    15    16    2
    31    15    17   am
    32    27    28   ar
    33    28    29   ar
    34    29    19   ar
    35    29    24   ar
    36     8     3    1
    37    14    10   ar
    38    17     6    1
    39    17    18    1
@<TRIPOS>MOLECULE
*****
 35 39 0 0 0
SMALL
GASTEIGER

@<TRIPOS>ATOM
      1 C          47.5485   11.2223  -22.5640 C.2     1  UNL1        0.2490
      2 O          46.7338   10.2871  -22.3334 O.2     1  UNL1       -0.2699
      3 N          48.7891   11.2802  -21.8312 N.am    1  UNL1       -0.2760
      4 C          49.3333   12.5719  -21.3865 C.3     1  UNL1        0.0954
      5 C          50.0071   12.4486  -20.0073 C.3     1  UNL1        0.0399
      6 C          49.3019   11.4159  -19.0820 C.3     1  UNL1        0.0645
      7 C          49.2726   10.0072  -19.7701 C.3     1  UNL1        0.0399
      8 C          49.3948   10.0549  -21.3036 C.3     1  UNL1        0.0954
      9 C          47.8290   11.8767  -18.7681 C.3     1  UNL1        0.0477
     10 C          47.8256   13.0232  -17.8057 C.ar    1  UNL1        0.0220
     11 C          46.8541   13.9506  -17.5106 C.ar    1  UNL1        0.0923
     12 N          47.2632   14.6476  -16.4205 N.ar    1  UNL1       -0.2534
     13 N          48.4300   14.1692  -15.9963 N.ar    1  UNL1       -0.1651
     14 C          48.7698   13.1795  -16.8397 C.ar    1  UNL1        0.1515
     15 C          49.9280   12.3013  -16.7759 C.2     1  UNL1        0.2650
     16 O          50.7566   12.3778  -15.8307 O.2     1  UNL1       -0.2684
     17 N          50.0882   11.3309  -17.8246 N.am    1  UNL1       -0.3023
     18 H          50.9302   10.7128  -17.7822 H       1  UNL1        0.1497
     19 C          46.4270   12.5423  -27.2140 C.ar    1  UNL1        0.2256
     20 N          46.1044   13.5226  -28.1040 N.ar    1  UNL1       -0.2001
     21 C          45.9782   14.8238  -27.7356 C.ar    1  UNL1        0.1414
     22 CL         45.5606   16.0276  -28.9381 Cl      1  UNL1       -0.0612
     23 C          46.1795   15.1990  -26.4065 C.ar    1  UNL1        0.0310
     24 C          46.5126   14.2225  -25.4597 C.ar    1  UNL1        0.0069
     25 C          46.7142   14.5705  -24.1171 C.ar    1  UNL1        0.0004
     26 C          47.0478   13.5910  -23.1789 C.ar    1  UNL1        0.0045
     27 C          47.1949   12.2503  -23.5684 C.ar    1  UNL1        0.0537
     28 C          46.9745   11.8946  -24.9095 C.ar    1  UNL1        0.0092
     29 C          46.6408   12.8728  -25.8623 C.ar    1  UNL1        0.0534
     30 C          46.7574   10.8588  -29.0036 C.3     1  UNL1        0.2542
     31 O          46.5469   11.2145  -27.6424 O.3     1  UNL1       -0.4561
     32 C          46.5040   15.7167  -15.7415 C.3     1  UNL1        0.0867
     33 C          47.0215   17.0877  -16.2135 C.3     1  UNL1        0.0244
     34 C          44.9998   15.6085  -16.0728 C.3     1  UNL1        0.0244
     35 C          46.6817   15.5903  -14.2158 C.3     1  UNL1        0.0244
@<TRIPOS>BOND
     1    30    31    1
     2    31    19    1
     3    19    20   ar
     4    20    21   ar
     5    21    22    1
     6    21    23   ar
     7    23    24   ar
     8    24    25   ar
     9    25    26   ar
    10    26    27   ar
    11    27     1    1
    12     1     2    2
    13     1     3   am
    14     3     4    1
    15     4     5    1
    16     5     6    1
    17     6     7    1
    18     7     8    1
    19     6     9    1
    20     9    10    1
    21    10    11   ar
    22    11    12   ar
    23    12    32    1
    24    32    33    1
    25    32    34    1
    26    32    35    1
    27    12    13   ar
    28    13    14   ar
    29    14    15    1
    30    15    16    2
    31    15    17   am
    32    27    28   ar
    33    28    29   ar
    34    29    19   ar
    35    29    24   ar
    36     8     3    1
    37    14    10   ar
    38    17     6    1
    39    17    18    1
@<TRIPOS>MOLECULE
*****
 35 39 0 0 0
SMALL
GASTEIGER

@<TRIPOS>ATOM
      1 C          52.4763    9.6514  -27.3282 C.2     1  UNL1        0.2490
      2 O          53.3366    8.9163  -26.7706 O.2     1  UNL1       -0.2699
      3 N          52.4382   11.0595  -27.0195 N.am    1  UNL1       -0.2760
      4 C          51.1519   11.7602  -26.8890 C.3     1  UNL1        0.0954
      5 C          51.2063   12.8243  -25.7772 C.3     1  UNL1        0.0399
      6 C          52.1147   12.4054  -24.5858 C.3     1  UNL1        0.0645
      7 C          53.5694   12.1143  -25.0934 C.3     1  UNL1        0.0399
      8 C          53.6530   11.7556  -26.5877 C.3     1  UNL1        0.0954
      9 C          51.5380   11.1201  -23.8817 C.3     1  UNL1        0.0477
     10 C          50.3200   11.4562  -23.0792 C.ar    1  UNL1        0.0220
     11 C          49.3123   10.6578  -22.5912 C.ar    1  UNL1        0.0923
     12 N          48.5572   11.4096  -21.7509 N.ar    1  UNL1       -0.2534
     13 N          49.0727   12.6328  -21.6605 N.ar    1  UNL1       -0.1651
     14 C          50.1465   12.6587  -22.4683 C.ar    1  UNL1        0.1515
     15 C          51.0882   13.7477  -22.6783 C.2     1  UNL1        0.2650
     16 O          50.9885   14.8311  -22.0441 O.2     1  UNL1       -0.2684
     17 N          52.1479   13.5399  -23.6274 N.am    1  UNL1       -0.3023
     18 H          52.8126   14.3311  -23.7858 H       1  UNL1        0.1497
     19 C          51.4673    7.1716  -31.5061 C.ar    1  UNL1        0.2256
     20 N          50.5433    6.6236  -32.3446 N.ar    1  UNL1       -0.2001
     21 C          49.2106    6.6722  -32.0865 C.ar    1  UNL1        0.1414
     22 CL         48.0835    5.9442  -33.2130 Cl      1  UNL1       -0.0612
     23 C          48.7427    7.2978  -30.9300 C.ar    1  UNL1        0.0310
     24 C          49.6590    7.8739  -30.0416 C.ar    1  UNL1        0.0069
     25 C          49.2170    8.5031  -28.8698 C.ar    1  UNL1        0.0004
     26 C          50.1370    9.0767  -27.9893 C.ar    1  UNL1        0.0045
     27 C          51.5121    9.0398  -28.2699 C.ar    1  UNL1        0.0537
     28 C          51.9604    8.3930  -29.4336 C.ar    1  UNL1        0.0092
     29 C          51.0427    7.8146  -30.3278 C.ar    1  UNL1        0.0534
     30 C          53.3592    6.1671  -32.7541 C.3     1  UNL1        0.2542
     31 O          52.8308    7.0972  -31.8163 O.3     1  UNL1       -0.4561
     32 C          47.3912   10.9371  -20.9780 C.3     1  UNL1        0.0867
     33 C          47.1535    9.4454  -21.2751 C.3     1  UNL1        0.0244
     34 C          47.6365   11.1129  -19.4637 C.3     1  UNL1        0.0244
     35 C          46.1433   11.7515  -21.3716 C.3     1  UNL1        0.0244
@<TRIPOS>BOND
     1    30    31    1
     2    31    19    1
     3    19    20   ar
     4    20    21   ar
     5    21    22    1
     6    21    23   ar
     7    23    24   ar
     8    24    25   ar
     9    25    26   ar
    10    26    27   ar
    11    27     1    1
    12     1     2    2
    13     1     3   am
    14     3     4    1
    15     4     5    1
    16     5     6    1
    17     6     7    1
    18     7     8    1
    19     6     9    1
    20     9    10    1
    21    10    11   ar
    22    11    12   ar
    23    12    32    1
    24    32    33    1
    25    32    34    1
    26    32    35    1
    27    12    13   ar
    28    13    14   ar
    29    14    15    1
    30    15    16    2
    31    15    17   am
    32    27    28   ar
    33    28    29   ar
    34    29    19   ar
    35    29    24   ar
    36     8     3    1
    37    14    10   ar
    38    17     6    1
    39    17    18    1
@<TRIPOS>MOLECULE
*****
 35 39 0 0 0
SMALL
GASTEIGER

@<TRIPOS>ATOM
      1 C          47.7724   11.1004  -24.1431 C.2     1  UNL1        0.2490
      2 O          48.5612   10.5230  -24.9405 O.2     1  UNL1       -0.2699
      3 N          46.5485   11.6740  -24.6457 N.am    1  UNL1       -0.2760
      4 C          46.0541   12.9553  -24.1201 C.3     1  UNL1        0.0954
      5 C          45.4033   13.8004  -25.2308 C.3     1  UNL1        0.0399
      6 C          46.0930   13.6138  -26.6127 C.3     1  UNL1        0.0645
      7 C          46.0644   12.1025  -27.0298 C.3     1  UNL1        0.0399
      8 C          45.9144   11.1278  -25.8483 C.3     1  UNL1        0.0954
      9 C          47.5856   14.1129  -26.5527 C.3     1  UNL1        0.0477
     10 C          47.6438   15.6081  -26.5148 C.ar    1  UNL1        0.0220
     11 C          48.6497   16.4624  -26.1285 C.ar    1  UNL1        0.0923
     12 N          48.2839   17.7207  -26.4812 N.ar    1  UNL1       -0.2534
     13 N          47.1108   17.6858  -27.1081 N.ar    1  UNL1       -0.1651
     14 C          46.7237   16.3990  -27.1290 C.ar    1  UNL1        0.1515
     15 C          45.5397   15.8258  -27.7506 C.2     1  UNL1        0.2650
     16 O          44.7322   16.5388  -28.4027 O.2     1  UNL1       -0.2684
     17 N          45.3287   14.4110  -27.6061 N.am    1  UNL1       -0.3023
     18 H          44.4684   14.0069  -28.0414 H       1  UNL1        0.1497
     19 C          46.5959   12.0234  -19.4117 C.ar    1  UNL1        0.2256
     20 N          46.9791   12.0960  -18.1059 N.ar    1  UNL1       -0.2001
     21 C          48.2464   11.8160  -17.7053 C.ar    1  UNL1        0.1414
     22 CL         48.6633   11.9316  -16.0076 Cl      1  UNL1       -0.0612
     23 C          49.2102   11.4376  -18.6412 C.ar    1  UNL1        0.0310
     24 C          48.8579   11.3506  -19.9936 C.ar    1  UNL1        0.0069
     25 C          49.8043   10.9671  -20.9537 C.ar    1  UNL1        0.0004
     26 C          49.4456   10.8842  -22.3011 C.ar    1  UNL1        0.0045
     27 C          48.1391   11.1924  -22.7121 C.ar    1  UNL1        0.0537
     28 C          47.1828   11.5583  -21.7503 C.ar    1  UNL1        0.0092
     29 C          47.5338   11.6473  -20.3920 C.ar    1  UNL1        0.0534
     30 C          44.1531   11.9248  -19.0008 C.3     1  UNL1        0.2542
     31 O          45.2775   12.3232  -19.7758 O.3     1  UNL1       -0.4561
     32 C          49.0895   18.9429  -26.2872 C.3     1  UNL1        0.0867
     33 C          48.3462   19.8973  -25.3351 C.3     1  UNL1        0.0244
     34 C          50.4639   18.5955  -25.6752 C.3     1  UNL1        0.0244
     35 C          49.3169   19.6351  -27.6453 C.3     1  UNL1        0.0244
@<TRIPOS>BOND
     1    30    31    1
     2    31    19    1
     3    19    20   ar
     4    20    21   ar
     5    21    22    1
     6    21    23   ar
     7    23    24   ar
     8    24    25   ar
     9    25    26   ar
    10    26    27   ar
    11    27     1    1
    12     1     2    2
    13     1     3   am
    14     3     4    1
    15     4     5    1
    16     5     6    1
    17     6     7    1
    18     7     8    1
    19     6     9    1
    20     9    10    1
    21    10    11   ar
    22    11    12   ar
    23    12    32    1
    24    32    33    1
    25    32    34    1
    26    32    35    1
    27    12    13   ar
    28    13    14   ar
    29    14    15    1
    30    15    16    2
    31    15    17   am
    32    27    28   ar
    33    28    29   ar
    34    29    19   ar
    35    29    24   ar
    36     8     3    1
    37    14    10   ar
    38    17     6    1
    39    17    18    1
@<TRIPOS>MOLECULE
*****
 35 39 0 0 0
SMALL
GASTEIGER

@<TRIPOS>ATOM
      1 C          47.4661   11.0084  -22.3778 C.2     1  UNL1        0.2490
      2 O          46.7384   10.0271  -22.0631 O.2     1  UNL1       -0.2699
      3 N          48.7311   11.1969  -21.7116 N.am    1  UNL1       -0.2760
      4 C          49.1930   12.5469  -21.3557 C.3     1  UNL1        0.0954
      5 C          49.9377   12.5446  -20.0078 C.3     1  UNL1        0.0399
      6 C          49.3589   11.5096  -19.0011 C.3     1  UNL1        0.0645
      7 C          49.4077   10.0698  -19.6203 C.3     1  UNL1        0.0399
      8 C          49.4544   10.0492  -21.1585 C.3     1  UNL1        0.0954
      9 C          47.8708   11.8729  -18.6354 C.3     1  UNL1        0.0477
     10 C          47.8227   13.0629  -17.7287 C.ar    1  UNL1        0.0220
     11 C          46.7965   13.9278  -17.4288 C.ar    1  UNL1        0.0923
     12 N          47.2003   14.7079  -16.3945 N.ar    1  UNL1       -0.2534
     13 N          48.4193   14.3412  -16.0074 N.ar    1  UNL1       -0.1651
     14 C          48.7957   13.3387  -16.8197 C.ar    1  UNL1        0.1515
     15 C          50.0205   12.5549  -16.7732 C.2     1  UNL1        0.2650
     16 O          50.8837   12.7415  -15.8754 O.2     1  UNL1       -0.2684
     17 N          50.2071   11.5478  -17.7821 N.am    1  UNL1       -0.3023
     18 H          51.0958   10.9981  -17.7532 H       1  UNL1        0.1497
     19 C          48.3323   14.1950  -26.0815 C.ar    1  UNL1        0.2256
     20 N          47.8457   15.0583  -27.0170 N.ar    1  UNL1       -0.2001
     21 C          46.5160   15.2917  -27.1666 C.ar    1  UNL1        0.1414
     22 CL         45.9669   16.4162  -28.3927 Cl      1  UNL1       -0.0612
     23 C          45.5930   14.6384  -26.3485 C.ar    1  UNL1        0.0310
     24 C          46.0512   13.7430  -25.3743 C.ar    1  UNL1        0.0069
     25 C          45.1459   13.0689  -24.5433 C.ar    1  UNL1        0.0004
     26 C          45.6107   12.1785  -23.5728 C.ar    1  UNL1        0.0045
     27 C          46.9870   11.9547  -23.4101 C.ar    1  UNL1        0.0537
     28 C          47.8964   12.6138  -24.2540 C.ar    1  UNL1        0.0092
     29 C          47.4395   13.5139  -25.2324 C.ar    1  UNL1        0.0534
     30 C          50.5630   14.8585  -25.2276 C.3     1  UNL1        0.2542
     31 O          49.7123   13.9887  -25.9646 O.3     1  UNL1       -0.4561
     32 C          46.3924   15.7494  -15.7289 C.3     1  UNL1        0.0867
     33 C          46.5385   15.6098  -14.2027 C.3     1  UNL1        0.0244
     34 C          46.8675   17.1568  -16.1505 C.3     1  UNL1        0.0244
     35 C          44.9119   15.5907  -16.1268 C.3     1  UNL1        0.0244
@<TRIPOS>BOND
     1    30    31    1
     2    31    19    1
     3    19    20   ar
     4    20    21   ar
     5    21    22    1
     6    21    23   ar
     7    23    24   ar
     8    24    25   ar
     9    25    26   ar
    10    26    27   ar
    11    27     1    1
    12     1     2    2
    13     1     3   am
    14     3     4    1
    15     4     5    1
    16     5     6    1
    17     6     7    1
    18     7     8    1
    19     6     9    1
    20     9    10    1
    21    10    11   ar
    22    11    12   ar
    23    12    32    1
    24    32    33    1
    25    32    34    1
    26    32    35    1
    27    12    13   ar
    28    13    14   ar
    29    14    15    1
    30    15    16    2
    31    15    17   am
    32    27    28   ar
    33    28    29   ar
    34    29    19   ar
    35    29    24   ar
    36     8     3    1
    37    14    10   ar
    38    17     6    1
    39    17    18    1
@<TRIPOS>MOLECULE
*****
 35 39 0 0 0
SMALL
GASTEIGER

@<TRIPOS>ATOM
      1 C          49.9641   11.3007  -22.3511 C.2     1  UNL1        0.2490
      2 O          51.0080   10.8762  -22.9180 O.2     1  UNL1       -0.2699
      3 N          48.7262   11.3523  -23.0890 N.am    1  UNL1       -0.2760
      4 C          47.7975   12.4784  -22.9103 C.3     1  UNL1        0.0954
      5 C          47.1198   12.8592  -24.2396 C.3     1  UNL1        0.0399
      6 C          48.0520   12.6631  -25.4694 C.3     1  UNL1        0.0645
      7 C          48.5379   11.1742  -25.5456 C.3     1  UNL1        0.0399
      8 C          48.4882   10.4280  -24.2005 C.3     1  UNL1        0.0954
      9 C          49.3006   13.6177  -25.3690 C.3     1  UNL1        0.0477
     10 C          48.9099   15.0342  -25.6544 C.ar    1  UNL1        0.0220
     11 C          49.5421   16.2204  -25.3646 C.ar    1  UNL1        0.0923
     12 N          48.8862   17.2112  -26.0200 N.ar    1  UNL1       -0.2534
     13 N          47.8955   16.6910  -26.7399 N.ar    1  UNL1       -0.1651
     14 C          47.9126   15.3657  -26.5173 C.ar    1  UNL1        0.1515
     15 C          47.0688   14.3422  -27.1150 C.2     1  UNL1        0.2650
     16 O          46.2067   14.6309  -27.9863 O.2     1  UNL1       -0.2684
     17 N          47.2620   12.9837  -26.6859 N.am    1  UNL1       -0.3023
     18 H          46.6427   12.2545  -27.1071 H       1  UNL1        0.1497
     19 C          47.9471   11.8983  -17.8570 C.ar    1  UNL1        0.2256
     20 N          48.0678   12.3342  -16.5714 N.ar    1  UNL1       -0.2001
     21 C          49.2088   12.9027  -16.1024 C.ar    1  UNL1        0.1414
     22 CL         49.2877   13.4385  -14.4363 Cl      1  UNL1       -0.0612
     23 C          50.3118   13.0581  -16.9434 C.ar    1  UNL1        0.0310
     24 C          50.2296   12.6235  -18.2720 C.ar    1  UNL1        0.0069
     25 C          51.3242   12.7617  -19.1364 C.ar    1  UNL1        0.0004
     26 C          51.2339   12.3273  -20.4607 C.ar    1  UNL1        0.0045
     27 C          50.0462   11.7571  -20.9455 C.ar    1  UNL1        0.0537
     28 C          48.9535   11.5991  -20.0768 C.ar    1  UNL1        0.0092
     29 C          49.0328   12.0351  -18.7427 C.ar    1  UNL1        0.0534
     30 C          45.7464   12.0525  -18.9879 C.3     1  UNL1        0.2542
     31 O          46.7492   11.3198  -18.2943 O.3     1  UNL1       -0.4561
     32 C          49.2535   18.6414  -26.0181 C.3     1  UNL1        0.0867
     33 C          50.6613   18.8050  -25.4170 C.3     1  UNL1        0.0244
     34 C          49.2550   19.2032  -27.4564 C.3     1  UNL1        0.0244
     35 C          48.2339   19.4376  -25.1804 C.3     1  UNL1        0.0244
@<TRIPOS>BOND
     1    30    31    1
     2    31    19    1
     3    19    20   ar
     4    20    21   ar
     5    21    22    1
     6    21    23   ar
     7    23    24   ar
     8    24    25   ar
     9    25    26   ar
    10    26    27   ar
    11    27     1    1
    12     1     2    2
    13     1     3   am
    14     3     4    1
    15     4     5    1
    16     5     6    1
    17     6     7    1
    18     7     8    1
    19     6     9    1
    20     9    10    1
    21    10    11   ar
    22    11    12   ar
    23    12    32    1
    24    32    33    1
    25    32    34    1
    26    32    35    1
    27    12    13   ar
    28    13    14   ar
    29    14    15    1
    30    15    16    2
    31    15    17   am
    32    27    28   ar
    33    28    29   ar
    34    29    19   ar
    35    29    24   ar
    36     8     3    1
    37    14    10   ar
    38    17     6    1
    39    17    18    1
@<TRIPOS>MOLECULE
*****
 35 39 0 0 0
SMALL
GASTEIGER

@<TRIPOS>ATOM
      1 C          46.8150   12.9974  -23.4521 C.2     1  UNL1        0.2490
      2 O          45.6511   12.5212  -23.3514 O.2     1  UNL1       -0.2699
      3 N          47.9539   12.1233  -23.3165 N.am    1  UNL1       -0.2760
      4 C          49.1611   12.5752  -22.6086 C.3     1  UNL1        0.0954
      5 C          49.7995   11.4271  -21.8051 C.3     1  UNL1        0.0399
      6 C          48.7470   10.4392  -21.2252 C.3     1  UNL1        0.0645
      7 C          47.8770    9.8377  -22.3827 C.3     1  UNL1        0.0399
      8 C          47.8408   10.7024  -23.6554 C.3     1  UNL1        0.0954
      9 C          47.8115   11.1767  -20.1950 C.3     1  UNL1        0.0477
     10 C          48.5400   11.4464  -18.9155 C.ar    1  UNL1        0.0220
     11 C          48.2742   12.3284  -17.8946 C.ar    1  UNL1        0.0923
     12 N          49.1120   12.0386  -16.8672 N.ar    1  UNL1       -0.2534
     13 N          49.8628   10.9874  -17.1857 N.ar    1  UNL1       -0.1651
     14 C          49.5119   10.6273  -18.4321 C.ar    1  UNL1        0.1515
     15 C          49.9978    9.5002  -19.2133 C.2     1  UNL1        0.2650
     16 O          50.8279    8.6821  -18.7362 O.2     1  UNL1       -0.2684
     17 N          49.4868    9.3434  -20.5479 N.am    1  UNL1       -0.3023
     18 H          49.8508    8.5408  -21.1102 H       1  UNL1        0.1497
     19 C          46.9700   16.9159  -26.4924 C.ar    1  UNL1        0.2256
     20 N          47.1278   18.2592  -26.6588 N.ar    1  UNL1       -0.2001
     21 C          47.3569   19.0974  -25.6149 C.ar    1  UNL1        0.1414
     22 CL         47.5491   20.8138  -25.9087 Cl      1  UNL1       -0.0612
     23 C          47.4380   18.5936  -24.3159 C.ar    1  UNL1        0.0310
     24 C          47.2815   17.2188  -24.1010 C.ar    1  UNL1        0.0069
     25 C          47.3521   16.6869  -22.8061 C.ar    1  UNL1        0.0004
     26 C          47.1966   15.3142  -22.6001 C.ar    1  UNL1        0.0045
     27 C          46.9782   14.4499  -23.6846 C.ar    1  UNL1        0.0537
     28 C          46.8874   14.9817  -24.9817 C.ar    1  UNL1        0.0092
     29 C          47.0449   16.3614  -25.2005 C.ar    1  UNL1        0.0534
     30 C          45.4701   16.0008  -28.2414 C.3     1  UNL1        0.2542
     31 O          46.7368   16.0921  -27.6005 O.3     1  UNL1       -0.4561
     32 C          49.1410   12.7171  -15.5560 C.3     1  UNL1        0.0867
     33 C          48.3150   14.0138  -15.6349 C.3     1  UNL1        0.0244
     34 C          48.5419   11.8079  -14.4611 C.3     1  UNL1        0.0244
     35 C          50.5972   13.0498  -15.1762 C.3     1  UNL1        0.0244
@<TRIPOS>BOND
     1    30    31    1
     2    31    19    1
     3    19    20   ar
     4    20    21   ar
     5    21    22    1
     6    21    23   ar
     7    23    24   ar
     8    24    25   ar
     9    25    26   ar
    10    26    27   ar
    11    27     1    1
    12     1     2    2
    13     1     3   am
    14     3     4    1
    15     4     5    1
    16     5     6    1
    17     6     7    1
    18     7     8    1
    19     6     9    1
    20     9    10    1
    21    10    11   ar
    22    11    12   ar
    23    12    32    1
    24    32    33    1
    25    32    34    1
    26    32    35    1
    27    12    13   ar
    28    13    14   ar
    29    14    15    1
    30    15    16    2
    31    15    17   am
    32    27    28   ar
    33    28    29   ar
    34    29    19   ar
    35    29    24   ar
    36     8     3    1
    37    14    10   ar
    38    17     6    1
    39    17    18    1
@<TRIPOS>MOLECULE
*****
 35 39 0 0 0
SMALL
GASTEIGER

@<TRIPOS>ATOM
      1 C          49.9478   15.5309  -24.8809 C.2     1  UNL1        0.2490
      2 O          51.0081   16.0034  -25.3748 O.2     1  UNL1       -0.2699
      3 N          50.0292   14.4716  -23.9059 N.am    1  UNL1       -0.2760
      4 C          49.0537   13.3711  -23.9166 C.3     1  UNL1        0.0954
      5 C          49.7169   12.0338  -23.5384 C.3     1  UNL1        0.0399
      6 C          51.1846   11.9249  -24.0424 C.3     1  UNL1        0.0645
      7 C          52.0408   13.1064  -23.4682 C.3     1  UNL1        0.0399
      8 C          51.2148   14.3378  -23.0557 C.3     1  UNL1        0.0954
      9 C          51.2284   11.9622  -25.6162 C.3     1  UNL1        0.0477
     10 C          50.7367   10.6707  -26.1914 C.ar    1  UNL1        0.0220
     11 C          50.2814   10.3593  -27.4510 C.ar    1  UNL1        0.0923
     12 N          50.1560    9.0101  -27.5251 N.ar    1  UNL1       -0.2534
     13 N          50.5520    8.4609  -26.3797 N.ar    1  UNL1       -0.1651
     14 C          50.9066    9.4732  -25.5698 C.ar    1  UNL1        0.1515
     15 C          51.4636    9.3987  -24.2278 C.2     1  UNL1        0.2650
     16 O          51.7125    8.2912  -23.6826 O.2     1  UNL1       -0.2684
     17 N          51.7336   10.6363  -23.5477 N.am    1  UNL1       -0.3023
     18 H          52.1192   10.5769  -22.5779 H       1  UNL1        0.1497
     19 C          46.0044   15.3728  -27.8887 C.ar    1  UNL1        0.2256
     20 N          44.8082   15.8994  -28.2745 N.ar    1  UNL1       -0.2001
     21 C          44.2632   16.9845  -27.6658 C.ar    1  UNL1        0.1414
     22 CL         42.7205   17.6038  -28.2186 Cl      1  UNL1       -0.0612
     23 C          44.9288   17.6016  -26.6055 C.ar    1  UNL1        0.0310
     24 C          46.1609   17.0920  -26.1777 C.ar    1  UNL1        0.0069
     25 C          46.8478   17.6885  -25.1114 C.ar    1  UNL1        0.0004
     26 C          48.0770   17.1753  -24.6915 C.ar    1  UNL1        0.0045
     27 C          48.6445   16.0647  -25.3360 C.ar    1  UNL1        0.0537
     28 C          47.9499   15.4523  -26.3925 C.ar    1  UNL1        0.0092
     29 C          46.7132   15.9622  -26.8246 C.ar    1  UNL1        0.0534
     30 C          46.1190   12.9230  -28.2512 C.3     1  UNL1        0.2542
     31 O          46.5260   14.2533  -28.5486 O.3     1  UNL1       -0.4561
     32 C          49.7316    8.2441  -28.7140 C.3     1  UNL1        0.0867
     33 C          48.5101    8.9299  -29.3525 C.3     1  UNL1        0.0244
     34 C          50.8709    8.1813  -29.7543 C.3     1  UNL1        0.0244
     35 C          49.3638    6.8057  -28.3002 C.3     1  UNL1        0.0244
@<TRIPOS>BOND
     1    30    31    1
     2    31    19    1
     3    19    20   ar
     4    20    21   ar
     5    21    22    1
     6    21    23   ar
     7    23    24   ar
     8    24    25   ar
     9    25    26   ar
    10    26    27   ar
    11    27     1    1
    12     1     2    2
    13     1     3   am
    14     3     4    1
    15     4     5    1
    16     5     6    1
    17     6     7    1
    18     7     8    1
    19     6     9    1
    20     9    10    1
    21    10    11   ar
    22    11    12   ar
    23    12    32    1
    24    32    33    1
    25    32    34    1
    26    32    35    1
    27    12    13   ar
    28    13    14   ar
    29    14    15    1
    30    15    16    2
    31    15    17   am
    32    27    28   ar
    33    28    29   ar
    34    29    19   ar
    35    29    24   ar
    36     8     3    1
    37    14    10   ar
    38    17     6    1
    39    17    18    1
