@<TRIPOS>MOLECULE
*****
 38 42 0 0 0
SMALL
GASTEIGER

@<TRIPOS>ATOM
      1 C         -20.8866   -8.1840   -9.3742 C.2     1  UNL1        0.2524
      2 O         -21.0273   -7.1444   -8.6742 O.2     1  UNL1       -0.2698
      3 N         -21.7863   -8.4430  -10.4737 N.am    1  UNL1       -0.2424
      4 C         -21.3592   -9.3040  -11.5872 C.3     1  UNL1        0.1437
      5 C         -22.0278  -10.6778  -11.4915 C.3     1  UNL1        0.2269
      6 O         -23.4210  -10.5774  -11.1982 O.3     1  UNL1       -0.4738
      7 C         -24.2414   -9.6254  -11.8053 C.ar    1  UNL1        0.1388
      8 C         -25.2495  -10.0518  -12.6731 C.ar    1  UNL1        0.0367
      9 C         -26.0587   -9.1214  -13.3262 C.ar    1  UNL1        0.0031
     10 C         -25.8806   -7.7452  -13.1074 C.ar    1  UNL1        0.0001
     11 C         -24.8830   -7.3207  -12.2112 C.ar    1  UNL1        0.0031
     12 C         -24.0533   -8.2496  -11.5588 C.ar    1  UNL1        0.0633
     13 C         -23.0986   -7.7640  -10.4817 C.3     1  UNL1        0.2658
     14 F         -23.7177   -7.9505   -9.2569 F       1  UNL1       -0.2095
     15 C         -26.7428   -6.7537  -13.7990 C.ar    1  UNL1        0.0015
     16 C         -26.1868   -5.5487  -14.3136 C.ar    1  UNL1        0.0016
     17 C         -26.9966   -4.6029  -14.9701 C.ar    1  UNL1        0.0206
     18 C         -28.3519   -4.8873  -15.0970 C.ar    1  UNL1        0.0985
     19 N         -29.3009   -4.1328  -15.6798 N.ar    1  UNL1       -0.2241
     20 C         -30.4239   -4.8810  -15.5164 C.ar    1  UNL1        0.1750
     21 N         -30.2055   -6.0489  -14.8655 N.ar    1  UNL1       -0.3349
     22 C         -28.8923   -6.0363  -14.6092 C.ar    1  UNL1        0.0757
     23 C         -28.1293   -6.9986  -13.9538 C.ar    1  UNL1        0.0185
     24 H         -30.9033   -6.7863  -14.6216 H       1  UNL1        0.1675
     25 C         -19.2866   -9.2011   -7.7120 C.ar    1  UNL1        0.0503
     26 C         -18.2459  -10.1139   -7.4471 C.ar    1  UNL1        0.0328
     27 C         -17.7264  -10.9246   -8.4640 C.ar    1  UNL1        0.1069
     28 C         -18.2565  -10.8432   -9.7550 C.ar    1  UNL1        0.0186
     29 C         -19.2910   -9.9505  -10.0325 C.ar    1  UNL1        0.0071
     30 C         -19.8121   -9.1297   -9.0234 C.ar    1  UNL1        0.0668
     31 S         -16.4319  -12.0635   -8.1074 S.O2    1  UNL1        0.0105
     32 C         -15.1878  -11.9572   -9.3732 C.3     1  UNL1        0.1816
     33 O         -15.8185  -11.7414   -6.7734 O.2     1  UNL1       -0.1686
     34 O         -16.9845  -13.4603   -8.0590 O.2     1  UNL1       -0.1686
     35 N         -19.8014   -8.3417   -6.6712 N.pl3   1  UNL1       -0.3325
     36 H         -20.6035   -7.7074   -6.8827 H       1  UNL1        0.1468
     37 C         -20.1649   -8.8440   -4.2894 C.3     1  UNL1        0.0229
     38 C         -19.2271   -8.2366   -5.3287 C.3     1  UNL1        0.0871
@<TRIPOS>BOND
     1    37    38    1
     2    38    35    1
     3    35    25    1
     4    25    26   ar
     5    26    27   ar
     6    27    31    1
     7    31    32    1
     8    31    33    2
     9    31    34    2
    10    27    28   ar
    11    28    29   ar
    12    29    30   ar
    13    30     1    1
    14     1     2    2
    15     1     3   am
    16     3     4    1
    17     4     5    1
    18     5     6    1
    19     6     7    1
    20     7     8   ar
    21     8     9   ar
    22     9    10   ar
    23    10    15    1
    24    15    16   ar
    25    16    17   ar
    26    17    18   ar
    27    18    19   ar
    28    19    20   ar
    29    20    21   ar
    30    21    22   ar
    31    22    23   ar
    32    10    11   ar
    33    11    12   ar
    34    12    13    1
    35    13    14    1
    36    30    25   ar
    37    13     3    1
    38    12     7   ar
    39    23    15   ar
    40    22    18   ar
    41    35    36    1
    42    21    24    1
@<TRIPOS>MOLECULE
*****
 38 42 0 0 0
SMALL
GASTEIGER

@<TRIPOS>ATOM
      1 C         -22.5485   -9.2135  -11.2260 C.2     1  UNL1        0.2524
      2 O         -23.6115   -9.4333  -10.5840 O.2     1  UNL1       -0.2698
      3 N         -22.5816   -8.4140  -12.4281 N.am    1  UNL1       -0.2424
      4 C         -21.3684   -7.7175  -12.8827 C.3     1  UNL1        0.1437
      5 C         -20.7549   -8.4366  -14.0868 C.3     1  UNL1        0.2269
      6 O         -21.7396   -8.7998  -15.0540 O.3     1  UNL1       -0.4738
      7 C         -22.7768   -7.9395  -15.4173 C.ar    1  UNL1        0.1388
      8 C         -22.8123   -7.4295  -16.7173 C.ar    1  UNL1        0.0367
      9 C         -23.8138   -6.5354  -17.0976 C.ar    1  UNL1        0.0031
     10 C         -24.8079   -6.1490  -16.1832 C.ar    1  UNL1        0.0001
     11 C         -24.7851   -6.6865  -14.8835 C.ar    1  UNL1        0.0031
     12 C         -23.7723   -7.5773  -14.4864 C.ar    1  UNL1        0.0633
     13 C         -23.8714   -8.2578  -13.1320 C.3     1  UNL1        0.2658
     14 F         -24.4387   -9.5057  -13.3296 F       1  UNL1       -0.2095
     15 C         -25.8763   -5.2001  -16.5869 C.ar    1  UNL1        0.0015
     16 C         -26.8200   -4.7274  -15.6319 C.ar    1  UNL1        0.0016
     17 C         -27.8363   -3.8282  -16.0056 C.ar    1  UNL1        0.0206
     18 C         -27.8845   -3.4207  -17.3344 C.ar    1  UNL1        0.0985
     19 N         -28.7626   -2.5773  -17.9061 N.ar    1  UNL1       -0.2241
     20 C         -28.3490   -2.5427  -19.2005 C.ar    1  UNL1        0.1750
     21 N         -27.2667   -3.3205  -19.4432 N.ar    1  UNL1       -0.3349
     22 C         -26.9867   -3.8664  -18.2541 C.ar    1  UNL1        0.0757
     23 C         -25.9661   -4.7552  -17.9286 C.ar    1  UNL1        0.0185
     24 H         -26.7684   -3.4597  -20.3502 H       1  UNL1        0.1675
     25 C         -20.8930  -11.1128  -11.1293 C.ar    1  UNL1        0.0503
     26 C         -19.6913  -11.6363  -10.6115 C.ar    1  UNL1        0.0328
     27 C         -18.9141  -10.8949   -9.7128 C.ar    1  UNL1        0.1069
     28 C         -19.3229   -9.6122   -9.3364 C.ar    1  UNL1        0.0186
     29 C         -20.5056   -9.0765   -9.8448 C.ar    1  UNL1        0.0071
     30 C         -21.2939   -9.8137  -10.7386 C.ar    1  UNL1        0.0668
     31 S         -17.4122  -11.5664   -9.0856 S.O2    1  UNL1        0.0105
     32 C         -17.3914  -11.4115   -7.3145 C.3     1  UNL1        0.1816
     33 O         -17.3019  -13.0172   -9.4631 O.2     1  UNL1       -0.1686
     34 O         -16.2424  -10.8260   -9.6707 O.2     1  UNL1       -0.1686
     35 N         -21.7117  -11.8892  -12.0315 N.pl3   1  UNL1       -0.3325
     36 H         -22.6500  -12.2194  -11.7137 H       1  UNL1        0.1468
     37 C         -22.4063  -12.1068  -14.3825 C.3     1  UNL1        0.0229
     38 C         -21.2892  -12.3200  -13.3653 C.3     1  UNL1        0.0871
@<TRIPOS>BOND
     1    37    38    1
     2    38    35    1
     3    35    25    1
     4    25    26   ar
     5    26    27   ar
     6    27    31    1
     7    31    32    1
     8    31    33    2
     9    31    34    2
    10    27    28   ar
    11    28    29   ar
    12    29    30   ar
    13    30     1    1
    14     1     2    2
    15     1     3   am
    16     3     4    1
    17     4     5    1
    18     5     6    1
    19     6     7    1
    20     7     8   ar
    21     8     9   ar
    22     9    10   ar
    23    10    15    1
    24    15    16   ar
    25    16    17   ar
    26    17    18   ar
    27    18    19   ar
    28    19    20   ar
    29    20    21   ar
    30    21    22   ar
    31    22    23   ar
    32    10    11   ar
    33    11    12   ar
    34    12    13    1
    35    13    14    1
    36    30    25   ar
    37    13     3    1
    38    12     7   ar
    39    23    15   ar
    40    22    18   ar
    41    35    36    1
    42    21    24    1
@<TRIPOS>MOLECULE
*****
 38 42 0 0 0
SMALL
GASTEIGER

@<TRIPOS>ATOM
      1 C         -21.9113   -6.4954  -11.5418 C.2     1  UNL1        0.2524
      2 O         -21.5942   -5.2863  -11.3738 O.2     1  UNL1       -0.2698
      3 N         -23.1153   -6.8339  -12.2635 N.am    1  UNL1       -0.2424
      4 C         -23.2374   -8.1458  -12.9176 C.3     1  UNL1        0.1437
      5 C         -24.1674   -9.0612  -12.1172 C.3     1  UNL1        0.2269
      6 O         -25.3563   -8.3887  -11.7031 O.3     1  UNL1       -0.4738
      7 C         -26.0546   -7.5255  -12.5489 C.ar    1  UNL1        0.1388
      8 C         -27.3361   -7.8820  -12.9754 C.ar    1  UNL1        0.0367
      9 C         -28.0421   -7.0588  -13.8535 C.ar    1  UNL1        0.0031
     10 C         -27.4800   -5.8539  -14.3070 C.ar    1  UNL1        0.0001
     11 C         -26.2009   -5.4846  -13.8531 C.ar    1  UNL1        0.0031
     12 C         -25.4757   -6.3137  -12.9793 C.ar    1  UNL1        0.0633
     13 C         -24.1714   -5.8079  -12.3874 C.3     1  UNL1        0.2658
     14 F         -24.4527   -5.2874  -11.1351 F       1  UNL1       -0.2095
     15 C         -28.2310   -4.9750  -15.2390 C.ar    1  UNL1        0.0015
     16 C         -29.6353   -4.7971  -15.0893 C.ar    1  UNL1        0.0016
     17 C         -30.3552   -3.9664  -15.9683 C.ar    1  UNL1        0.0206
     18 C         -29.6486   -3.3293  -16.9824 C.ar    1  UNL1        0.0985
     19 N         -30.1295   -2.5007  -17.9267 N.ar    1  UNL1       -0.2241
     20 C         -29.0187   -2.1812  -18.6421 C.ar    1  UNL1        0.1750
     21 N         -27.8903   -2.7724  -18.1812 N.ar    1  UNL1       -0.3349
     22 C         -28.3065   -3.4925  -17.1331 C.ar    1  UNL1        0.0757
     23 C         -27.5553   -4.3036  -16.2874 C.ar    1  UNL1        0.0185
     24 H         -26.9209   -2.6842  -18.5592 H       1  UNL1        0.1675
     25 C         -21.3301   -8.1211   -9.7042 C.ar    1  UNL1        0.0503
     26 C         -20.4517   -9.0993   -9.1965 C.ar    1  UNL1        0.0328
     27 C         -19.3085   -9.4775   -9.9114 C.ar    1  UNL1        0.1069
     28 C         -19.0415   -8.8928  -11.1527 C.ar    1  UNL1        0.0186
     29 C         -19.9040   -7.9285  -11.6728 C.ar    1  UNL1        0.0071
     30 C         -21.0464   -7.5380  -10.9613 C.ar    1  UNL1        0.0668
     31 S         -18.2301  -10.7079   -9.2608 S.O2    1  UNL1        0.0105
     32 C         -18.6870  -12.2973   -9.9137 C.3     1  UNL1        0.1816
     33 O         -16.8095  -10.3987   -9.6428 O.2     1  UNL1       -0.1686
     34 O         -18.3320  -10.7300   -7.7614 O.2     1  UNL1       -0.1686
     35 N         -22.4926   -7.7072   -8.9529 N.pl3   1  UNL1       -0.3325
     36 H         -22.8219   -6.7188   -9.0248 H       1  UNL1        0.1468
     37 C         -23.8940   -9.7212   -8.7607 C.3     1  UNL1        0.0229
     38 C         -23.2220   -8.5684   -8.0206 C.3     1  UNL1        0.0871
@<TRIPOS>BOND
     1    37    38    1
     2    38    35    1
     3    35    25    1
     4    25    26   ar
     5    26    27   ar
     6    27    31    1
     7    31    32    1
     8    31    33    2
     9    31    34    2
    10    27    28   ar
    11    28    29   ar
    12    29    30   ar
    13    30     1    1
    14     1     2    2
    15     1     3   am
    16     3     4    1
    17     4     5    1
    18     5     6    1
    19     6     7    1
    20     7     8   ar
    21     8     9   ar
    22     9    10   ar
    23    10    15    1
    24    15    16   ar
    25    16    17   ar
    26    17    18   ar
    27    18    19   ar
    28    19    20   ar
    29    20    21   ar
    30    21    22   ar
    31    22    23   ar
    32    10    11   ar
    33    11    12   ar
    34    12    13    1
    35    13    14    1
    36    30    25   ar
    37    13     3    1
    38    12     7   ar
    39    23    15   ar
    40    22    18   ar
    41    35    36    1
    42    21    24    1
@<TRIPOS>MOLECULE
*****
 38 42 0 0 0
SMALL
GASTEIGER

@<TRIPOS>ATOM
      1 C         -21.9712   -6.7887  -11.8943 C.2     1  UNL1        0.2524
      2 O         -21.1438   -5.8391  -11.9591 O.2     1  UNL1       -0.2698
      3 N         -21.5815   -8.0489  -11.3066 N.am    1  UNL1       -0.2424
      4 C         -22.6030   -8.9474  -10.7472 C.3     1  UNL1        0.1437
      5 C         -22.8450  -10.1348  -11.6827 C.3     1  UNL1        0.2269
      6 O         -21.6242  -10.6986  -12.1611 O.3     1  UNL1       -0.4738
      7 C         -20.5184  -10.8893  -11.3313 C.ar    1  UNL1        0.1388
      8 C         -20.1005  -12.1911  -11.0451 C.ar    1  UNL1        0.0367
      9 C         -19.0235  -12.4138  -10.1862 C.ar    1  UNL1        0.0031
     10 C         -18.3360  -11.3321   -9.6112 C.ar    1  UNL1        0.0001
     11 C         -18.7420  -10.0221   -9.9241 C.ar    1  UNL1        0.0031
     12 C         -19.8345   -9.7873  -10.7773 C.ar    1  UNL1        0.0633
     13 C         -20.1411   -8.3660  -11.2168 C.3     1  UNL1        0.2658
     14 F         -19.5522   -8.1732  -12.4554 F       1  UNL1       -0.2095
     15 C         -17.1877  -11.5669   -8.6994 C.ar    1  UNL1        0.0015
     16 C         -16.0172  -12.2271   -9.1686 C.ar    1  UNL1        0.0016
     17 C         -14.9243  -12.4544   -8.3113 C.ar    1  UNL1        0.0206
     18 C         -15.0291  -12.0129   -6.9968 C.ar    1  UNL1        0.0985
     19 N         -14.1167  -12.1251   -6.0148 N.ar    1  UNL1       -0.2241
     20 C         -14.7360  -11.5348   -4.9586 C.ar    1  UNL1        0.1750
     21 N         -15.9753  -11.0709   -5.2486 N.ar    1  UNL1       -0.3349
     22 C         -16.1433  -11.3806   -6.5394 C.ar    1  UNL1        0.0757
     23 C         -17.2466  -11.1348   -7.3518 C.ar    1  UNL1        0.0185
     24 H         -16.6428  -10.5844   -4.6098 H       1  UNL1        0.1675
     25 C         -23.7112   -7.1924  -13.6740 C.ar    1  UNL1        0.0503
     26 C         -25.0081   -6.9449  -14.1668 C.ar    1  UNL1        0.0328
     27 C         -25.8895   -6.1036  -13.4765 C.ar    1  UNL1        0.1069
     28 C         -25.4878   -5.5146  -12.2741 C.ar    1  UNL1        0.0186
     29 C         -24.2106   -5.7545  -11.7688 C.ar    1  UNL1        0.0071
     30 C         -23.3188   -6.5887  -12.4563 C.ar    1  UNL1        0.0668
     31 S         -27.5079   -5.8158  -14.1074 S.O2    1  UNL1        0.0105
     32 C         -27.3960   -4.8692  -15.6083 C.3     1  UNL1        0.1816
     33 O         -28.1884   -7.1258  -14.3907 O.2     1  UNL1       -0.1686
     34 O         -28.3203   -5.0601  -13.0936 O.2     1  UNL1       -0.1686
     35 N         -22.7900   -8.0346  -14.4015 N.pl3   1  UNL1       -0.3325
     36 H         -22.2132   -8.7310  -13.8793 H       1  UNL1        0.1468
     37 C         -21.0813   -8.2279  -16.1622 C.3     1  UNL1        0.0229
     38 C         -22.5445   -7.9374  -15.8414 C.3     1  UNL1        0.0871
@<TRIPOS>BOND
     1    37    38    1
     2    38    35    1
     3    35    25    1
     4    25    26   ar
     5    26    27   ar
     6    27    31    1
     7    31    32    1
     8    31    33    2
     9    31    34    2
    10    27    28   ar
    11    28    29   ar
    12    29    30   ar
    13    30     1    1
    14     1     2    2
    15     1     3   am
    16     3     4    1
    17     4     5    1
    18     5     6    1
    19     6     7    1
    20     7     8   ar
    21     8     9   ar
    22     9    10   ar
    23    10    15    1
    24    15    16   ar
    25    16    17   ar
    26    17    18   ar
    27    18    19   ar
    28    19    20   ar
    29    20    21   ar
    30    21    22   ar
    31    22    23   ar
    32    10    11   ar
    33    11    12   ar
    34    12    13    1
    35    13    14    1
    36    30    25   ar
    37    13     3    1
    38    12     7   ar
    39    23    15   ar
    40    22    18   ar
    41    35    36    1
    42    21    24    1
@<TRIPOS>MOLECULE
*****
 38 42 0 0 0
SMALL
GASTEIGER

@<TRIPOS>ATOM
      1 C         -23.6915   -6.9240  -16.9313 C.2     1  UNL1        0.2524
      2 O         -22.8372   -7.2541  -17.7983 O.2     1  UNL1       -0.2698
      3 N         -23.6310   -7.4896  -15.6040 N.am    1  UNL1       -0.2424
      4 C         -24.2333   -6.7723  -14.4698 C.3     1  UNL1        0.1437
      5 C         -25.5475   -7.4360  -14.0507 C.3     1  UNL1        0.2269
      6 O         -25.4325   -8.8568  -13.9796 O.3     1  UNL1       -0.4738
      7 C         -24.3163   -9.4850  -13.4251 C.ar    1  UNL1        0.1388
      8 C         -24.4655  -10.2173  -12.2449 C.ar    1  UNL1        0.0367
      9 C         -23.3604  -10.8222  -11.6452 C.ar    1  UNL1        0.0031
     10 C         -22.0868  -10.7161  -12.2286 C.ar    1  UNL1        0.0001
     11 C         -21.9454  -10.0016  -13.4320 C.ar    1  UNL1        0.0031
     12 C         -23.0503   -9.3768  -14.0369 C.ar    1  UNL1        0.0633
     13 C         -22.8891   -8.7531  -15.4125 C.3     1  UNL1        0.2658
     14 F         -23.3175   -9.6812  -16.3470 F       1  UNL1       -0.2095
     15 C         -20.9100  -11.3617  -11.5936 C.ar    1  UNL1        0.0015
     16 C         -20.5781  -12.7127  -11.8951 C.ar    1  UNL1        0.0016
     17 C         -19.4649  -13.3329  -11.2975 C.ar    1  UNL1        0.0206
     18 C         -18.7053  -12.5819  -10.4071 C.ar    1  UNL1        0.0985
     19 N         -17.6118  -12.9696   -9.7263 N.ar    1  UNL1       -0.2241
     20 C         -17.2870  -11.8560   -9.0176 C.ar    1  UNL1        0.1750
     21 N         -18.1258  -10.8142   -9.2330 N.ar    1  UNL1       -0.3349
     22 C         -19.0141  -11.2901  -10.1132 C.ar    1  UNL1        0.0757
     23 C         -20.1050  -10.6375  -10.6806 C.ar    1  UNL1        0.0185
     24 H         -18.0854   -9.8611   -8.8085 H       1  UNL1        0.1675
     25 C         -25.2228   -5.8921  -18.6482 C.ar    1  UNL1        0.0503
     26 C         -26.2312   -4.9559  -18.9532 C.ar    1  UNL1        0.0328
     27 C         -26.7534   -4.1155  -17.9621 C.ar    1  UNL1        0.1069
     28 C         -26.2840   -4.2160  -16.6493 C.ar    1  UNL1        0.0186
     29 C         -25.2917   -5.1416  -16.3290 C.ar    1  UNL1        0.0071
     30 C         -24.7575   -5.9816  -17.3154 C.ar    1  UNL1        0.0668
     31 S         -28.0187   -2.9593  -18.3651 S.O2    1  UNL1        0.0105
     32 C         -29.6086   -3.7223  -18.1387 C.3     1  UNL1        0.1816
     33 O         -27.9115   -1.7513  -17.4770 O.2     1  UNL1       -0.1686
     34 O         -27.8683   -2.5210  -19.7949 O.2     1  UNL1       -0.1686
     35 N         -24.6608   -6.7374  -19.6762 N.pl3   1  UNL1       -0.3325
     36 H         -23.6231   -6.8186  -19.7599 H       1  UNL1        0.1468
     37 C         -24.6940   -8.6718  -21.1974 C.3     1  UNL1        0.0229
     38 C         -25.4511   -7.4523  -20.6799 C.3     1  UNL1        0.0871
@<TRIPOS>BOND
     1    37    38    1
     2    38    35    1
     3    35    25    1
     4    25    26   ar
     5    26    27   ar
     6    27    31    1
     7    31    32    1
     8    31    33    2
     9    31    34    2
    10    27    28   ar
    11    28    29   ar
    12    29    30   ar
    13    30     1    1
    14     1     2    2
    15     1     3   am
    16     3     4    1
    17     4     5    1
    18     5     6    1
    19     6     7    1
    20     7     8   ar
    21     8     9   ar
    22     9    10   ar
    23    10    15    1
    24    15    16   ar
    25    16    17   ar
    26    17    18   ar
    27    18    19   ar
    28    19    20   ar
    29    20    21   ar
    30    21    22   ar
    31    22    23   ar
    32    10    11   ar
    33    11    12   ar
    34    12    13    1
    35    13    14    1
    36    30    25   ar
    37    13     3    1
    38    12     7   ar
    39    23    15   ar
    40    22    18   ar
    41    35    36    1
    42    21    24    1
@<TRIPOS>MOLECULE
*****
 38 42 0 0 0
SMALL
GASTEIGER

@<TRIPOS>ATOM
      1 C         -22.6642   -9.1014  -11.0688 C.2     1  UNL1        0.2524
      2 O         -23.7367   -9.3420  -10.4505 O.2     1  UNL1       -0.2698
      3 N         -22.6869   -8.3073  -12.2747 N.am    1  UNL1       -0.2424
      4 C         -21.4789   -7.5862  -12.7042 C.3     1  UNL1        0.1437
      5 C         -20.8223   -8.2963  -13.8908 C.3     1  UNL1        0.2269
      6 O         -21.7763   -8.6844  -14.8788 O.3     1  UNL1       -0.4738
      7 C         -22.8233   -7.8482  -15.2696 C.ar    1  UNL1        0.1388
      8 C         -22.8398   -7.3440  -16.5722 C.ar    1  UNL1        0.0367
      9 C         -23.8515   -6.4734  -16.9791 C.ar    1  UNL1        0.0031
     10 C         -24.8746   -6.1054  -16.0895 C.ar    1  UNL1        0.0001
     11 C         -24.8700   -6.6374  -14.7873 C.ar    1  UNL1        0.0031
     12 C         -23.8477   -7.5044  -14.3633 C.ar    1  UNL1        0.0633
     13 C         -23.9632   -8.1819  -13.0086 C.3     1  UNL1        0.2658
     14 F         -24.4986   -9.4426  -13.2140 F       1  UNL1       -0.2095
     15 C         -25.9537   -5.1814  -16.5216 C.ar    1  UNL1        0.0015
     16 C         -26.9509   -4.7554  -15.5996 C.ar    1  UNL1        0.0016
     17 C         -27.9778   -3.8802  -16.0005 C.ar    1  UNL1        0.0206
     18 C         -27.9823   -3.4492  -17.3226 C.ar    1  UNL1        0.0985
     19 N         -28.8611   -2.6218  -17.9164 N.ar    1  UNL1       -0.2241
     20 C         -28.3945   -2.5503  -19.1911 C.ar    1  UNL1        0.1750
     21 N         -27.2795   -3.2905  -19.4010 N.ar    1  UNL1       -0.3349
     22 C         -27.0333   -3.8502  -18.2109 C.ar    1  UNL1        0.0757
     23 C         -26.0004   -4.7140  -17.8579 C.ar    1  UNL1        0.0185
     24 H         -26.7394   -3.3974  -20.2882 H       1  UNL1        0.1675
     25 C         -20.6939   -9.0563   -9.4960 C.ar    1  UNL1        0.0503
     26 C         -19.4891   -9.6430   -9.0597 C.ar    1  UNL1        0.0328
     27 C         -18.9952  -10.8042   -9.6670 C.ar    1  UNL1        0.1069
     28 C         -19.7128  -11.4020  -10.7071 C.ar    1  UNL1        0.0186
     29 C         -20.9102  -10.8385  -11.1464 C.ar    1  UNL1        0.0071
     30 C         -21.4084   -9.6724  -10.5501 C.ar    1  UNL1        0.0668
     31 S         -17.4919  -11.5237   -9.0993 S.O2    1  UNL1        0.0105
     32 C         -17.4317  -11.4403   -7.3243 C.3     1  UNL1        0.1816
     33 O         -17.4134  -12.9598   -9.5364 O.2     1  UNL1       -0.1686
     34 O         -16.3225  -10.7788   -9.6794 O.2     1  UNL1       -0.1686
     35 N         -21.1879   -7.8407   -8.8917 N.pl3   1  UNL1       -0.3325
     36 H         -22.0323   -7.8815   -8.2788 H       1  UNL1        0.1468
     37 C         -21.7209   -5.5191   -9.5109 C.3     1  UNL1        0.0229
     38 C         -20.6247   -6.5112   -9.1335 C.3     1  UNL1        0.0871
@<TRIPOS>BOND
     1    37    38    1
     2    38    35    1
     3    35    25    1
     4    25    26   ar
     5    26    27   ar
     6    27    31    1
     7    31    32    1
     8    31    33    2
     9    31    34    2
    10    27    28   ar
    11    28    29   ar
    12    29    30   ar
    13    30     1    1
    14     1     2    2
    15     1     3   am
    16     3     4    1
    17     4     5    1
    18     5     6    1
    19     6     7    1
    20     7     8   ar
    21     8     9   ar
    22     9    10   ar
    23    10    15    1
    24    15    16   ar
    25    16    17   ar
    26    17    18   ar
    27    18    19   ar
    28    19    20   ar
    29    20    21   ar
    30    21    22   ar
    31    22    23   ar
    32    10    11   ar
    33    11    12   ar
    34    12    13    1
    35    13    14    1
    36    30    25   ar
    37    13     3    1
    38    12     7   ar
    39    23    15   ar
    40    22    18   ar
    41    35    36    1
    42    21    24    1
@<TRIPOS>MOLECULE
*****
 38 42 0 0 0
SMALL
GASTEIGER

@<TRIPOS>ATOM
      1 C         -22.8988   -9.3474  -10.8395 C.2     1  UNL1        0.2524
      2 O         -23.8509  -10.1742  -10.8228 O.2     1  UNL1       -0.2698
      3 N         -22.5721   -8.6446  -12.0580 N.am    1  UNL1       -0.2424
      4 C         -21.8710   -7.3530  -11.9976 C.3     1  UNL1        0.1437
      5 C         -20.4030   -7.5188  -12.3991 C.3     1  UNL1        0.2269
      6 O         -20.2539   -8.3256  -13.5669 O.3     1  UNL1       -0.4738
      7 C         -21.0983   -8.1981  -14.6709 C.ar    1  UNL1        0.1388
      8 C         -20.5732   -7.7276  -15.8768 C.ar    1  UNL1        0.0367
      9 C         -21.4013   -7.5510  -16.9859 C.ar    1  UNL1        0.0031
     10 C         -22.7698   -7.8589  -16.9088 C.ar    1  UNL1        0.0001
     11 C         -23.2893   -8.3591  -15.7011 C.ar    1  UNL1        0.0031
     12 C         -22.4661   -8.5275  -14.5738 C.ar    1  UNL1        0.0633
     13 C         -23.0262   -9.2177  -13.3420 C.3     1  UNL1        0.2658
     14 F         -22.6574  -10.5512  -13.4038 F       1  UNL1       -0.2095
     15 C         -23.6521   -7.6746  -18.0889 C.ar    1  UNL1        0.0015
     16 C         -24.3677   -6.4578  -18.2718 C.ar    1  UNL1        0.0016
     17 C         -25.2065   -6.2746  -19.3870 C.ar    1  UNL1        0.0206
     18 C         -25.3101   -7.3196  -20.2986 C.ar    1  UNL1        0.0985
     19 N         -26.0476   -7.3623  -21.4227 N.ar    1  UNL1       -0.2241
     20 C         -25.7769   -8.6003  -21.9145 C.ar    1  UNL1        0.1750
     21 N         -24.9144   -9.3099  -21.1478 N.ar    1  UNL1       -0.3349
     22 C         -24.6297   -8.4858  -20.1328 C.ar    1  UNL1        0.0757
     23 C         -23.7895   -8.7099  -19.0458 C.ar    1  UNL1        0.0185
     24 H         -24.5566  -10.2767  -21.3135 H       1  UNL1        0.1675
     25 C         -20.7659   -9.5436   -9.5091 C.ar    1  UNL1        0.0503
     26 C         -20.0831   -9.3392   -8.2933 C.ar    1  UNL1        0.0328
     27 C         -20.7335   -8.7684   -7.1922 C.ar    1  UNL1        0.1069
     28 C         -22.0714   -8.3786   -7.3023 C.ar    1  UNL1        0.0186
     29 C         -22.7598   -8.5673   -8.5001 C.ar    1  UNL1        0.0071
     30 C         -22.1197   -9.1447   -9.6050 C.ar    1  UNL1        0.0668
     31 S         -19.8575   -8.5151   -5.6861 S.O2    1  UNL1        0.0105
     32 C         -20.9090   -8.9336   -4.3148 C.3     1  UNL1        0.1816
     33 O         -18.6278   -9.3790   -5.6565 O.2     1  UNL1       -0.1686
     34 O         -19.4379   -7.0758   -5.5794 O.2     1  UNL1       -0.1686
     35 N         -20.1052  -10.1616  -10.6354 N.pl3   1  UNL1       -0.3325
     36 H         -19.9651   -9.6101  -11.5110 H       1  UNL1        0.1468
     37 C         -20.5098  -12.3643  -11.6560 C.3     1  UNL1        0.0229
     38 C         -19.6682  -11.5583  -10.6709 C.3     1  UNL1        0.0871
@<TRIPOS>BOND
     1    37    38    1
     2    38    35    1
     3    35    25    1
     4    25    26   ar
     5    26    27   ar
     6    27    31    1
     7    31    32    1
     8    31    33    2
     9    31    34    2
    10    27    28   ar
    11    28    29   ar
    12    29    30   ar
    13    30     1    1
    14     1     2    2
    15     1     3   am
    16     3     4    1
    17     4     5    1
    18     5     6    1
    19     6     7    1
    20     7     8   ar
    21     8     9   ar
    22     9    10   ar
    23    10    15    1
    24    15    16   ar
    25    16    17   ar
    26    17    18   ar
    27    18    19   ar
    28    19    20   ar
    29    20    21   ar
    30    21    22   ar
    31    22    23   ar
    32    10    11   ar
    33    11    12   ar
    34    12    13    1
    35    13    14    1
    36    30    25   ar
    37    13     3    1
    38    12     7   ar
    39    23    15   ar
    40    22    18   ar
    41    35    36    1
    42    21    24    1
@<TRIPOS>MOLECULE
*****
 38 42 0 0 0
SMALL
GASTEIGER

@<TRIPOS>ATOM
      1 C         -21.4283  -10.1680  -12.6126 C.2     1  UNL1        0.2524
      2 O         -21.3883  -10.6598  -13.7732 O.2     1  UNL1       -0.2698
      3 N         -22.4271   -9.1795  -12.2797 N.am    1  UNL1       -0.2424
      4 C         -22.8367   -8.9893  -10.8799 C.3     1  UNL1        0.1437
      5 C         -22.2289   -7.7042  -10.3117 C.3     1  UNL1        0.2269
      6 O         -22.3507   -6.6072  -11.2165 O.3     1  UNL1       -0.4738
      7 C         -23.5183   -6.3698  -11.9434 C.ar    1  UNL1        0.1388
      8 C         -24.2647   -5.2204  -11.6730 C.ar    1  UNL1        0.0367
      9 C         -25.4576   -4.9770  -12.3548 C.ar    1  UNL1        0.0031
     10 C         -25.9149   -5.8760  -13.3327 C.ar    1  UNL1        0.0001
     11 C         -25.1461   -7.0178  -13.6221 C.ar    1  UNL1        0.0031
     12 C         -23.9499   -7.2792  -12.9310 C.ar    1  UNL1        0.0633
     13 C         -23.0695   -8.4325  -13.3809 C.3     1  UNL1        0.2658
     14 F         -22.0917   -7.9141  -14.2136 F       1  UNL1       -0.2095
     15 C         -27.1825   -5.6171  -14.0615 C.ar    1  UNL1        0.0015
     16 C         -28.2829   -6.5111  -13.9352 C.ar    1  UNL1        0.0016
     17 C         -29.4880   -6.2739  -14.6227 C.ar    1  UNL1        0.0206
     18 C         -29.5638   -5.1408  -15.4252 C.ar    1  UNL1        0.0985
     19 N         -30.6064   -4.7244  -16.1662 N.ar    1  UNL1       -0.2241
     20 C         -30.1350   -3.5841  -16.7365 C.ar    1  UNL1        0.1750
     21 N         -28.8621   -3.2876  -16.3802 N.ar    1  UNL1       -0.3349
     22 C         -28.5179   -4.2803  -15.5517 C.ar    1  UNL1        0.0757
     23 C         -27.3086   -4.4756  -14.8905 C.ar    1  UNL1        0.0185
     24 H         -28.2855   -2.4718  -16.6840 H       1  UNL1        0.1675
     25 C         -20.1385  -11.9705  -11.4105 C.ar    1  UNL1        0.0503
     26 C         -19.1774  -12.3189  -10.4404 C.ar    1  UNL1        0.0328
     27 C         -18.5240  -11.3325   -9.6911 C.ar    1  UNL1        0.1069
     28 C         -18.8129   -9.9838   -9.9181 C.ar    1  UNL1        0.0186
     29 C         -19.7560   -9.6215  -10.8790 C.ar    1  UNL1        0.0071
     30 C         -20.4207  -10.6016  -11.6283 C.ar    1  UNL1        0.0668
     31 S         -17.3208  -11.7915   -8.4904 S.O2    1  UNL1        0.0105
     32 C         -17.6404  -10.9217   -6.9730 C.3     1  UNL1        0.1816
     33 O         -17.3833  -13.2726   -8.2418 O.2     1  UNL1       -0.1686
     34 O         -15.9468  -11.4446   -8.9912 O.2     1  UNL1       -0.1686
     35 N         -20.8363  -12.9884  -12.1615 N.pl3   1  UNL1       -0.3325
     36 H         -21.7978  -13.2708  -11.8679 H       1  UNL1        0.1468
     37 C         -21.2477  -13.8005  -14.4481 C.3     1  UNL1        0.0229
     38 C         -20.2592  -13.7236  -13.2882 C.3     1  UNL1        0.0871
@<TRIPOS>BOND
     1    37    38    1
     2    38    35    1
     3    35    25    1
     4    25    26   ar
     5    26    27   ar
     6    27    31    1
     7    31    32    1
     8    31    33    2
     9    31    34    2
    10    27    28   ar
    11    28    29   ar
    12    29    30   ar
    13    30     1    1
    14     1     2    2
    15     1     3   am
    16     3     4    1
    17     4     5    1
    18     5     6    1
    19     6     7    1
    20     7     8   ar
    21     8     9   ar
    22     9    10   ar
    23    10    15    1
    24    15    16   ar
    25    16    17   ar
    26    17    18   ar
    27    18    19   ar
    28    19    20   ar
    29    20    21   ar
    30    21    22   ar
    31    22    23   ar
    32    10    11   ar
    33    11    12   ar
    34    12    13    1
    35    13    14    1
    36    30    25   ar
    37    13     3    1
    38    12     7   ar
    39    23    15   ar
    40    22    18   ar
    41    35    36    1
    42    21    24    1
@<TRIPOS>MOLECULE
*****
 38 42 0 0 0
SMALL
GASTEIGER

@<TRIPOS>ATOM
      1 C         -22.3519   -6.1137  -11.8416 C.2     1  UNL1        0.2524
      2 O         -22.0570   -4.9009  -11.6609 O.2     1  UNL1       -0.2698
      3 N         -23.5703   -6.4668  -12.5316 N.am    1  UNL1       -0.2424
      4 C         -23.6834   -7.7691  -13.2061 C.3     1  UNL1        0.1437
      5 C         -24.5669   -8.7200  -12.3944 C.3     1  UNL1        0.2269
      6 O         -25.7568   -8.0828  -11.9308 O.3     1  UNL1       -0.4738
      7 C         -26.5008   -7.2207  -12.7379 C.ar    1  UNL1        0.1388
      8 C         -27.7868   -7.5990  -13.1308 C.ar    1  UNL1        0.0367
      9 C         -28.5386   -6.7766  -13.9708 C.ar    1  UNL1        0.0031
     10 C         -28.0185   -5.5510  -14.4190 C.ar    1  UNL1        0.0001
     11 C         -26.7342   -5.1605  -13.9984 C.ar    1  UNL1        0.0031
     12 C         -25.9633   -5.9884  -13.1634 C.ar    1  UNL1        0.0633
     13 C         -24.6526   -5.4634  -12.6031 C.3     1  UNL1        0.2658
     14 F         -24.9057   -4.9722  -11.3332 F       1  UNL1       -0.2095
     15 C         -28.8181   -4.6729  -15.3104 C.ar    1  UNL1        0.0015
     16 C         -30.2102   -4.4864  -15.0796 C.ar    1  UNL1        0.0016
     17 C         -30.9761   -3.6564  -15.9197 C.ar    1  UNL1        0.0206
     18 C         -30.3268   -3.0288  -16.9772 C.ar    1  UNL1        0.0985
     19 N         -30.8579   -2.2027  -17.8963 N.ar    1  UNL1       -0.2241
     20 C         -29.7893   -1.8934  -18.6774 C.ar    1  UNL1        0.1750
     21 N         -28.6389   -2.4883  -18.2802 N.ar    1  UNL1       -0.3349
     22 C         -28.9968   -3.2004  -17.2053 C.ar    1  UNL1        0.0757
     23 C         -28.2015   -4.0111  -16.4004 C.ar    1  UNL1        0.0185
     24 H         -27.6929   -2.4077  -18.7148 H       1  UNL1        0.1675
     25 C         -20.5767   -7.8773  -12.1516 C.ar    1  UNL1        0.0503
     26 C         -19.7494   -8.8651  -11.5807 C.ar    1  UNL1        0.0328
     27 C         -19.7960   -9.1339  -10.2071 C.ar    1  UNL1        0.1069
     28 C         -20.6595   -8.4030   -9.3861 C.ar    1  UNL1        0.0186
     29 C         -21.4798   -7.4172   -9.9336 C.ar    1  UNL1        0.0071
     30 C         -21.4458   -7.1463  -11.3081 C.ar    1  UNL1        0.0668
     31 S         -18.7469  -10.3671   -9.5151 S.O2    1  UNL1        0.0105
     32 C         -19.2358  -11.9653  -10.1217 C.3     1  UNL1        0.1816
     33 O         -17.3186  -10.1003   -9.9002 O.2     1  UNL1       -0.1686
     34 O         -18.8547  -10.3416   -8.0162 O.2     1  UNL1       -0.1686
     35 N         -20.5526   -7.6212  -13.5732 N.pl3   1  UNL1       -0.3325
     36 H         -20.2550   -6.6815  -13.9180 H       1  UNL1        0.1468
     37 C         -20.8959   -7.9654  -15.9859 C.3     1  UNL1        0.0229
     38 C         -20.9908   -8.5775  -14.5913 C.3     1  UNL1        0.0871
@<TRIPOS>BOND
     1    37    38    1
     2    38    35    1
     3    35    25    1
     4    25    26   ar
     5    26    27   ar
     6    27    31    1
     7    31    32    1
     8    31    33    2
     9    31    34    2
    10    27    28   ar
    11    28    29   ar
    12    29    30   ar
    13    30     1    1
    14     1     2    2
    15     1     3   am
    16     3     4    1
    17     4     5    1
    18     5     6    1
    19     6     7    1
    20     7     8   ar
    21     8     9   ar
    22     9    10   ar
    23    10    15    1
    24    15    16   ar
    25    16    17   ar
    26    17    18   ar
    27    18    19   ar
    28    19    20   ar
    29    20    21   ar
    30    21    22   ar
    31    22    23   ar
    32    10    11   ar
    33    11    12   ar
    34    12    13    1
    35    13    14    1
    36    30    25   ar
    37    13     3    1
    38    12     7   ar
    39    23    15   ar
    40    22    18   ar
    41    35    36    1
    42    21    24    1
