@<TRIPOS>MOLECULE
*****
 50 55 0 0 0
SMALL
GASTEIGER

@<TRIPOS>ATOM
      1 C          -9.0183  -11.6338   30.7025 C.2     1  UNL1        0.2483
      2 O          -9.3486  -10.4619   30.3712 O.2     1  UNL1       -0.2701
      3 N          -9.1007  -12.0263   32.0835 N.am    1  UNL1       -0.2945
      4 H          -9.1340  -13.0445   32.3126 H       1  UNL1        0.1501
      5 C          -7.8134  -14.3667   27.5850 C.ar    1  UNL1        0.0502
      6 C          -9.1421  -14.3195   28.0366 C.ar    1  UNL1        0.0148
      7 C          -9.5165  -13.4365   29.0515 C.ar    1  UNL1        0.0080
      8 C          -8.5725  -12.5816   29.6479 C.ar    1  UNL1        0.0808
      9 C          -7.2388  -12.6234   29.1887 C.ar    1  UNL1        0.1457
     10 F          -6.2918  -11.7891   29.6830 F       1  UNL1       -0.2040
     11 C          -6.8697  -13.5070   28.1696 C.ar    1  UNL1        0.0443
     12 N          -6.8345  -16.7204   24.1941 N.pl3   1  UNL1       -0.3043
     13 C          -7.7469  -17.3257   25.1663 C.3     1  UNL1        0.1122
     14 C          -8.4131  -16.2310   26.0031 C.3     1  UNL1        0.1122
     15 N          -7.4277  -15.2678   26.5241 N.pl3   1  UNL1       -0.3040
     16 C          -6.0238  -15.3379   26.0893 C.3     1  UNL1        0.1122
     17 C          -5.9322  -15.6313   24.5874 C.3     1  UNL1        0.1122
     18 C          -4.1508  -17.1826   23.1465 C.3     1  UNL1        0.0320
     19 C          -5.3839  -17.6088   22.3816 C.ar    1  UNL1       -0.0124
     20 C          -5.2735  -18.2877   21.1328 C.ar    1  UNL1       -0.0244
     21 C          -6.4490  -18.5743   20.4089 C.ar    1  UNL1        0.0069
     22 C          -7.7050  -18.2555   20.9210 C.ar    1  UNL1        0.0586
     23 CL         -9.1499  -18.6348   20.0011 Cl      1  UNL1       -0.0822
     24 C          -7.8152  -17.6463   22.1667 C.ar    1  UNL1        0.0256
     25 C          -6.6709  -17.3277   22.9047 C.ar    1  UNL1        0.0444
     26 C          -3.9238  -18.6785   20.5317 C.3     1  UNL1        0.0221
     27 C          -3.9109  -20.1396   20.0579 C.3     1  UNL1        0.0047
     28 C          -3.5446  -17.7274   19.3915 C.3     1  UNL1        0.0047
     29 C          -9.2131  -11.0481   33.1756 C.3     1  UNL1        0.1535
     30 C          -8.4378   -9.7998   32.8352 C.2     1  UNL1        0.2443
     31 O          -9.0596   -8.7304   32.5861 O.2     1  UNL1       -0.2730
     32 N          -7.0014   -9.8122   32.8697 N.am    1  UNL1       -0.2825
     33 H          -6.5312  -10.5894   33.3866 H       1  UNL1        0.1549
     34 C          -6.1752   -8.7636   32.3351 C.ar    1  UNL1        0.0535
     35 C          -5.4279   -7.9618   33.2090 C.ar    1  UNL1        0.0353
     36 C          -4.6062   -6.9566   32.6936 C.ar    1  UNL1        0.1002
     37 N          -4.5195   -6.7685   31.3503 N.ar    1  UNL1       -0.2422
     38 C          -5.2164   -7.5424   30.4769 C.ar    1  UNL1        0.1002
     39 C          -6.0508   -8.5582   30.9504 C.ar    1  UNL1        0.0353
     40 C         -10.6873  -10.6891   33.4444 C.3     1  UNL1        0.0569
     41 C         -11.6259  -11.7018   32.8525 C.ar    1  UNL1       -0.0017
     42 C         -12.4859  -11.4956   31.7773 C.ar    1  UNL1        0.0681
     43 N         -13.2775  -12.5762   31.5908 N.ar    1  UNL1       -0.3523
     44 C         -12.9304  -13.4599   32.5422 C.ar    1  UNL1        0.0563
     45 C         -13.4985  -14.7107   32.7798 C.ar    1  UNL1        0.0170
     46 C         -13.0031  -15.4639   33.8598 C.ar    1  UNL1        0.0015
     47 C         -11.9605  -14.9574   34.6664 C.ar    1  UNL1        0.0001
     48 C         -11.4054  -13.6925   34.4019 C.ar    1  UNL1        0.0012
     49 C         -11.9223  -12.9648   33.3297 C.ar    1  UNL1        0.0131
     50 H         -14.0242  -12.6864   30.8693 H       1  UNL1        0.1660
@<TRIPOS>BOND
     1    18    19    1
     2    19    20   ar
     3    20    26    1
     4    26    27    1
     5    26    28    1
     6    20    21   ar
     7    21    22   ar
     8    22    23    1
     9    22    24   ar
    10    24    25   ar
    11    25    12    1
    12    12    13    1
    13    13    14    1
    14    14    15    1
    15    15     5    1
    16     5     6   ar
    17     6     7   ar
    18     7     8   ar
    19     8     1    1
    20     1     2    2
    21     1     3   am
    22     3    29    1
    23    29    40    1
    24    40    41    1
    25    41    42   ar
    26    42    43   ar
    27    43    44   ar
    28    44    45   ar
    29    45    46   ar
    30    46    47   ar
    31    47    48   ar
    32    48    49   ar
    33    29    30    1
    34    30    31    2
    35    30    32   am
    36    32    34    1
    37    34    35   ar
    38    35    36   ar
    39    36    37   ar
    40    37    38   ar
    41    38    39   ar
    42     8     9   ar
    43     9    10    1
    44     9    11   ar
    45    15    16    1
    46    16    17    1
    47    25    19   ar
    48    17    12    1
    49    11     5   ar
    50    49    41   ar
    51    39    34   ar
    52    49    44   ar
    53     3     4    1
    54    43    50    1
    55    32    33    1
@<TRIPOS>MOLECULE
*****
 50 55 0 0 0
SMALL
GASTEIGER

@<TRIPOS>ATOM
      1 C          -9.0672  -13.2029   29.4746 C.2     1  UNL1        0.2483
      2 O         -10.2079  -13.6733   29.7385 O.2     1  UNL1       -0.2701
      3 N          -8.5863  -12.0640   30.2092 N.am    1  UNL1       -0.2945
      4 H          -7.5598  -11.8729   30.2196 H       1  UNL1        0.1501
      5 C          -6.7607  -15.0931   26.3527 C.ar    1  UNL1        0.0502
      6 C          -8.1127  -15.4146   26.5535 C.ar    1  UNL1        0.0148
      7 C          -8.8448  -14.8017   27.5724 C.ar    1  UNL1        0.0080
      8 C          -8.2446  -13.8562   28.4230 C.ar    1  UNL1        0.0808
      9 C          -6.8880  -13.5272   28.2162 C.ar    1  UNL1        0.1457
     10 F          -6.2642  -12.5855   28.9653 F       1  UNL1       -0.2040
     11 C          -6.1601  -14.1413   27.1922 C.ar    1  UNL1        0.0443
     12 N          -4.8538  -17.2154   23.2132 N.pl3   1  UNL1       -0.3043
     13 C          -4.0869  -17.0530   24.4500 C.3     1  UNL1        0.1122
     14 C          -5.0378  -16.7746   25.6165 C.3     1  UNL1        0.1122
     15 N          -6.0062  -15.7139   25.2889 N.pl3   1  UNL1       -0.3040
     16 C          -6.0801  -15.1769   23.9210 C.3     1  UNL1        0.1122
     17 C          -5.9549  -16.3013   22.8864 C.3     1  UNL1        0.1122
     18 C          -2.2059  -16.8825   22.0337 C.3     1  UNL1        0.0320
     19 C          -3.1030  -18.0389   21.6526 C.ar    1  UNL1       -0.0124
     20 C          -2.6666  -19.0307   20.7261 C.ar    1  UNL1       -0.0244
     21 C          -3.5743  -20.0322   20.3249 C.ar    1  UNL1        0.0069
     22 C          -4.8591  -20.0951   20.8605 C.ar    1  UNL1        0.0586
     23 CL         -5.9621  -21.3599   20.3493 Cl      1  UNL1       -0.0822
     24 C          -5.2647  -19.1619   21.8090 C.ar    1  UNL1        0.0256
     25 C          -4.3995  -18.1416   22.2162 C.ar    1  UNL1        0.0444
     26 C          -1.2632  -19.0223   20.1208 C.3     1  UNL1        0.0221
     27 C          -0.9479  -17.6883   19.4278 C.3     1  UNL1        0.0047
     28 C          -0.2128  -19.3495   21.1876 C.3     1  UNL1        0.0047
     29 C          -9.4772  -11.2047   31.0030 C.3     1  UNL1        0.1535
     30 C          -9.6217   -9.8567   30.3421 C.2     1  UNL1        0.2443
     31 O          -9.4251   -9.7489   29.1003 O.2     1  UNL1       -0.2730
     32 N         -10.0539   -8.7210   31.1090 N.am    1  UNL1       -0.2825
     33 H         -10.5175   -8.8996   32.0286 H       1  UNL1        0.1549
     34 C          -9.9907   -7.3630   30.6402 C.ar    1  UNL1        0.0535
     35 C         -11.1651   -6.6002   30.5777 C.ar    1  UNL1        0.0353
     36 C         -11.1058   -5.2734   30.1448 C.ar    1  UNL1        0.1002
     37 N          -9.9125   -4.7206   29.8017 N.ar    1  UNL1       -0.2422
     38 C          -8.7542   -5.4286   29.8705 C.ar    1  UNL1        0.1002
     39 C          -8.7690   -6.7589   30.2973 C.ar    1  UNL1        0.0353
     40 C         -10.8643  -11.8545   31.1706 C.3     1  UNL1        0.0569
     41 C         -11.0040  -12.5384   32.5008 C.ar    1  UNL1       -0.0017
     42 C         -10.1488  -12.3992   33.5905 C.ar    1  UNL1        0.0681
     43 N         -10.4982  -13.2544   34.5783 N.ar    1  UNL1       -0.3523
     44 C         -11.5614  -13.9372   34.1201 C.ar    1  UNL1        0.0563
     45 C         -12.2494  -14.9621   34.7682 C.ar    1  UNL1        0.0170
     46 C         -13.3197  -15.5695   34.0867 C.ar    1  UNL1        0.0015
     47 C         -13.6765  -15.1415   32.7892 C.ar    1  UNL1        0.0001
     48 C         -12.9652  -14.1039   32.1605 C.ar    1  UNL1        0.0012
     49 C         -11.9035  -13.5258   32.8570 C.ar    1  UNL1        0.0131
     50 H         -10.0194  -13.3752   35.4983 H       1  UNL1        0.1660
@<TRIPOS>BOND
     1    18    19    1
     2    19    20   ar
     3    20    26    1
     4    26    27    1
     5    26    28    1
     6    20    21   ar
     7    21    22   ar
     8    22    23    1
     9    22    24   ar
    10    24    25   ar
    11    25    12    1
    12    12    13    1
    13    13    14    1
    14    14    15    1
    15    15     5    1
    16     5     6   ar
    17     6     7   ar
    18     7     8   ar
    19     8     1    1
    20     1     2    2
    21     1     3   am
    22     3    29    1
    23    29    40    1
    24    40    41    1
    25    41    42   ar
    26    42    43   ar
    27    43    44   ar
    28    44    45   ar
    29    45    46   ar
    30    46    47   ar
    31    47    48   ar
    32    48    49   ar
    33    29    30    1
    34    30    31    2
    35    30    32   am
    36    32    34    1
    37    34    35   ar
    38    35    36   ar
    39    36    37   ar
    40    37    38   ar
    41    38    39   ar
    42     8     9   ar
    43     9    10    1
    44     9    11   ar
    45    15    16    1
    46    16    17    1
    47    25    19   ar
    48    17    12    1
    49    11     5   ar
    50    49    41   ar
    51    39    34   ar
    52    49    44   ar
    53     3     4    1
    54    43    50    1
    55    32    33    1
@<TRIPOS>MOLECULE
*****
 50 55 0 0 0
SMALL
GASTEIGER

@<TRIPOS>ATOM
      1 C          -9.1328  -13.3613   29.3572 C.2     1  UNL1        0.2483
      2 O         -10.3121  -13.7750   29.5319 O.2     1  UNL1       -0.2701
      3 N          -8.6247  -12.3056   30.1911 N.am    1  UNL1       -0.2945
      4 H          -7.5906  -12.1808   30.2650 H       1  UNL1        0.1501
      5 C          -6.7827  -15.1902   26.2314 C.ar    1  UNL1        0.0502
      6 C          -8.1455  -15.4907   26.3865 C.ar    1  UNL1        0.0148
      7 C          -8.8920  -14.8983   27.4070 C.ar    1  UNL1        0.0080
      8 C          -8.2959  -13.9949   28.3049 C.ar    1  UNL1        0.0808
      9 C          -6.9282  -13.6867   28.1443 C.ar    1  UNL1        0.1457
     10 F          -6.3061  -12.7839   28.9413 F       1  UNL1       -0.2040
     11 C          -6.1859  -14.2800   27.1184 C.ar    1  UNL1        0.0443
     12 N          -4.8260  -17.2539   23.0836 N.pl3   1  UNL1       -0.3043
     13 C          -4.0685  -17.0910   24.3260 C.3     1  UNL1        0.1122
     14 C          -5.0299  -16.8380   25.4897 C.3     1  UNL1        0.1122
     15 N          -6.0129  -15.7895   25.1663 N.pl3   1  UNL1       -0.3040
     16 C          -6.0877  -15.2412   23.8029 C.3     1  UNL1        0.1122
     17 C          -5.9393  -16.3540   22.7589 C.3     1  UNL1        0.1122
     18 C          -2.1851  -16.8578   21.9079 C.3     1  UNL1        0.0320
     19 C          -3.0576  -18.0302   21.5187 C.ar    1  UNL1       -0.0124
     20 C          -2.6001  -19.0065   20.5859 C.ar    1  UNL1       -0.0244
     21 C          -3.4865  -20.0242   20.1776 C.ar    1  UNL1        0.0069
     22 C          -4.7698  -20.1175   20.7120 C.ar    1  UNL1        0.0586
     23 CL         -5.8459  -21.4018   20.1918 Cl      1  UNL1       -0.0822
     24 C          -5.1954  -19.1993   21.6664 C.ar    1  UNL1        0.0256
     25 C          -4.3519  -18.1638   22.0808 C.ar    1  UNL1        0.0444
     26 C          -1.1969  -18.9648   19.9815 C.3     1  UNL1        0.0221
     27 C          -0.8951  -17.6063   19.3313 C.3     1  UNL1        0.0047
     28 C          -0.1432  -19.3151   21.0376 C.3     1  UNL1        0.0047
     29 C          -9.5037  -11.4457   30.9974 C.3     1  UNL1        0.1535
     30 C         -10.1365  -12.2470   32.1076 C.2     1  UNL1        0.2443
     31 O          -9.5811  -12.2870   33.2399 O.2     1  UNL1       -0.2730
     32 N         -11.4009  -12.8963   31.8968 N.am    1  UNL1       -0.2825
     33 H         -11.9830  -12.5825   31.0875 H       1  UNL1        0.1549
     34 C         -11.9642  -13.8697   32.7930 C.ar    1  UNL1        0.0535
     35 C         -11.9744  -13.6131   34.1710 C.ar    1  UNL1        0.0353
     36 C         -12.5410  -14.5449   35.0439 C.ar    1  UNL1        0.1002
     37 N         -13.0943  -15.6869   34.5571 N.ar    1  UNL1       -0.2422
     38 C         -13.1173  -15.9547   33.2247 C.ar    1  UNL1        0.1002
     39 C         -12.5605  -15.0500   32.3172 C.ar    1  UNL1        0.0353
     40 C          -8.7200  -10.2597   31.5920 C.3     1  UNL1        0.0569
     41 C          -7.2354  -10.4502   31.4634 C.ar    1  UNL1       -0.0017
     42 C          -6.3694  -10.8637   32.4720 C.ar    1  UNL1        0.0681
     43 N          -5.0866  -10.8044   32.0477 N.ar    1  UNL1       -0.3523
     44 C          -5.1338  -10.3509   30.7833 C.ar    1  UNL1        0.0563
     45 C          -4.0548  -10.0845   29.9415 C.ar    1  UNL1        0.0170
     46 C          -4.3308   -9.5770   28.6588 C.ar    1  UNL1        0.0015
     47 C          -5.6638   -9.3530   28.2497 C.ar    1  UNL1        0.0001
     48 C          -6.7326   -9.6325   29.1201 C.ar    1  UNL1        0.0012
     49 C          -6.4283  -10.1271   30.3886 C.ar    1  UNL1        0.0131
     50 H          -4.2337  -11.0390   32.6025 H       1  UNL1        0.1660
@<TRIPOS>BOND
     1    18    19    1
     2    19    20   ar
     3    20    26    1
     4    26    27    1
     5    26    28    1
     6    20    21   ar
     7    21    22   ar
     8    22    23    1
     9    22    24   ar
    10    24    25   ar
    11    25    12    1
    12    12    13    1
    13    13    14    1
    14    14    15    1
    15    15     5    1
    16     5     6   ar
    17     6     7   ar
    18     7     8   ar
    19     8     1    1
    20     1     2    2
    21     1     3   am
    22     3    29    1
    23    29    40    1
    24    40    41    1
    25    41    42   ar
    26    42    43   ar
    27    43    44   ar
    28    44    45   ar
    29    45    46   ar
    30    46    47   ar
    31    47    48   ar
    32    48    49   ar
    33    29    30    1
    34    30    31    2
    35    30    32   am
    36    32    34    1
    37    34    35   ar
    38    35    36   ar
    39    36    37   ar
    40    37    38   ar
    41    38    39   ar
    42     8     9   ar
    43     9    10    1
    44     9    11   ar
    45    15    16    1
    46    16    17    1
    47    25    19   ar
    48    17    12    1
    49    11     5   ar
    50    49    41   ar
    51    39    34   ar
    52    49    44   ar
    53     3     4    1
    54    43    50    1
    55    32    33    1
@<TRIPOS>MOLECULE
*****
 50 55 0 0 0
SMALL
GASTEIGER

@<TRIPOS>ATOM
      1 C          -9.1905  -13.3413   29.3694 C.2     1  UNL1        0.2483
      2 O         -10.1983  -13.9679   29.7984 O.2     1  UNL1       -0.2701
      3 N          -8.8832  -12.0446   29.9098 N.am    1  UNL1       -0.2945
      4 H          -7.9140  -11.6728   29.7968 H       1  UNL1        0.1501
      5 C          -6.7939  -15.1720   26.2801 C.ar    1  UNL1        0.0502
      6 C          -8.1522  -15.4936   26.4326 C.ar    1  UNL1        0.0148
      7 C          -8.9138  -14.9001   27.4414 C.ar    1  UNL1        0.0080
      8 C          -8.3377  -13.9747   28.3298 C.ar    1  UNL1        0.0808
      9 C          -6.9746  -13.6456   28.1717 C.ar    1  UNL1        0.1457
     10 F          -6.3718  -12.7218   28.9594 F       1  UNL1       -0.2040
     11 C          -6.2172  -14.2400   27.1576 C.ar    1  UNL1        0.0443
     12 N          -4.7947  -17.2356   23.1590 N.pl3   1  UNL1       -0.3043
     13 C          -4.0615  -17.0896   24.4180 C.3     1  UNL1        0.1122
     14 C          -5.0442  -16.8340   25.5632 C.3     1  UNL1        0.1122
     15 N          -6.0087  -15.7725   25.2270 N.pl3   1  UNL1       -0.3040
     16 C          -6.0491  -15.2141   23.8662 C.3     1  UNL1        0.1122
     17 C          -5.8911  -16.3213   22.8177 C.3     1  UNL1        0.1122
     18 C          -2.1302  -16.8538   22.0327 C.3     1  UNL1        0.0320
     19 C          -3.0047  -18.0173   21.6216 C.ar    1  UNL1       -0.0124
     20 C          -2.5381  -18.9921   20.6918 C.ar    1  UNL1       -0.0244
     21 C          -3.4248  -20.0007   20.2622 C.ar    1  UNL1        0.0069
     22 C          -4.7182  -20.0868   20.7731 C.ar    1  UNL1        0.0586
     23 CL         -5.7947  -21.3599   20.2268 Cl      1  UNL1       -0.0822
     24 C          -5.1537  -19.1705   21.7248 C.ar    1  UNL1        0.0256
     25 C          -4.3098  -18.1438   22.1598 C.ar    1  UNL1        0.0444
     26 C          -1.1240  -18.9581   20.1127 C.3     1  UNL1        0.0221
     27 C          -0.7921  -17.5911   19.4959 C.3     1  UNL1        0.0047
     28 C          -0.0940  -19.3447   21.1795 C.3     1  UNL1        0.0047
     29 C          -9.8611  -11.2582   30.6764 C.3     1  UNL1        0.1535
     30 C         -10.3497  -12.0523   31.8621 C.2     1  UNL1        0.2443
     31 O          -9.6654  -12.0714   32.9221 O.2     1  UNL1       -0.2730
     32 N         -11.6217  -12.7184   31.8080 N.am    1  UNL1       -0.2825
     33 H         -12.2984  -12.4215   31.0689 H       1  UNL1        0.1549
     34 C         -12.0642  -13.6864   32.7751 C.ar    1  UNL1        0.0535
     35 C         -12.5845  -14.9115   32.3356 C.ar    1  UNL1        0.0353
     36 C         -12.9945  -15.8644   33.2711 C.ar    1  UNL1        0.1002
     37 N         -12.8738  -15.6106   34.6009 N.ar    1  UNL1       -0.2422
     38 C         -12.3550  -14.4403   35.0577 C.ar    1  UNL1        0.1002
     39 C         -11.9338  -13.4597   34.1560 C.ar    1  UNL1        0.0353
     40 C          -9.2452   -9.9299   31.1566 C.3     1  UNL1        0.0569
     41 C         -10.1948   -8.7788   30.9837 C.ar    1  UNL1       -0.0017
     42 C         -11.5850   -8.8497   31.0058 C.ar    1  UNL1        0.0681
     43 N         -12.1249   -7.6504   30.6904 N.ar    1  UNL1       -0.3523
     44 C         -11.0890   -6.8248   30.4626 C.ar    1  UNL1        0.0563
     45 C         -11.1455   -5.4898   30.0647 C.ar    1  UNL1        0.0170
     46 C          -9.9299   -4.8165   29.8458 C.ar    1  UNL1        0.0015
     47 C          -8.6992   -5.4839   30.0308 C.ar    1  UNL1        0.0001
     48 C          -8.6729   -6.8309   30.4343 C.ar    1  UNL1        0.0012
     49 C          -9.8938   -7.4752   30.6359 C.ar    1  UNL1        0.0131
     50 H         -13.1412   -7.4235   30.6143 H       1  UNL1        0.1660
@<TRIPOS>BOND
     1    18    19    1
     2    19    20   ar
     3    20    26    1
     4    26    27    1
     5    26    28    1
     6    20    21   ar
     7    21    22   ar
     8    22    23    1
     9    22    24   ar
    10    24    25   ar
    11    25    12    1
    12    12    13    1
    13    13    14    1
    14    14    15    1
    15    15     5    1
    16     5     6   ar
    17     6     7   ar
    18     7     8   ar
    19     8     1    1
    20     1     2    2
    21     1     3   am
    22     3    29    1
    23    29    40    1
    24    40    41    1
    25    41    42   ar
    26    42    43   ar
    27    43    44   ar
    28    44    45   ar
    29    45    46   ar
    30    46    47   ar
    31    47    48   ar
    32    48    49   ar
    33    29    30    1
    34    30    31    2
    35    30    32   am
    36    32    34    1
    37    34    35   ar
    38    35    36   ar
    39    36    37   ar
    40    37    38   ar
    41    38    39   ar
    42     8     9   ar
    43     9    10    1
    44     9    11   ar
    45    15    16    1
    46    16    17    1
    47    25    19   ar
    48    17    12    1
    49    11     5   ar
    50    49    41   ar
    51    39    34   ar
    52    49    44   ar
    53     3     4    1
    54    43    50    1
    55    32    33    1
@<TRIPOS>MOLECULE
*****
 50 55 0 0 0
SMALL
GASTEIGER

@<TRIPOS>ATOM
      1 C          -7.4837  -11.5671   30.6256 C.2     1  UNL1        0.2483
      2 O          -6.4363  -10.8692   30.7156 O.2     1  UNL1       -0.2701
      3 N          -8.5310  -11.3961   31.5961 N.am    1  UNL1       -0.2945
      4 H          -9.4930  -11.7244   31.3567 H       1  UNL1        0.1501
      5 C          -7.7607  -14.4157   27.3932 C.ar    1  UNL1        0.0502
      6 C          -6.5433  -13.7918   27.7099 C.ar    1  UNL1        0.0148
      7 C          -6.4695  -12.8661   28.7527 C.ar    1  UNL1        0.0080
      8 C          -7.6113  -12.5329   29.5030 C.ar    1  UNL1        0.0808
      9 C          -8.8332  -13.1657   29.1900 C.ar    1  UNL1        0.1457
     10 F          -9.9584  -12.9301   29.9080 F       1  UNL1       -0.2040
     11 C          -8.9010  -14.0947   28.1470 C.ar    1  UNL1        0.0443
     12 N          -8.2310  -16.9838   24.0496 N.pl3   1  UNL1       -0.3043
     13 C          -8.6767  -17.5082   25.3420 C.3     1  UNL1        0.1122
     14 C          -8.9486  -16.3502   26.3052 C.3     1  UNL1        0.1122
     15 N          -7.8354  -15.3856   26.3256 N.pl3   1  UNL1       -0.3040
     16 C          -6.7247  -15.5179   25.3696 C.3     1  UNL1        0.1122
     17 C          -7.2450  -15.8986   23.9787 C.3     1  UNL1        0.1122
     18 C         -10.8653  -16.5277   22.8808 C.3     1  UNL1        0.0320
     19 C          -9.8535  -17.4385   22.2221 C.ar    1  UNL1       -0.0124
     20 C         -10.1422  -18.0791   20.9816 C.ar    1  UNL1       -0.0244
     21 C          -9.2094  -18.9975   20.4577 C.ar    1  UNL1        0.0069
     22 C          -7.9985  -19.2400   21.1030 C.ar    1  UNL1        0.0586
     23 CL         -6.8534  -20.3806   20.4204 Cl      1  UNL1       -0.0822
     24 C          -7.6915  -18.5702   22.2828 C.ar    1  UNL1        0.0256
     25 C          -8.6005  -17.6677   22.8438 C.ar    1  UNL1        0.0444
     26 C         -11.4454  -17.8369   20.2207 C.3     1  UNL1        0.0221
     27 C         -12.6691  -17.9086   21.1462 C.3     1  UNL1        0.0047
     28 C         -11.3959  -16.4978   19.4772 C.3     1  UNL1        0.0047
     29 C          -8.3125  -10.7122   32.8794 C.3     1  UNL1        0.1535
     30 C          -7.9600   -9.2650   32.6421 C.2     1  UNL1        0.2443
     31 O          -7.5902   -8.5480   33.6124 O.2     1  UNL1       -0.2730
     32 N          -7.9730   -8.7297   31.3087 N.am    1  UNL1       -0.2825
     33 H          -7.9573   -9.4044   30.5106 H       1  UNL1        0.1549
     34 C          -7.8922   -7.3265   31.0046 C.ar    1  UNL1        0.0535
     35 C          -6.6349   -6.7254   30.8537 C.ar    1  UNL1        0.0353
     36 C          -6.5510   -5.3677   30.5359 C.ar    1  UNL1        0.1002
     37 N          -7.6836   -4.6377   30.3577 N.ar    1  UNL1       -0.2422
     38 C          -8.9167   -5.1967   30.4779 C.ar    1  UNL1        0.1002
     39 C          -9.0456   -6.5511   30.7958 C.ar    1  UNL1        0.0353
     40 C          -9.5643  -10.8041   33.7731 C.3     1  UNL1        0.0569
     41 C         -10.6826  -11.5425   33.0941 C.ar    1  UNL1       -0.0017
     42 C         -11.4588  -11.0697   32.0396 C.ar    1  UNL1        0.0681
     43 N         -12.4557  -11.9395   31.7589 N.ar    1  UNL1       -0.3523
     44 C         -12.3206  -12.9536   32.6306 C.ar    1  UNL1        0.0563
     45 C         -13.1432  -14.0721   32.7580 C.ar    1  UNL1        0.0170
     46 C         -12.8383  -15.0011   33.7695 C.ar    1  UNL1        0.0015
     47 C         -11.7289  -14.7957   34.6186 C.ar    1  UNL1        0.0001
     48 C         -10.9156  -13.6585   34.4656 C.ar    1  UNL1        0.0012
     49 C         -11.2469  -12.7504   33.4597 C.ar    1  UNL1        0.0131
     50 H         -13.1945  -11.8286   31.0293 H       1  UNL1        0.1660
@<TRIPOS>BOND
     1    18    19    1
     2    19    20   ar
     3    20    26    1
     4    26    27    1
     5    26    28    1
     6    20    21   ar
     7    21    22   ar
     8    22    23    1
     9    22    24   ar
    10    24    25   ar
    11    25    12    1
    12    12    13    1
    13    13    14    1
    14    14    15    1
    15    15     5    1
    16     5     6   ar
    17     6     7   ar
    18     7     8   ar
    19     8     1    1
    20     1     2    2
    21     1     3   am
    22     3    29    1
    23    29    40    1
    24    40    41    1
    25    41    42   ar
    26    42    43   ar
    27    43    44   ar
    28    44    45   ar
    29    45    46   ar
    30    46    47   ar
    31    47    48   ar
    32    48    49   ar
    33    29    30    1
    34    30    31    2
    35    30    32   am
    36    32    34    1
    37    34    35   ar
    38    35    36   ar
    39    36    37   ar
    40    37    38   ar
    41    38    39   ar
    42     8     9   ar
    43     9    10    1
    44     9    11   ar
    45    15    16    1
    46    16    17    1
    47    25    19   ar
    48    17    12    1
    49    11     5   ar
    50    49    41   ar
    51    39    34   ar
    52    49    44   ar
    53     3     4    1
    54    43    50    1
    55    32    33    1
@<TRIPOS>MOLECULE
*****
 50 55 0 0 0
SMALL
GASTEIGER

@<TRIPOS>ATOM
      1 C          -8.9058  -11.5023   30.7875 C.2     1  UNL1        0.2483
      2 O          -8.0774  -11.1832   31.6841 O.2     1  UNL1       -0.2701
      3 N         -10.2165  -10.9107   30.7950 N.am    1  UNL1       -0.2945
      4 H         -10.7760  -10.9238   29.9134 H       1  UNL1        0.1501
      5 C          -7.7955  -14.2854   27.6793 C.ar    1  UNL1        0.0502
      6 C          -9.1146  -14.2158   28.1552 C.ar    1  UNL1        0.0148
      7 C          -9.4584  -13.3167   29.1669 C.ar    1  UNL1        0.0080
      8 C          -8.4923  -12.4677   29.7355 C.ar    1  UNL1        0.0808
      9 C          -7.1682  -12.5319   29.2518 C.ar    1  UNL1        0.1457
     10 F          -6.2014  -11.7045   29.7186 F       1  UNL1       -0.2040
     11 C          -6.8299  -13.4315   28.2361 C.ar    1  UNL1        0.0443
     12 N          -6.9040  -16.6858   24.2971 N.pl3   1  UNL1       -0.3043
     13 C          -7.8253  -17.2604   25.2795 C.3     1  UNL1        0.1122
     14 C          -8.4560  -16.1429   26.1137 C.3     1  UNL1        0.1122
     15 N          -7.4416  -15.2031   26.6216 N.pl3   1  UNL1       -0.3040
     16 C          -6.0431  -15.3136   26.1775 C.3     1  UNL1        0.1122
     17 C          -5.9701  -15.6189   24.6769 C.3     1  UNL1        0.1122
     18 C          -4.2416  -17.1495   23.1967 C.3     1  UNL1        0.0320
     19 C          -5.4893  -17.5875   22.4628 C.ar    1  UNL1       -0.0124
     20 C          -5.4033  -18.2785   21.2188 C.ar    1  UNL1       -0.0244
     21 C          -6.5930  -18.5764   20.5231 C.ar    1  UNL1        0.0069
     22 C          -7.8388  -18.2567   21.0589 C.ar    1  UNL1        0.0586
     23 CL         -9.3018  -18.6501   20.1740 Cl      1  UNL1       -0.0822
     24 C          -7.9245  -17.6354   22.3005 C.ar    1  UNL1        0.0256
     25 C          -6.7658  -17.3056   23.0105 C.ar    1  UNL1        0.0444
     26 C          -4.0653  -18.6708   20.5927 C.3     1  UNL1        0.0221
     27 C          -4.0647  -20.1301   20.1136 C.3     1  UNL1        0.0047
     28 C          -3.7035  -17.7166   19.4494 C.3     1  UNL1        0.0047
     29 C         -10.7655  -10.2261   31.9749 C.3     1  UNL1        0.1535
     30 C         -11.0293   -8.7756   31.6567 C.2     1  UNL1        0.2443
     31 O         -12.2117   -8.3363   31.6925 O.2     1  UNL1       -0.2730
     32 N          -9.9330   -7.8859   31.3896 N.am    1  UNL1       -0.2825
     33 H          -8.9764   -8.1859   31.6850 H       1  UNL1        0.1549
     34 C         -10.0849   -6.5636   30.8451 C.ar    1  UNL1        0.0535
     35 C          -9.0801   -6.0380   30.0210 C.ar    1  UNL1        0.0353
     36 C          -9.2331   -4.7631   29.4710 C.ar    1  UNL1        0.1002
     37 N         -10.3585   -4.0431   29.7208 N.ar    1  UNL1       -0.2422
     38 C         -11.3587   -4.5334   30.4997 C.ar    1  UNL1        0.1002
     39 C         -11.2456   -5.8038   31.0702 C.ar    1  UNL1        0.0353
     40 C         -12.0674  -10.9012   32.4477 C.3     1  UNL1        0.0569
     41 C         -11.7960  -12.1699   33.2051 C.ar    1  UNL1       -0.0017
     42 C         -10.6873  -12.4275   34.0067 C.ar    1  UNL1        0.0681
     43 N         -10.6993  -13.7111   34.4324 N.ar    1  UNL1       -0.3523
     44 C         -11.8013  -14.2684   33.9016 C.ar    1  UNL1        0.0563
     45 C         -12.2200  -15.5926   34.0244 C.ar    1  UNL1        0.0170
     46 C         -13.3943  -15.9763   33.3515 C.ar    1  UNL1        0.0015
     47 C         -14.1173  -15.0380   32.5828 C.ar    1  UNL1        0.0001
     48 C         -13.6716  -13.7082   32.4782 C.ar    1  UNL1        0.0012
     49 C         -12.4997  -13.3584   33.1495 C.ar    1  UNL1        0.0131
     50 H          -9.9816  -14.1777   35.0303 H       1  UNL1        0.1660
@<TRIPOS>BOND
     1    18    19    1
     2    19    20   ar
     3    20    26    1
     4    26    27    1
     5    26    28    1
     6    20    21   ar
     7    21    22   ar
     8    22    23    1
     9    22    24   ar
    10    24    25   ar
    11    25    12    1
    12    12    13    1
    13    13    14    1
    14    14    15    1
    15    15     5    1
    16     5     6   ar
    17     6     7   ar
    18     7     8   ar
    19     8     1    1
    20     1     2    2
    21     1     3   am
    22     3    29    1
    23    29    40    1
    24    40    41    1
    25    41    42   ar
    26    42    43   ar
    27    43    44   ar
    28    44    45   ar
    29    45    46   ar
    30    46    47   ar
    31    47    48   ar
    32    48    49   ar
    33    29    30    1
    34    30    31    2
    35    30    32   am
    36    32    34    1
    37    34    35   ar
    38    35    36   ar
    39    36    37   ar
    40    37    38   ar
    41    38    39   ar
    42     8     9   ar
    43     9    10    1
    44     9    11   ar
    45    15    16    1
    46    16    17    1
    47    25    19   ar
    48    17    12    1
    49    11     5   ar
    50    49    41   ar
    51    39    34   ar
    52    49    44   ar
    53     3     4    1
    54    43    50    1
    55    32    33    1
@<TRIPOS>MOLECULE
*****
 50 55 0 0 0
SMALL
GASTEIGER

@<TRIPOS>ATOM
      1 C          -8.8733  -11.6339   30.7617 C.2     1  UNL1        0.2483
      2 O          -7.9878  -11.3852   31.6255 O.2     1  UNL1       -0.2701
      3 N         -10.1391  -10.9553   30.8332 N.am    1  UNL1       -0.2945
      4 H         -10.7350  -10.9170   29.9765 H       1  UNL1        0.1501
      5 C          -8.0873  -14.4372   27.5738 C.ar    1  UNL1        0.0502
      6 C          -9.3792  -14.2790   28.1004 C.ar    1  UNL1        0.0148
      7 C          -9.6180  -13.3747   29.1372 C.ar    1  UNL1        0.0080
      8 C          -8.5714  -12.6088   29.6810 C.ar    1  UNL1        0.0808
      9 C          -7.2744  -12.7619   29.1466 C.ar    1  UNL1        0.1457
     10 F          -6.2325  -12.0160   29.5883 F       1  UNL1       -0.2040
     11 C          -7.0412  -13.6664   28.1059 C.ar    1  UNL1        0.0443
     12 N          -7.6213  -16.8999   24.1512 N.pl3   1  UNL1       -0.3043
     13 C          -8.1766  -17.5411   25.3447 C.3     1  UNL1        0.1122
     14 C          -8.7734  -16.4802   26.2726 C.3     1  UNL1        0.1122
     15 N          -7.8415  -15.3603   26.4904 N.pl3   1  UNL1       -0.3040
     16 C          -6.5879  -15.2818   25.7240 C.3     1  UNL1        0.1122
     17 C          -6.8180  -15.6762   24.2605 C.3     1  UNL1        0.1122
     18 C         -10.2195  -17.5526   22.9947 C.3     1  UNL1        0.0320
     19 C          -8.9288  -17.8733   22.2745 C.ar    1  UNL1       -0.0124
     20 C          -8.9407  -18.4755   20.9823 C.ar    1  UNL1       -0.0244
     21 C          -7.7143  -18.8482   20.3949 C.ar    1  UNL1        0.0069
     22 C          -6.5028  -18.5862   21.0314 C.ar    1  UNL1        0.0586
     23 CL         -4.9926  -19.0525   20.2700 Cl      1  UNL1       -0.0822
     24 C          -6.4889  -17.9450   22.2658 C.ar    1  UNL1        0.0256
     25 C          -7.6859  -17.5790   22.8891 C.ar    1  UNL1        0.0444
     26 C         -10.2381  -18.7691   20.2296 C.3     1  UNL1        0.0221
     27 C         -11.1138  -19.7867   20.9758 C.3     1  UNL1        0.0047
     28 C         -11.0102  -17.4736   19.9582 C.3     1  UNL1        0.0047
     29 C         -10.5898  -10.2532   32.0441 C.3     1  UNL1        0.1535
     30 C         -10.7761   -8.7850   31.7531 C.2     1  UNL1        0.2443
     31 O         -11.8926   -8.2429   31.9811 O.2     1  UNL1       -0.2730
     32 N          -9.6676   -7.9958   31.2917 N.am    1  UNL1       -0.2825
     33 H          -8.7046   -8.3792   31.4262 H       1  UNL1        0.1549
     34 C          -9.7936   -6.6653   30.7608 C.ar    1  UNL1        0.0535
     35 C          -8.6450   -5.9774   30.3453 C.ar    1  UNL1        0.0353
     36 C          -8.7641   -4.6937   29.8077 C.ar    1  UNL1        0.1002
     37 N          -9.9897   -4.1217   29.6731 N.ar    1  UNL1       -0.2422
     38 C         -11.1232   -4.7711   30.0485 C.ar    1  UNL1        0.1002
     39 C         -11.0488   -6.0561   30.5919 C.ar    1  UNL1        0.0353
     40 C         -11.9087  -10.8520   32.5697 C.3     1  UNL1        0.0569
     41 C         -11.6842  -12.1492   33.2934 C.ar    1  UNL1       -0.0017
     42 C         -10.5977  -12.4595   34.1067 C.ar    1  UNL1        0.0681
     43 N         -10.6508  -13.7543   34.4933 N.ar    1  UNL1       -0.3523
     44 C         -11.7566  -14.2666   33.9264 C.ar    1  UNL1        0.0563
     45 C         -12.2115  -15.5823   34.0018 C.ar    1  UNL1        0.0170
     46 C         -13.3825  -15.9150   33.2967 C.ar    1  UNL1        0.0015
     47 C         -14.0665  -14.9356   32.5436 C.ar    1  UNL1        0.0001
     48 C         -13.5849  -13.6155   32.4870 C.ar    1  UNL1        0.0012
     49 C         -12.4171  -13.3167   33.1895 C.ar    1  UNL1        0.0131
     50 H          -9.9566  -14.2571   35.0897 H       1  UNL1        0.1660
@<TRIPOS>BOND
     1    18    19    1
     2    19    20   ar
     3    20    26    1
     4    26    27    1
     5    26    28    1
     6    20    21   ar
     7    21    22   ar
     8    22    23    1
     9    22    24   ar
    10    24    25   ar
    11    25    12    1
    12    12    13    1
    13    13    14    1
    14    14    15    1
    15    15     5    1
    16     5     6   ar
    17     6     7   ar
    18     7     8   ar
    19     8     1    1
    20     1     2    2
    21     1     3   am
    22     3    29    1
    23    29    40    1
    24    40    41    1
    25    41    42   ar
    26    42    43   ar
    27    43    44   ar
    28    44    45   ar
    29    45    46   ar
    30    46    47   ar
    31    47    48   ar
    32    48    49   ar
    33    29    30    1
    34    30    31    2
    35    30    32   am
    36    32    34    1
    37    34    35   ar
    38    35    36   ar
    39    36    37   ar
    40    37    38   ar
    41    38    39   ar
    42     8     9   ar
    43     9    10    1
    44     9    11   ar
    45    15    16    1
    46    16    17    1
    47    25    19   ar
    48    17    12    1
    49    11     5   ar
    50    49    41   ar
    51    39    34   ar
    52    49    44   ar
    53     3     4    1
    54    43    50    1
    55    32    33    1
@<TRIPOS>MOLECULE
*****
 50 55 0 0 0
SMALL
GASTEIGER

@<TRIPOS>ATOM
      1 C          -9.0112  -11.6431   30.6241 C.2     1  UNL1        0.2483
      2 O          -8.3735  -11.5856   31.7114 O.2     1  UNL1       -0.2701
      3 N         -10.1362  -10.7711   30.4190 N.am    1  UNL1       -0.2945
      4 H         -10.4595  -10.5935   29.4421 H       1  UNL1        0.1501
      5 C          -7.8048  -14.3996   27.5282 C.ar    1  UNL1        0.0502
      6 C          -9.1379  -14.3344   27.9641 C.ar    1  UNL1        0.0148
      7 C          -9.5129  -13.4440   28.9722 C.ar    1  UNL1        0.0080
      8 C          -8.5652  -12.5994   29.5773 C.ar    1  UNL1        0.0808
      9 C          -7.2269  -12.6593   29.1338 C.ar    1  UNL1        0.1457
     10 F          -6.2753  -11.8355   29.6370 F       1  UNL1       -0.2040
     11 C          -6.8571  -13.5502   28.1215 C.ar    1  UNL1        0.0443
     12 N          -6.8136  -16.7736   24.1550 N.pl3   1  UNL1       -0.3043
     13 C          -7.7518  -17.3618   25.1130 C.3     1  UNL1        0.1122
     14 C          -8.4119  -16.2547   25.9383 C.3     1  UNL1        0.1122
     15 N          -7.4182  -15.3084   26.4742 N.pl3   1  UNL1       -0.3040
     16 C          -6.0089  -15.4036   26.0618 C.3     1  UNL1        0.1122
     17 C          -5.8987  -15.7001   24.5617 C.3     1  UNL1        0.1122
     18 C          -4.1248  -17.1488   23.0859 C.3     1  UNL1        0.0320
     19 C          -5.3489  -17.6246   22.3359 C.ar    1  UNL1       -0.0124
     20 C          -5.2258  -18.3091   21.0914 C.ar    1  UNL1       -0.0244
     21 C          -6.3969  -18.6429   20.3806 C.ar    1  UNL1        0.0069
     22 C          -7.6587  -18.3647   20.9020 C.ar    1  UNL1        0.0586
     23 CL         -9.0975  -18.8023   19.9986 Cl      1  UNL1       -0.0822
     24 C          -7.7791  -17.7499   22.1440 C.ar    1  UNL1        0.0256
     25 C          -6.6403  -17.3851   22.8688 C.ar    1  UNL1        0.0444
     26 C          -3.8685  -18.6567   20.4806 C.3     1  UNL1        0.0221
     27 C          -3.8094  -20.1189   20.0143 C.3     1  UNL1        0.0047
     28 C          -3.5318  -17.6993   19.3324 C.3     1  UNL1        0.0047
     29 C         -10.7988  -10.0657   31.5261 C.3     1  UNL1        0.1535
     30 C         -11.5489  -11.0474   32.3913 C.2     1  UNL1        0.2443
     31 O         -12.2090  -10.6262   33.3808 O.2     1  UNL1       -0.2730
     32 N         -11.5722  -12.4417   32.0446 N.am    1  UNL1       -0.2825
     33 H         -11.3069  -12.7078   31.0693 H       1  UNL1        0.1549
     34 C         -12.0451  -13.4801   32.9199 C.ar    1  UNL1        0.0535
     35 C         -13.0328  -14.3659   32.4677 C.ar    1  UNL1        0.0353
     36 C         -13.4794  -15.3904   33.3057 C.ar    1  UNL1        0.1002
     37 N         -12.9463  -15.5370   34.5473 N.ar    1  UNL1       -0.2422
     38 C         -11.9735  -14.7063   35.0067 C.ar    1  UNL1        0.1002
     39 C         -11.4991  -13.6679   34.2013 C.ar    1  UNL1        0.0353
     40 C          -9.7739   -9.2950   32.3805 C.3     1  UNL1        0.0569
     41 C          -9.0697   -8.2327   31.5853 C.ar    1  UNL1       -0.0017
     42 C          -7.6934   -8.1097   31.4154 C.ar    1  UNL1        0.0681
     43 N          -7.3989   -6.9700   30.7496 N.ar    1  UNL1       -0.3523
     44 C          -8.5755   -6.3686   30.5035 C.ar    1  UNL1        0.0563
     45 C          -8.7807   -5.1410   29.8752 C.ar    1  UNL1        0.0170
     46 C         -10.1034   -4.6778   29.7523 C.ar    1  UNL1        0.0015
     47 C         -11.1791   -5.4447   30.2512 C.ar    1  UNL1        0.0001
     48 C         -10.9419   -6.6806   30.8793 C.ar    1  UNL1        0.0012
     49 C          -9.6197   -7.1106   30.9942 C.ar    1  UNL1        0.0131
     50 H          -6.4470   -6.6191   30.5025 H       1  UNL1        0.1660
@<TRIPOS>BOND
     1    18    19    1
     2    19    20   ar
     3    20    26    1
     4    26    27    1
     5    26    28    1
     6    20    21   ar
     7    21    22   ar
     8    22    23    1
     9    22    24   ar
    10    24    25   ar
    11    25    12    1
    12    12    13    1
    13    13    14    1
    14    14    15    1
    15    15     5    1
    16     5     6   ar
    17     6     7   ar
    18     7     8   ar
    19     8     1    1
    20     1     2    2
    21     1     3   am
    22     3    29    1
    23    29    40    1
    24    40    41    1
    25    41    42   ar
    26    42    43   ar
    27    43    44   ar
    28    44    45   ar
    29    45    46   ar
    30    46    47   ar
    31    47    48   ar
    32    48    49   ar
    33    29    30    1
    34    30    31    2
    35    30    32   am
    36    32    34    1
    37    34    35   ar
    38    35    36   ar
    39    36    37   ar
    40    37    38   ar
    41    38    39   ar
    42     8     9   ar
    43     9    10    1
    44     9    11   ar
    45    15    16    1
    46    16    17    1
    47    25    19   ar
    48    17    12    1
    49    11     5   ar
    50    49    41   ar
    51    39    34   ar
    52    49    44   ar
    53     3     4    1
    54    43    50    1
    55    32    33    1
@<TRIPOS>MOLECULE
*****
 50 55 0 0 0
SMALL
GASTEIGER

@<TRIPOS>ATOM
      1 C          -7.7719  -11.6824   30.5210 C.2     1  UNL1        0.2483
      2 O          -6.7393  -10.9773   30.6903 O.2     1  UNL1       -0.2701
      3 N          -8.8943  -11.5134   31.4040 N.am    1  UNL1       -0.2945
      4 H          -9.8321  -11.8491   31.0904 H       1  UNL1        0.1501
      5 C          -7.7705  -14.5453   27.2894 C.ar    1  UNL1        0.0502
      6 C          -6.5970  -13.8712   27.6637 C.ar    1  UNL1        0.0148
      7 C          -6.6133  -12.9414   28.7055 C.ar    1  UNL1        0.0080
      8 C          -7.8037  -12.6545   29.3970 C.ar    1  UNL1        0.0808
      9 C          -8.9814  -13.3377   29.0261 C.ar    1  UNL1        0.1457
     10 F         -10.1497  -13.1476   29.6866 F       1  UNL1       -0.2040
     11 C          -8.9590  -14.2704   27.9845 C.ar    1  UNL1        0.0443
     12 N          -7.9043  -17.1075   23.9111 N.pl3   1  UNL1       -0.3043
     13 C          -8.6006  -17.5748   25.1114 C.3     1  UNL1        0.1122
     14 C          -8.9261  -16.3851   26.0177 C.3     1  UNL1        0.1122
     15 N          -7.7520  -15.5193   26.2230 N.pl3   1  UNL1       -0.3040
     16 C          -6.5147  -15.7589   25.4636 C.3     1  UNL1        0.1122
     17 C          -6.8298  -16.1119   24.0054 C.3     1  UNL1        0.1122
     18 C          -5.6324  -18.1410   22.3998 C.3     1  UNL1        0.0320
     19 C          -7.0541  -18.3275   21.9192 C.ar    1  UNL1       -0.0124
     20 C          -7.3345  -19.0510   20.7231 C.ar    1  UNL1       -0.0244
     21 C          -8.6654  -19.1115   20.2616 C.ar    1  UNL1        0.0069
     22 C          -9.7042  -18.5269   20.9831 C.ar    1  UNL1        0.0586
     23 CL        -11.3516  -18.6285   20.3883 Cl      1  UNL1       -0.0822
     24 C          -9.4379  -17.8718   22.1809 C.ar    1  UNL1        0.0256
     25 C          -8.1279  -17.7732   22.6600 C.ar    1  UNL1        0.0444
     26 C          -6.2378  -19.7278   19.9014 C.3     1  UNL1        0.0221
     27 C          -4.9973  -18.8335   19.7577 C.3     1  UNL1        0.0047
     28 C          -5.8691  -21.0861   20.5077 C.3     1  UNL1        0.0047
     29 C          -8.7829  -10.8218   32.6968 C.3     1  UNL1        0.1535
     30 C          -8.2903   -9.4113   32.4895 C.2     1  UNL1        0.2443
     31 O          -7.8077   -8.7718   33.4644 O.2     1  UNL1       -0.2730
     32 N          -8.3015   -8.8303   31.1754 N.am    1  UNL1       -0.2825
     33 H          -8.3895   -9.4740   30.3567 H       1  UNL1        0.1549
     34 C          -8.0861   -7.4331   30.9121 C.ar    1  UNL1        0.0535
     35 C          -6.7765   -6.9370   30.8518 C.ar    1  UNL1        0.0353
     36 C          -6.5609   -5.5852   30.5737 C.ar    1  UNL1        0.1002
     37 N          -7.6160   -4.7590   30.3466 N.ar    1  UNL1       -0.2422
     38 C          -8.8963   -5.2144   30.3788 C.ar    1  UNL1        0.1002
     39 C          -9.1562   -6.5592   30.6543 C.ar    1  UNL1        0.0353
     40 C         -10.1392  -10.7981   33.4278 C.3     1  UNL1        0.0569
     41 C         -11.1382  -11.7154   32.7819 C.ar    1  UNL1       -0.0017
     42 C         -11.9215  -11.4244   31.6684 C.ar    1  UNL1        0.0681
     43 N         -12.8006  -12.4250   31.4339 N.ar    1  UNL1       -0.3523
     44 C         -12.5846  -13.3419   32.3926 C.ar    1  UNL1        0.0563
     45 C         -13.2782  -14.5350   32.5909 C.ar    1  UNL1        0.0170
     46 C         -12.9088  -15.3364   33.6865 C.ar    1  UNL1        0.0015
     47 C         -11.8642  -14.9338   34.5473 C.ar    1  UNL1        0.0001
     48 C         -11.1810  -13.7254   34.3217 C.ar    1  UNL1        0.0012
     49 C         -11.5744  -12.9473   33.2325 C.ar    1  UNL1        0.0131
     50 H         -13.5181  -12.4614   30.6761 H       1  UNL1        0.1660
@<TRIPOS>BOND
     1    18    19    1
     2    19    20   ar
     3    20    26    1
     4    26    27    1
     5    26    28    1
     6    20    21   ar
     7    21    22   ar
     8    22    23    1
     9    22    24   ar
    10    24    25   ar
    11    25    12    1
    12    12    13    1
    13    13    14    1
    14    14    15    1
    15    15     5    1
    16     5     6   ar
    17     6     7   ar
    18     7     8   ar
    19     8     1    1
    20     1     2    2
    21     1     3   am
    22     3    29    1
    23    29    40    1
    24    40    41    1
    25    41    42   ar
    26    42    43   ar
    27    43    44   ar
    28    44    45   ar
    29    45    46   ar
    30    46    47   ar
    31    47    48   ar
    32    48    49   ar
    33    29    30    1
    34    30    31    2
    35    30    32   am
    36    32    34    1
    37    34    35   ar
    38    35    36   ar
    39    36    37   ar
    40    37    38   ar
    41    38    39   ar
    42     8     9   ar
    43     9    10    1
    44     9    11   ar
    45    15    16    1
    46    16    17    1
    47    25    19   ar
    48    17    12    1
    49    11     5   ar
    50    49    41   ar
    51    39    34   ar
    52    49    44   ar
    53     3     4    1
    54    43    50    1
    55    32    33    1
