@<TRIPOS>MOLECULE
*****
 40 44 0 0 0
SMALL
GASTEIGER

@<TRIPOS>ATOM
      1 C           8.8750   79.0089   30.6731 C.3     1  UNL1        0.2392
      2 O           9.7210   78.1030   29.9564 O.3     1  UNL1       -0.4694
      3 C           9.9194   78.2228   28.5784 C.ar    1  UNL1        0.1723
      4 C          10.9464   77.5242   27.9434 C.ar    1  UNL1        0.0398
      5 C          11.1275   77.6502   26.5626 C.ar    1  UNL1        0.0026
      6 C          10.2869   78.4914   25.8039 C.ar    1  UNL1        0.0233
      7 C           9.2501   79.1832   26.4577 C.ar    1  UNL1        0.0393
      8 C           9.0592   79.0355   27.8332 C.ar    1  UNL1        0.1725
      9 O           7.9830   79.6611   28.4731 O.3     1  UNL1       -0.4679
     10 C           7.6205   79.3640   29.8298 C.3     1  UNL1        0.2305
     11 C          10.4042   78.6031   24.2937 C.3     1  UNL1        0.2223
     12 O          11.3101   77.6302   23.7554 O.3     1  UNL1       -0.4715
     13 C          10.9118   76.3541   23.3296 C.ar    1  UNL1        0.1477
     14 C          11.8877   75.4130   22.9995 C.ar    1  UNL1        0.0741
     15 C          11.5294   74.1197   22.6144 C.ar    1  UNL1        0.1448
     16 C          10.1677   73.7708   22.5549 C.ar    1  UNL1        0.0741
     17 C           9.1676   74.7138   22.8685 C.ar    1  UNL1        0.1475
     18 C           9.5480   76.0182   23.2532 C.ar    1  UNL1        0.1052
     19 C           8.5625   77.0789   23.5656 C.2     1  UNL1        0.2095
     20 O           7.3443   76.8088   23.7444 O.2     1  UNL1       -0.2884
     21 C           9.0168   78.5089   23.6179 C.3     1  UNL1        0.2169
     22 O           9.0912   78.9976   22.3045 O.3     1  UNL1       -0.3739
     23 H           9.1040   79.9885   22.3670 H       1  UNL1        0.2110
     24 O          12.5540   73.2130   22.3028 O.3     1  UNL1       -0.4712
     25 C          12.4740   72.2264   21.2790 C.3     1  UNL1        0.2525
     26 O           7.8025   74.3873   22.7968 O.3     1  UNL1       -0.4711
     27 C           7.1691   73.7830   21.6738 C.3     1  UNL1        0.2525
     28 C           6.5887   78.2507   29.8944 C.ar    1  UNL1        0.0241
     29 C           6.5346   77.4333   31.0338 C.ar    1  UNL1        0.0026
     30 C           5.6235   76.3789   31.1114 C.ar    1  UNL1        0.0398
     31 C           4.7507   76.1107   30.0413 C.ar    1  UNL1        0.1724
     32 C           4.8044   76.9084   28.8889 C.ar    1  UNL1        0.1722
     33 C           5.7268   77.9698   28.8183 C.ar    1  UNL1        0.0393
     34 O           3.8201   75.0604   30.0837 O.3     1  UNL1       -0.4684
     35 C           4.1374   73.6917   29.8521 C.3     1  UNL1        0.2526
     36 O           3.9263   76.6148   27.8326 O.3     1  UNL1       -0.4684
     37 C           4.2632   76.7085   26.4514 C.3     1  UNL1        0.2526
     38 C           9.6718   80.2739   31.0363 C.3     1  UNL1        0.1897
     39 C           9.0973   82.2907   32.0346 C.3     1  UNL1        0.1743
     40 O           9.1243   80.8887   32.1886 O.3     1  UNL1       -0.3471
@<TRIPOS>BOND
     1    39    40    1
     2    40    38    1
     3    38     1    1
     4     1     2    1
     5     2     3    1
     6     3     4   ar
     7     4     5   ar
     8     5     6   ar
     9     6    11    1
    10    11    12    1
    11    12    13    1
    12    13    14   ar
    13    14    15   ar
    14    15    24    1
    15    24    25    1
    16    15    16   ar
    17    16    17   ar
    18    17    26    1
    19    26    27    1
    20    17    18   ar
    21    18    19    1
    22    19    20    2
    23    19    21    1
    24    21    22    1
    25     6     7   ar
    26     7     8   ar
    27     8     9    1
    28     9    10    1
    29    10    28    1
    30    28    29   ar
    31    29    30   ar
    32    30    31   ar
    33    31    34    1
    34    34    35    1
    35    31    32   ar
    36    32    36    1
    37    36    37    1
    38    32    33   ar
    39    10     1    1
    40    33    28   ar
    41     8     3   ar
    42    21    11    1
    43    18    13   ar
    44    22    23    1
@<TRIPOS>MOLECULE
*****
 40 44 0 0 0
SMALL
GASTEIGER

@<TRIPOS>ATOM
      1 C           4.6847   75.8678   29.7651 C.3     1  UNL1        0.2392
      2 O           4.3985   76.5726   28.5520 O.3     1  UNL1       -0.4694
      3 C           4.8747   76.1252   27.3168 C.ar    1  UNL1        0.1723
      4 C           4.3680   76.6476   26.1267 C.ar    1  UNL1        0.0398
      5 C           4.8598   76.1935   24.8989 C.ar    1  UNL1        0.0026
      6 C           5.8580   75.1979   24.8513 C.ar    1  UNL1        0.0233
      7 C           6.3649   74.6867   26.0607 C.ar    1  UNL1        0.0393
      8 C           5.8866   75.1604   27.2843 C.ar    1  UNL1        0.1725
      9 O           6.4421   74.7103   28.4875 O.3     1  UNL1       -0.4679
     10 C           6.1394   75.3252   29.7486 C.3     1  UNL1        0.2305
     11 C           6.4691   74.7270   23.5430 C.3     1  UNL1        0.2223
     12 O           6.3134   75.6997   22.5006 O.3     1  UNL1       -0.4715
     13 C           7.2556   76.7040   22.2324 C.ar    1  UNL1        0.1477
     14 C           6.9308   77.7159   21.3283 C.ar    1  UNL1        0.0741
     15 C           7.8261   78.7557   21.0702 C.ar    1  UNL1        0.1448
     16 C           9.0698   78.7733   21.7279 C.ar    1  UNL1        0.0741
     17 C           9.4217   77.7501   22.6318 C.ar    1  UNL1        0.1475
     18 C           8.5050   76.7046   22.8785 C.ar    1  UNL1        0.1052
     19 C           8.8078   75.5734   23.7856 C.2     1  UNL1        0.2095
     20 O           9.7929   75.6097   24.5713 O.2     1  UNL1       -0.2884
     21 C           7.9543   74.3396   23.7286 C.3     1  UNL1        0.2169
     22 O           8.3822   73.5555   22.6462 O.3     1  UNL1       -0.3739
     23 H           8.0222   72.6418   22.7934 H       1  UNL1        0.2110
     24 O           7.4418   79.7506   20.1583 O.3     1  UNL1       -0.4712
     25 C           7.4147   79.5819   18.7447 C.3     1  UNL1        0.2525
     26 O          10.6668   77.7426   23.2836 O.3     1  UNL1       -0.4711
     27 C          11.1357   78.7686   24.1525 C.3     1  UNL1        0.2525
     28 C           7.1339   76.4251   30.0795 C.ar    1  UNL1        0.0241
     29 C           6.8121   77.3623   31.0731 C.ar    1  UNL1        0.0026
     30 C           7.6866   78.4067   31.3772 C.ar    1  UNL1        0.0398
     31 C           8.9021   78.5438   30.6827 C.ar    1  UNL1        0.1724
     32 C           9.2301   77.6248   29.6752 C.ar    1  UNL1        0.1722
     33 C           8.3423   76.5743   29.3741 C.ar    1  UNL1        0.0393
     34 O           9.8074   79.5800   30.9618 O.3     1  UNL1       -0.4684
     35 C           9.4665   80.9622   30.9930 C.3     1  UNL1        0.2526
     36 O          10.4470   77.7885   28.9930 O.3     1  UNL1       -0.4684
     37 C          10.6922   77.3487   27.6602 C.3     1  UNL1        0.2526
     38 C           3.6712   74.7240   29.9432 C.3     1  UNL1        0.1897
     39 C           3.7403   72.5049   29.2614 C.3     1  UNL1        0.1743
     40 O           4.3434   73.4849   30.0775 O.3     1  UNL1       -0.3471
@<TRIPOS>BOND
     1    39    40    1
     2    40    38    1
     3    38     1    1
     4     1     2    1
     5     2     3    1
     6     3     4   ar
     7     4     5   ar
     8     5     6   ar
     9     6    11    1
    10    11    12    1
    11    12    13    1
    12    13    14   ar
    13    14    15   ar
    14    15    24    1
    15    24    25    1
    16    15    16   ar
    17    16    17   ar
    18    17    26    1
    19    26    27    1
    20    17    18   ar
    21    18    19    1
    22    19    20    2
    23    19    21    1
    24    21    22    1
    25     6     7   ar
    26     7     8   ar
    27     8     9    1
    28     9    10    1
    29    10    28    1
    30    28    29   ar
    31    29    30   ar
    32    30    31   ar
    33    31    34    1
    34    34    35    1
    35    31    32   ar
    36    32    36    1
    37    36    37    1
    38    32    33   ar
    39    10     1    1
    40    33    28   ar
    41     8     3   ar
    42    21    11    1
    43    18    13   ar
    44    22    23    1
@<TRIPOS>MOLECULE
*****
 40 44 0 0 0
SMALL
GASTEIGER

@<TRIPOS>ATOM
      1 C           7.9727   78.1314   21.4794 C.3     1  UNL1        0.2392
      2 O           8.2962   79.0502   22.5289 O.3     1  UNL1       -0.4694
      3 C           9.0082   78.6455   23.6611 C.ar    1  UNL1        0.1723
      4 C           9.5556   79.5875   24.5323 C.ar    1  UNL1        0.0398
      5 C          10.2601   79.1660   25.6643 C.ar    1  UNL1        0.0026
      6 C          10.4354   77.7914   25.9280 C.ar    1  UNL1        0.0233
      7 C           9.8702   76.8532   25.0440 C.ar    1  UNL1        0.0393
      8 C           9.1478   77.2798   23.9276 C.ar    1  UNL1        0.1725
      9 O           8.5198   76.3512   23.0895 O.3     1  UNL1       -0.4679
     10 C           7.5921   76.7458   22.0678 C.3     1  UNL1        0.2305
     11 C          11.1325   77.2905   27.1811 C.3     1  UNL1        0.2223
     12 O          11.0623   78.2456   28.2487 O.3     1  UNL1       -0.4715
     13 C          10.0284   78.2722   29.1966 C.ar    1  UNL1        0.1477
     14 C           9.9440   79.3493   30.0794 C.ar    1  UNL1        0.0741
     15 C           8.9032   79.4314   31.0065 C.ar    1  UNL1        0.1448
     16 C           7.9364   78.4101   31.0491 C.ar    1  UNL1        0.0741
     17 C           8.0154   77.3058   30.1762 C.ar    1  UNL1        0.1475
     18 C           9.0766   77.2377   29.2470 C.ar    1  UNL1        0.1052
     19 C           9.2539   76.0976   28.3183 C.2     1  UNL1        0.2095
     20 O           8.3368   75.2519   28.1368 O.2     1  UNL1       -0.2884
     21 C          10.5714   75.9185   27.6209 C.3     1  UNL1        0.2169
     22 O          11.4630   75.3013   28.5116 O.3     1  UNL1       -0.3739
     23 H          12.2065   74.9339   27.9654 H       1  UNL1        0.2110
     24 O           8.8642   80.5423   31.8629 O.3     1  UNL1       -0.4712
     25 C           9.1862   81.8733   31.4725 C.3     1  UNL1        0.2525
     26 O           7.0685   76.2681   30.2176 O.3     1  UNL1       -0.4711
     27 C           5.9875   76.1904   31.1412 C.3     1  UNL1        0.2525
     28 C           6.1651   76.7497   22.5894 C.ar    1  UNL1        0.0241
     29 C           5.1391   77.2475   21.7716 C.ar    1  UNL1        0.0026
     30 C           3.8227   77.2992   22.2323 C.ar    1  UNL1        0.0398
     31 C           3.5044   76.8632   23.5313 C.ar    1  UNL1        0.1724
     32 C           4.5217   76.3788   24.3666 C.ar    1  UNL1        0.1722
     33 C           5.8473   76.3304   23.8944 C.ar    1  UNL1        0.0393
     34 O           2.1921   76.8985   24.0288 O.3     1  UNL1       -0.4684
     35 C           1.6824   77.9130   24.8883 C.3     1  UNL1        0.2526
     36 O           4.1775   75.9560   25.6610 O.3     1  UNL1       -0.4684
     37 C           4.9494   76.2188   26.8294 C.3     1  UNL1        0.2526
     38 C           9.1673   78.0129   20.5172 C.3     1  UNL1        0.1897
     39 C           7.6394   79.2024   19.2346 C.3     1  UNL1        0.1743
     40 O           9.0026   78.8871   19.4153 O.3     1  UNL1       -0.3471
@<TRIPOS>BOND
     1    39    40    1
     2    40    38    1
     3    38     1    1
     4     1     2    1
     5     2     3    1
     6     3     4   ar
     7     4     5   ar
     8     5     6   ar
     9     6    11    1
    10    11    12    1
    11    12    13    1
    12    13    14   ar
    13    14    15   ar
    14    15    24    1
    15    24    25    1
    16    15    16   ar
    17    16    17   ar
    18    17    26    1
    19    26    27    1
    20    17    18   ar
    21    18    19    1
    22    19    20    2
    23    19    21    1
    24    21    22    1
    25     6     7   ar
    26     7     8   ar
    27     8     9    1
    28     9    10    1
    29    10    28    1
    30    28    29   ar
    31    29    30   ar
    32    30    31   ar
    33    31    34    1
    34    34    35    1
    35    31    32   ar
    36    32    36    1
    37    36    37    1
    38    32    33   ar
    39    10     1    1
    40    33    28   ar
    41     8     3   ar
    42    21    11    1
    43    18    13   ar
    44    22    23    1
@<TRIPOS>MOLECULE
*****
 40 44 0 0 0
SMALL
GASTEIGER

@<TRIPOS>ATOM
      1 C           9.0378   73.0315   21.8161 C.3     1  UNL1        0.2392
      2 O           9.6374   74.3291   21.8992 O.3     1  UNL1       -0.4694
      3 C           9.6243   75.0658   23.0865 C.ar    1  UNL1        0.1723
      4 C          10.4402   76.1872   23.2378 C.ar    1  UNL1        0.0398
      5 C          10.4105   76.9173   24.4301 C.ar    1  UNL1        0.0026
      6 C           9.5700   76.5212   25.4916 C.ar    1  UNL1        0.0233
      7 C           8.7468   75.3925   25.3206 C.ar    1  UNL1        0.0393
      8 C           8.7634   74.6807   24.1192 C.ar    1  UNL1        0.1725
      9 O           7.8911   73.6049   23.9178 O.3     1  UNL1       -0.4679
     10 C           7.7180   72.9890   22.6329 C.3     1  UNL1        0.2305
     11 C           9.4553   77.3246   26.7755 C.3     1  UNL1        0.2223
     12 O           8.1696   77.1659   27.3912 O.3     1  UNL1       -0.4715
     13 C           7.8833   76.1731   28.3402 C.ar    1  UNL1        0.1477
     14 C           6.5610   75.9772   28.7401 C.ar    1  UNL1        0.0741
     15 C           6.2330   74.9694   29.6490 C.ar    1  UNL1        0.1448
     16 C           7.2530   74.1507   30.1677 C.ar    1  UNL1        0.0741
     17 C           8.5967   74.3452   29.7878 C.ar    1  UNL1        0.1475
     18 C           8.9105   75.3713   28.8697 C.ar    1  UNL1        0.1052
     19 C          10.2983   75.6660   28.4440 C.2     1  UNL1        0.2095
     20 O          11.2412   74.8647   28.6845 O.2     1  UNL1       -0.2884
     21 C          10.5937   76.9692   27.7594 C.3     1  UNL1        0.2169
     22 O          10.7071   77.9676   28.7391 O.3     1  UNL1       -0.3739
     23 H          11.1771   78.7332   28.3160 H       1  UNL1        0.2110
     24 O           4.8854   74.8130   30.0078 O.3     1  UNL1       -0.4712
     25 C           4.1028   73.6588   29.7194 C.3     1  UNL1        0.2525
     26 O           9.6298   73.5484   30.3099 O.3     1  UNL1       -0.4711
     27 C           9.5136   72.7181   31.4609 C.3     1  UNL1        0.2525
     28 C           6.5793   73.6335   21.8606 C.ar    1  UNL1        0.0241
     29 C           6.5852   73.5766   20.4585 C.ar    1  UNL1        0.0026
     30 C           5.5742   74.1890   19.7164 C.ar    1  UNL1        0.0398
     31 C           4.5368   74.8849   20.3634 C.ar    1  UNL1        0.1724
     32 C           4.5263   74.9649   21.7636 C.ar    1  UNL1        0.1722
     33 C           5.5503   74.3448   22.5049 C.ar    1  UNL1        0.0393
     34 O           3.5022   75.5117   19.6510 O.3     1  UNL1       -0.4684
     35 C           3.6599   76.1338   18.3798 C.3     1  UNL1        0.2526
     36 O           3.4826   75.6712   22.3839 O.3     1  UNL1       -0.4684
     37 C           3.6590   76.6156   23.4360 C.3     1  UNL1        0.2526
     38 C          10.0343   71.9743   22.3224 C.3     1  UNL1        0.1897
     39 C          12.2872   72.4428   22.0080 C.3     1  UNL1        0.1743
     40 O          11.1334   71.8670   21.4359 O.3     1  UNL1       -0.3471
@<TRIPOS>BOND
     1    39    40    1
     2    40    38    1
     3    38     1    1
     4     1     2    1
     5     2     3    1
     6     3     4   ar
     7     4     5   ar
     8     5     6   ar
     9     6    11    1
    10    11    12    1
    11    12    13    1
    12    13    14   ar
    13    14    15   ar
    14    15    24    1
    15    24    25    1
    16    15    16   ar
    17    16    17   ar
    18    17    26    1
    19    26    27    1
    20    17    18   ar
    21    18    19    1
    22    19    20    2
    23    19    21    1
    24    21    22    1
    25     6     7   ar
    26     7     8   ar
    27     8     9    1
    28     9    10    1
    29    10    28    1
    30    28    29   ar
    31    29    30   ar
    32    30    31   ar
    33    31    34    1
    34    34    35    1
    35    31    32   ar
    36    32    36    1
    37    36    37    1
    38    32    33   ar
    39    10     1    1
    40    33    28   ar
    41     8     3   ar
    42    21    11    1
    43    18    13   ar
    44    22    23    1
@<TRIPOS>MOLECULE
*****
 40 44 0 0 0
SMALL
GASTEIGER

@<TRIPOS>ATOM
      1 C           7.8798   75.9858   22.0347 C.3     1  UNL1        0.2392
      2 O           8.4099   77.0145   22.8779 O.3     1  UNL1       -0.4694
      3 C           8.8968   76.7327   24.1570 C.ar    1  UNL1        0.1723
      4 C           9.6569   77.6731   24.8527 C.ar    1  UNL1        0.0398
      5 C          10.1314   77.3779   26.1345 C.ar    1  UNL1        0.0026
      6 C           9.8596   76.1275   26.7284 C.ar    1  UNL1        0.0233
      7 C           9.0845   75.1925   26.0171 C.ar    1  UNL1        0.0393
      8 C           8.5936   75.5015   24.7468 C.ar    1  UNL1        0.1725
      9 O           7.7593   74.6049   24.0693 O.3     1  UNL1       -0.4679
     10 C           7.0581   74.9673   22.8704 C.3     1  UNL1        0.2305
     11 C          10.2958   75.7925   28.1442 C.3     1  UNL1        0.2223
     12 O          10.3586   76.9608   28.9738 O.3     1  UNL1       -0.4715
     13 C           9.2779   77.4268   29.7374 C.ar    1  UNL1        0.1477
     14 C           9.3736   78.6712   30.3611 C.ar    1  UNL1        0.0741
     15 C           8.3015   79.1865   31.0922 C.ar    1  UNL1        0.1448
     16 C           7.1176   78.4343   31.2021 C.ar    1  UNL1        0.0741
     17 C           7.0092   77.1676   30.5927 C.ar    1  UNL1        0.1475
     18 C           8.1045   76.6607   29.8595 C.ar    1  UNL1        0.1052
     19 C           8.0877   75.3260   29.2176 C.2     1  UNL1        0.2095
     20 O           7.0149   74.6780   29.0818 O.2     1  UNL1       -0.2884
     21 C           9.3823   74.7124   28.7684 C.3     1  UNL1        0.2169
     22 O          10.0121   74.1415   29.8850 O.3     1  UNL1       -0.3739
     23 H          10.6927   73.5073   29.5378 H       1  UNL1        0.2110
     24 O           8.4517   80.4471   31.6901 O.3     1  UNL1       -0.4712
     25 C           9.1982   81.5220   31.1289 C.3     1  UNL1        0.2525
     26 O           5.8406   76.3954   30.7075 O.3     1  UNL1       -0.4711
     27 C           4.5209   76.9244   30.7844 C.3     1  UNL1        0.2525
     28 C           5.6743   75.5110   23.1829 C.ar    1  UNL1        0.0241
     29 C           4.7694   75.7240   22.1318 C.ar    1  UNL1        0.0026
     30 C           3.5030   76.2561   22.3788 C.ar    1  UNL1        0.0398
     31 C           3.1168   76.5992   23.6873 C.ar    1  UNL1        0.1724
     32 C           4.0164   76.4078   24.7462 C.ar    1  UNL1        0.1722
     33 C           5.2923   75.8710   24.4884 C.ar    1  UNL1        0.0393
     34 O           1.8513   77.1349   23.9747 O.3     1  UNL1       -0.4684
     35 C           1.2882   78.2683   23.3221 C.3     1  UNL1        0.2526
     36 O           3.6077   76.7648   26.0417 O.3     1  UNL1       -0.4684
     37 C           4.4806   76.8797   27.1620 C.3     1  UNL1        0.2526
     38 C           9.0330   75.2879   21.2928 C.3     1  UNL1        0.1897
     39 C          11.3379   75.3875   21.5599 C.3     1  UNL1        0.1743
     40 O          10.1745   76.1250   21.2553 O.3     1  UNL1       -0.3471
@<TRIPOS>BOND
     1    39    40    1
     2    40    38    1
     3    38     1    1
     4     1     2    1
     5     2     3    1
     6     3     4   ar
     7     4     5   ar
     8     5     6   ar
     9     6    11    1
    10    11    12    1
    11    12    13    1
    12    13    14   ar
    13    14    15   ar
    14    15    24    1
    15    24    25    1
    16    15    16   ar
    17    16    17   ar
    18    17    26    1
    19    26    27    1
    20    17    18   ar
    21    18    19    1
    22    19    20    2
    23    19    21    1
    24    21    22    1
    25     6     7   ar
    26     7     8   ar
    27     8     9    1
    28     9    10    1
    29    10    28    1
    30    28    29   ar
    31    29    30   ar
    32    30    31   ar
    33    31    34    1
    34    34    35    1
    35    31    32   ar
    36    32    36    1
    37    36    37    1
    38    32    33   ar
    39    10     1    1
    40    33    28   ar
    41     8     3   ar
    42    21    11    1
    43    18    13   ar
    44    22    23    1
@<TRIPOS>MOLECULE
*****
 40 44 0 0 0
SMALL
GASTEIGER

@<TRIPOS>ATOM
      1 C           7.3385   75.3365   21.8449 C.3     1  UNL1        0.2392
      2 O           7.8653   76.6397   22.1176 O.3     1  UNL1       -0.4694
      3 C           8.2028   77.0351   23.4147 C.ar    1  UNL1        0.1723
      4 C           8.9649   78.1829   23.6336 C.ar    1  UNL1        0.0398
      5 C           9.2888   78.5683   24.9382 C.ar    1  UNL1        0.0026
      6 C           8.8623   77.7968   26.0396 C.ar    1  UNL1        0.0233
      7 C           8.0872   76.6461   25.8028 C.ar    1  UNL1        0.0393
      8 C           7.7471   76.2787   24.4991 C.ar    1  UNL1        0.1725
      9 O           6.9131   75.1795   24.2647 O.3     1  UNL1       -0.4679
     10 C           6.3617   74.8985   22.9696 C.3     1  UNL1        0.2305
     11 C           9.1321   78.2166   27.4742 C.3     1  UNL1        0.2223
     12 O           7.9554   78.1202   28.2886 O.3     1  UNL1       -0.4715
     13 C           7.6045   76.9680   29.0080 C.ar    1  UNL1        0.1477
     14 C           6.3507   76.9030   29.6168 C.ar    1  UNL1        0.0741
     15 C           5.9502   75.7552   30.3033 C.ar    1  UNL1        0.1448
     16 C           6.8281   74.6586   30.3832 C.ar    1  UNL1        0.0741
     17 C           8.1054   74.7129   29.7886 C.ar    1  UNL1        0.1475
     18 C           8.4950   75.8830   29.1008 C.ar    1  UNL1        0.1052
     19 C           9.8299   76.0369   28.4778 C.2     1  UNL1        0.2095
     20 O          10.5944   75.0480   28.3145 O.2     1  UNL1       -0.2884
     21 C          10.3004   77.4067   28.0820 C.3     1  UNL1        0.2169
     22 O          10.7862   78.0556   29.2276 O.3     1  UNL1       -0.3739
     23 H          11.3444   78.8142   28.9130 H       1  UNL1        0.2110
     24 O           4.6746   75.7435   30.8879 O.3     1  UNL1       -0.4712
     25 C           3.6174   76.6294   30.5343 C.3     1  UNL1        0.2525
     26 O           9.0014   73.6336   29.8744 O.3     1  UNL1       -0.4711
     27 C           9.4315   73.0286   31.0895 C.3     1  UNL1        0.2525
     28 C           5.0019   75.5533   22.7944 C.ar    1  UNL1        0.0241
     29 C           4.4151   76.2138   23.8846 C.ar    1  UNL1        0.0026
     30 C           3.1515   76.7950   23.7692 C.ar    1  UNL1        0.0398
     31 C           2.4391   76.7175   22.5587 C.ar    1  UNL1        0.1724
     32 C           3.0052   76.0460   21.4652 C.ar    1  UNL1        0.1722
     33 C           4.2803   75.4619   21.5900 C.ar    1  UNL1        0.0393
     34 O           1.1670   77.2911   22.4043 O.3     1  UNL1       -0.4684
     35 C           0.9319   78.6632   22.1048 C.3     1  UNL1        0.2526
     36 O           2.2698   75.9779   20.2704 O.3     1  UNL1       -0.4684
     37 C           2.7567   75.4227   19.0519 C.3     1  UNL1        0.2526
     38 C           8.4984   74.3359   21.7009 C.3     1  UNL1        0.1897
     39 C          10.7870   74.5389   22.0402 C.3     1  UNL1        0.1743
     40 O           9.6804   75.0045   21.2994 O.3     1  UNL1       -0.3471
@<TRIPOS>BOND
     1    39    40    1
     2    40    38    1
     3    38     1    1
     4     1     2    1
     5     2     3    1
     6     3     4   ar
     7     4     5   ar
     8     5     6   ar
     9     6    11    1
    10    11    12    1
    11    12    13    1
    12    13    14   ar
    13    14    15   ar
    14    15    24    1
    15    24    25    1
    16    15    16   ar
    17    16    17   ar
    18    17    26    1
    19    26    27    1
    20    17    18   ar
    21    18    19    1
    22    19    20    2
    23    19    21    1
    24    21    22    1
    25     6     7   ar
    26     7     8   ar
    27     8     9    1
    28     9    10    1
    29    10    28    1
    30    28    29   ar
    31    29    30   ar
    32    30    31   ar
    33    31    34    1
    34    34    35    1
    35    31    32   ar
    36    32    36    1
    37    36    37    1
    38    32    33   ar
    39    10     1    1
    40    33    28   ar
    41     8     3   ar
    42    21    11    1
    43    18    13   ar
    44    22    23    1
@<TRIPOS>MOLECULE
*****
 40 44 0 0 0
SMALL
GASTEIGER

@<TRIPOS>ATOM
      1 C           9.6499   74.9094   21.5978 C.3     1  UNL1        0.2392
      2 O           9.5867   76.3397   21.6171 O.3     1  UNL1       -0.4694
      3 C           9.4550   77.0496   22.8135 C.ar    1  UNL1        0.1723
      4 C           9.6733   78.4269   22.8520 C.ar    1  UNL1        0.0398
      5 C           9.5313   79.1235   24.0562 C.ar    1  UNL1        0.0026
      6 C           9.1814   78.4421   25.2407 C.ar    1  UNL1        0.0233
      7 C           8.9564   77.0538   25.1840 C.ar    1  UNL1        0.0393
      8 C           9.0770   76.3669   23.9740 C.ar    1  UNL1        0.1725
      9 O           8.7794   75.0014   23.8988 O.3     1  UNL1       -0.4679
     10 C           8.6756   74.3078   22.6464 C.3     1  UNL1        0.2305
     11 C           8.9487   79.1693   26.5537 C.3     1  UNL1        0.2223
     12 O           7.6155   78.9717   27.0442 O.3     1  UNL1       -0.4715
     13 C           7.2552   77.9248   27.9059 C.ar    1  UNL1        0.1477
     14 C           5.9046   77.7023   28.1765 C.ar    1  UNL1        0.0741
     15 C           5.5065   76.6426   28.9938 C.ar    1  UNL1        0.1448
     16 C           6.4837   75.7981   29.5519 C.ar    1  UNL1        0.0741
     17 C           7.8539   76.0181   29.3029 C.ar    1  UNL1        0.1475
     18 C           8.2386   77.0965   28.4763 C.ar    1  UNL1        0.1052
     19 C           9.6558   77.4193   28.1915 C.2     1  UNL1        0.2095
     20 O          10.5805   76.6080   28.4673 O.2     1  UNL1       -0.2884
     21 C           9.9997   78.7608   27.6115 C.3     1  UNL1        0.2169
     22 O          10.0193   79.7010   28.6532 O.3     1  UNL1       -0.3739
     23 H          10.5184   80.4911   28.3175 H       1  UNL1        0.2110
     24 O           4.1340   76.4619   29.2235 O.3     1  UNL1       -0.4712
     25 C           3.4647   76.8162   30.4294 C.3     1  UNL1        0.2525
     26 O           8.8437   75.1952   29.8669 O.3     1  UNL1       -0.4711
     27 C           8.8631   73.7738   29.7846 C.3     1  UNL1        0.2525
     28 C           7.2474   74.3140   22.1284 C.ar    1  UNL1        0.0241
     29 C           6.9532   73.6553   20.9249 C.ar    1  UNL1        0.0026
     30 C           5.6594   73.6716   20.4016 C.ar    1  UNL1        0.0398
     31 C           4.6296   74.3604   21.0680 C.ar    1  UNL1        0.1724
     32 C           4.9118   75.0377   22.2633 C.ar    1  UNL1        0.1722
     33 C           6.2198   75.0168   22.7842 C.ar    1  UNL1        0.0393
     34 O           3.3162   74.3977   20.5734 O.3     1  UNL1       -0.4684
     35 C           2.8891   75.2024   19.4791 C.3     1  UNL1        0.2526
     36 O           3.8668   75.7228   22.9048 O.3     1  UNL1       -0.4684
     37 C           4.0236   76.5299   24.0685 C.3     1  UNL1        0.2526
     38 C          11.0962   74.4578   21.8653 C.3     1  UNL1        0.1897
     39 C          12.1345   72.3919   21.6461 C.3     1  UNL1        0.1743
     40 O          11.1196   73.1132   22.3092 O.3     1  UNL1       -0.3471
@<TRIPOS>BOND
     1    39    40    1
     2    40    38    1
     3    38     1    1
     4     1     2    1
     5     2     3    1
     6     3     4   ar
     7     4     5   ar
     8     5     6   ar
     9     6    11    1
    10    11    12    1
    11    12    13    1
    12    13    14   ar
    13    14    15   ar
    14    15    24    1
    15    24    25    1
    16    15    16   ar
    17    16    17   ar
    18    17    26    1
    19    26    27    1
    20    17    18   ar
    21    18    19    1
    22    19    20    2
    23    19    21    1
    24    21    22    1
    25     6     7   ar
    26     7     8   ar
    27     8     9    1
    28     9    10    1
    29    10    28    1
    30    28    29   ar
    31    29    30   ar
    32    30    31   ar
    33    31    34    1
    34    34    35    1
    35    31    32   ar
    36    32    36    1
    37    36    37    1
    38    32    33   ar
    39    10     1    1
    40    33    28   ar
    41     8     3   ar
    42    21    11    1
    43    18    13   ar
    44    22    23    1
@<TRIPOS>MOLECULE
*****
 40 44 0 0 0
SMALL
GASTEIGER

@<TRIPOS>ATOM
      1 C           7.9632   75.6239   22.0758 C.3     1  UNL1        0.2392
      2 O           8.5690   76.6870   22.8194 O.3     1  UNL1       -0.4694
      3 C           9.0655   76.4860   24.1100 C.ar    1  UNL1        0.1723
      4 C           9.8927   77.4353   24.7106 C.ar    1  UNL1        0.0398
      5 C          10.3760   77.2219   26.0053 C.ar    1  UNL1        0.0026
      6 C          10.0452   76.0445   26.7082 C.ar    1  UNL1        0.0233
      7 C           9.2029   75.1001   26.0919 C.ar    1  UNL1        0.0393
      8 C           8.7043   75.3291   24.8077 C.ar    1  UNL1        0.1725
      9 O           7.8058   74.4294   24.2227 O.3     1  UNL1       -0.4679
     10 C           7.1019   74.7299   23.0085 C.3     1  UNL1        0.2305
     11 C          10.4907   75.8051   28.1404 C.3     1  UNL1        0.2223
     12 O          10.4344   77.0048   28.9244 O.3     1  UNL1       -0.4715
     13 C           9.3049   77.3974   29.6581 C.ar    1  UNL1        0.1477
     14 C           9.2771   78.6681   30.2338 C.ar    1  UNL1        0.0741
     15 C           8.1522   79.1094   30.9332 C.ar    1  UNL1        0.1448
     16 C           7.0410   78.2557   31.0602 C.ar    1  UNL1        0.0741
     17 C           7.0581   76.9621   30.4996 C.ar    1  UNL1        0.1475
     18 C           8.2054   76.5313   29.7980 C.ar    1  UNL1        0.1052
     19 C           8.3203   75.1774   29.2085 C.2     1  UNL1        0.2095
     20 O           7.3137   74.4283   29.0870 O.2     1  UNL1       -0.2884
     21 C           9.6720   74.6696   28.7968 C.3     1  UNL1        0.2169
     22 O          10.3362   74.2021   29.9413 O.3     1  UNL1       -0.3739
     23 H          11.0769   73.6208   29.6261 H       1  UNL1        0.2110
     24 O           8.1775   80.4002   31.4830 O.3     1  UNL1       -0.4712
     25 C           9.1973   81.3626   31.2348 C.3     1  UNL1        0.2525
     26 O           5.9640   76.0901   30.6325 O.3     1  UNL1       -0.4711
     27 C           4.5981   76.4767   30.5217 C.3     1  UNL1        0.2525
     28 C           5.7584   75.3789   23.2953 C.ar    1  UNL1        0.0241
     29 C           5.4433   75.7462   24.6124 C.ar    1  UNL1        0.0026
     30 C           4.2041   76.3115   24.9172 C.ar    1  UNL1        0.0398
     31 C           3.2444   76.5116   23.9084 C.ar    1  UNL1        0.1724
     32 C           3.5383   76.1341   22.5900 C.ar    1  UNL1        0.1722
     33 C           4.7905   75.5640   22.2909 C.ar    1  UNL1        0.0393
     34 O           1.9883   77.0787   24.1764 O.3     1  UNL1       -0.4684
     35 C           1.7512   78.0897   25.1507 C.3     1  UNL1        0.2526
     36 O           2.5599   76.3391   21.6033 O.3     1  UNL1       -0.4684
     37 C           2.4564   75.5857   20.3984 C.3     1  UNL1        0.2526
     38 C           9.0586   74.7989   21.3781 C.3     1  UNL1        0.1897
     39 C          11.2798   74.3417   21.8796 C.3     1  UNL1        0.1743
     40 O          10.3346   75.3589   21.6302 O.3     1  UNL1       -0.3471
@<TRIPOS>BOND
     1    39    40    1
     2    40    38    1
     3    38     1    1
     4     1     2    1
     5     2     3    1
     6     3     4   ar
     7     4     5   ar
     8     5     6   ar
     9     6    11    1
    10    11    12    1
    11    12    13    1
    12    13    14   ar
    13    14    15   ar
    14    15    24    1
    15    24    25    1
    16    15    16   ar
    17    16    17   ar
    18    17    26    1
    19    26    27    1
    20    17    18   ar
    21    18    19    1
    22    19    20    2
    23    19    21    1
    24    21    22    1
    25     6     7   ar
    26     7     8   ar
    27     8     9    1
    28     9    10    1
    29    10    28    1
    30    28    29   ar
    31    29    30   ar
    32    30    31   ar
    33    31    34    1
    34    34    35    1
    35    31    32   ar
    36    32    36    1
    37    36    37    1
    38    32    33   ar
    39    10     1    1
    40    33    28   ar
    41     8     3   ar
    42    21    11    1
    43    18    13   ar
    44    22    23    1
@<TRIPOS>MOLECULE
*****
 40 44 0 0 0
SMALL
GASTEIGER

@<TRIPOS>ATOM
      1 C           4.5861   76.1525   28.6010 C.3     1  UNL1        0.2392
      2 O           5.5810   75.2450   28.1143 O.3     1  UNL1       -0.4694
      3 C           6.8437   75.6903   27.7145 C.ar    1  UNL1        0.1723
      4 C           7.8862   74.7860   27.5108 C.ar    1  UNL1        0.0398
      5 C           9.1422   75.2473   27.1047 C.ar    1  UNL1        0.0026
      6 C           9.3706   76.6259   26.9112 C.ar    1  UNL1        0.0233
      7 C           8.3066   77.5249   27.1127 C.ar    1  UNL1        0.0393
      8 C           7.0480   77.0564   27.4958 C.ar    1  UNL1        0.1725
      9 O           5.9689   77.9388   27.6223 O.3     1  UNL1       -0.4679
     10 C           4.6201   77.4797   27.7958 C.3     1  UNL1        0.2305
     11 C          10.6977   77.1626   26.4037 C.3     1  UNL1        0.2223
     12 O          11.3641   76.2200   25.5523 O.3     1  UNL1       -0.4715
     13 C          11.1911   76.1771   24.1607 C.ar    1  UNL1        0.1477
     14 C          11.7306   75.1098   23.4420 C.ar    1  UNL1        0.0741
     15 C          11.5406   75.0110   22.0623 C.ar    1  UNL1        0.1448
     16 C          10.8015   76.0054   21.3956 C.ar    1  UNL1        0.0741
     17 C          10.2635   77.0998   22.1031 C.ar    1  UNL1        0.1475
     18 C          10.4680   77.1852   23.4978 C.ar    1  UNL1        0.1052
     19 C           9.9678   78.3175   24.3112 C.2     1  UNL1        0.2095
     20 O           9.1266   79.1347   23.8489 O.2     1  UNL1       -0.2884
     21 C          10.5142   78.5240   25.6943 C.3     1  UNL1        0.2169
     22 O          11.7515   79.1777   25.5879 O.3     1  UNL1       -0.3739
     23 H          11.9530   79.5584   26.4826 H       1  UNL1        0.2110
     24 O          12.0986   73.9109   21.3934 O.3     1  UNL1       -0.4712
     25 C          11.9566   72.5567   21.8102 C.3     1  UNL1        0.2525
     26 O           9.5382   78.1110   21.4501 O.3     1  UNL1       -0.4711
     27 C           8.3024   77.9155   20.7702 C.3     1  UNL1        0.2525
     28 C           3.9138   77.3235   26.4598 C.ar    1  UNL1        0.0241
     29 C           2.6360   77.8788   26.2923 C.ar    1  UNL1        0.0026
     30 C           1.9436   77.7234   25.0905 C.ar    1  UNL1        0.0398
     31 C           2.5121   76.9956   24.0293 C.ar    1  UNL1        0.1724
     32 C           3.7814   76.4203   24.1874 C.ar    1  UNL1        0.1722
     33 C           4.4731   76.5813   25.4032 C.ar    1  UNL1        0.0393
     34 O           1.8468   76.8195   22.8056 O.3     1  UNL1       -0.4684
     35 C           1.2639   77.8731   22.0456 C.3     1  UNL1        0.2526
     36 O           4.3229   75.6934   23.1145 O.3     1  UNL1       -0.4684
     37 C           5.6964   75.3346   22.9924 C.3     1  UNL1        0.2526
     38 C           4.8186   76.4104   30.0999 C.3     1  UNL1        0.1897
     39 C           6.4033   77.6865   31.2199 C.3     1  UNL1        0.1743
     40 O           5.3317   77.7146   30.3028 O.3     1  UNL1       -0.3471
@<TRIPOS>BOND
     1    39    40    1
     2    40    38    1
     3    38     1    1
     4     1     2    1
     5     2     3    1
     6     3     4   ar
     7     4     5   ar
     8     5     6   ar
     9     6    11    1
    10    11    12    1
    11    12    13    1
    12    13    14   ar
    13    14    15   ar
    14    15    24    1
    15    24    25    1
    16    15    16   ar
    17    16    17   ar
    18    17    26    1
    19    26    27    1
    20    17    18   ar
    21    18    19    1
    22    19    20    2
    23    19    21    1
    24    21    22    1
    25     6     7   ar
    26     7     8   ar
    27     8     9    1
    28     9    10    1
    29    10    28    1
    30    28    29   ar
    31    29    30   ar
    32    30    31   ar
    33    31    34    1
    34    34    35    1
    35    31    32   ar
    36    32    36    1
    37    36    37    1
    38    32    33   ar
    39    10     1    1
    40    33    28   ar
    41     8     3   ar
    42    21    11    1
    43    18    13   ar
    44    22    23    1
