@<TRIPOS>MOLECULE
*****
 49 54 0 0 0
SMALL
GASTEIGER

@<TRIPOS>ATOM
      1 O          63.6279   88.0882   15.7214 O.2     1  UNL1       -0.2701
      2 C          63.9496   87.5219   14.6414 C.2     1  UNL1        0.2483
      3 N          64.5098   88.2943   13.5657 N.am    1  UNL1       -0.2945
      4 H          64.8500   87.7928   12.7160 H       1  UNL1        0.1501
      5 C          63.6525   86.0846   14.4654 C.ar    1  UNL1        0.0808
      6 C          62.3770   85.7009   14.0210 C.ar    1  UNL1        0.0080
      7 C          62.0945   84.3617   13.7452 C.ar    1  UNL1        0.0148
      8 C          63.0769   83.3774   13.9258 C.ar    1  UNL1        0.0502
      9 C          64.3418   83.7533   14.4052 C.ar    1  UNL1        0.0443
     10 C          64.6290   85.0938   14.6801 C.ar    1  UNL1        0.1457
     11 F          65.8494   85.4103   15.1818 F       1  UNL1       -0.2040
     12 N          62.8037   82.0058   13.5846 N.pl3   1  UNL1       -0.3040
     13 C          61.7680   81.2708   14.3291 C.3     1  UNL1        0.1122
     14 C          61.4208   79.9465   13.6409 C.3     1  UNL1        0.1122
     15 N          61.3144   80.1566   12.1900 N.pl3   1  UNL1       -0.3041
     16 C          62.4117   80.8225   11.4686 C.3     1  UNL1        0.1122
     17 C          63.4666   81.3695   12.4375 C.3     1  UNL1        0.1122
     18 C          60.1115   79.8025   11.4814 C.ar    1  UNL1        0.0479
     19 C          59.3361   78.7089   11.8998 C.ar    1  UNL1        0.0145
     20 C          58.1703   78.3669   11.2125 C.ar    1  UNL1        0.0012
     21 C          57.7583   79.1185   10.1101 C.ar    1  UNL1        0.0039
     22 C          58.5005   80.2374    9.6955 C.ar    1  UNL1        0.0726
     23 C          59.6884   80.5602   10.3759 C.ar    1  UNL1        0.0184
     24 C          58.0840   81.0220    8.4766 C.3     1  UNL1        0.4186
     25 F          59.2122   81.4931    7.8315 F       1  UNL1       -0.1659
     26 F          57.2887   82.0962    8.8368 F       1  UNL1       -0.1659
     27 F          57.3643   80.2257    7.6026 F       1  UNL1       -0.1659
     28 C          64.2662   89.7352   13.4358 C.3     1  UNL1        0.1535
     29 C          65.4459   90.3984   12.7740 C.2     1  UNL1        0.2443
     30 O          66.5723   90.3474   13.3390 O.2     1  UNL1       -0.2730
     31 N          65.2822   91.1369   11.5508 N.am    1  UNL1       -0.2825
     32 H          64.3188   91.4388   11.2819 H       1  UNL1        0.1549
     33 C          66.3744   91.5772   10.7259 C.ar    1  UNL1        0.0535
     34 C          66.3397   92.8610   10.1643 C.ar    1  UNL1        0.0353
     35 C          67.3867   93.2852    9.3426 C.ar    1  UNL1        0.1002
     36 N          68.4254   92.4502    9.0760 N.ar    1  UNL1       -0.2422
     37 C          68.4778   91.1928    9.5896 C.ar    1  UNL1        0.1002
     38 C          67.4518   90.7294   10.4172 C.ar    1  UNL1        0.0353
     39 C          62.9785   89.9926   12.6311 C.3     1  UNL1        0.0569
     40 C          62.9082   89.1125   11.4147 C.ar    1  UNL1       -0.0017
     41 C          63.6200   89.2842   10.2314 C.ar    1  UNL1        0.0681
     42 N          63.2162   88.3878    9.3024 N.ar    1  UNL1       -0.3523
     43 C          62.2462   87.6608    9.8832 C.ar    1  UNL1        0.0563
     44 C          61.4902   86.6439    9.3010 C.ar    1  UNL1        0.0170
     45 C          60.4830   86.0448   10.0788 C.ar    1  UNL1        0.0015
     46 C          60.2521   86.4740   11.4043 C.ar    1  UNL1        0.0001
     47 C          61.0308   87.5020   11.9664 C.ar    1  UNL1        0.0012
     48 C          62.0267   88.0742   11.1725 C.ar    1  UNL1        0.0131
     49 H          63.5683   88.3017    8.3231 H       1  UNL1        0.1660
@<TRIPOS>BOND
     1     1     2    2
     2     2     3   am
     3     3    28    1
     4    28    39    1
     5    39    40    1
     6    40    41   ar
     7    41    42   ar
     8    42    43   ar
     9    43    44   ar
    10    44    45   ar
    11    45    46   ar
    12    46    47   ar
    13    47    48   ar
    14    28    29    1
    15    29    30    2
    16    29    31   am
    17    31    33    1
    18    33    34   ar
    19    34    35   ar
    20    35    36   ar
    21    36    37   ar
    22    37    38   ar
    23     2     5    1
    24     5     6   ar
    25     6     7   ar
    26     7     8   ar
    27     8    12    1
    28    12    13    1
    29    13    14    1
    30    14    15    1
    31    15    18    1
    32    18    19   ar
    33    19    20   ar
    34    20    21   ar
    35    21    22   ar
    36    22    24    1
    37    24    25    1
    38    24    26    1
    39    24    27    1
    40    22    23   ar
    41    15    16    1
    42    16    17    1
    43     8     9   ar
    44     9    10   ar
    45    10    11    1
    46    48    40   ar
    47    38    33   ar
    48    10     5   ar
    49    48    43   ar
    50    17    12    1
    51    23    18   ar
    52     3     4    1
    53    42    49    1
    54    31    32    1
@<TRIPOS>MOLECULE
*****
 49 54 0 0 0
SMALL
GASTEIGER

@<TRIPOS>ATOM
      1 O          64.4266   89.1695   10.3774 O.2     1  UNL1       -0.2701
      2 C          63.6210   88.9149   11.3139 C.2     1  UNL1        0.2483
      3 N          63.8338   89.4834   12.6174 N.am    1  UNL1       -0.2945
      4 H          63.1085   89.3315   13.3522 H       1  UNL1        0.1501
      5 C          62.5227   87.9541   11.0780 C.ar    1  UNL1        0.0808
      6 C          62.1700   87.0569   12.0990 C.ar    1  UNL1        0.0080
      7 C          61.0723   86.2072   11.9495 C.ar    1  UNL1        0.0148
      8 C          60.3165   86.2255   10.7683 C.ar    1  UNL1        0.0502
      9 C          60.6891   87.0954    9.7312 C.ar    1  UNL1        0.0443
     10 C          61.7863   87.9494    9.8785 C.ar    1  UNL1        0.1457
     11 F          62.1390   88.7444    8.8370 F       1  UNL1       -0.2040
     12 N          59.1498   85.3923   10.6385 N.pl3   1  UNL1       -0.3040
     13 C          58.9547   84.6131    9.4047 C.3     1  UNL1        0.1122
     14 C          57.8342   83.5809    9.5686 C.3     1  UNL1        0.1122
     15 N          57.9568   82.9220   10.8767 N.pl3   1  UNL1       -0.3041
     16 C          58.0658   83.7397   12.0963 C.3     1  UNL1        0.1122
     17 C          58.2138   85.2282   11.7597 C.3     1  UNL1        0.1122
     18 C          58.0644   81.4888   10.9716 C.ar    1  UNL1        0.0479
     19 C          57.8221   80.6821    9.8479 C.ar    1  UNL1        0.0145
     20 C          57.9272   79.2933    9.9410 C.ar    1  UNL1        0.0012
     21 C          58.2873   78.6952   11.1503 C.ar    1  UNL1        0.0039
     22 C          58.5680   79.4853   12.2780 C.ar    1  UNL1        0.0726
     23 C          58.4340   80.8823   12.1844 C.ar    1  UNL1        0.0184
     24 C          58.9104   78.8400   13.5975 C.3     1  UNL1        0.4186
     25 F          60.2635   78.9884   13.8388 F       1  UNL1       -0.1659
     26 F          58.6014   77.4909   13.5749 F       1  UNL1       -0.1659
     27 F          58.2011   79.4284   14.6303 F       1  UNL1       -0.1659
     28 C          65.1622   89.9098   13.0708 C.3     1  UNL1        0.1535
     29 C          65.6674   91.0306   12.2001 C.2     1  UNL1        0.2443
     30 O          65.7492   92.1921   12.6847 O.2     1  UNL1       -0.2730
     31 N          65.9888   90.7986   10.8177 N.am    1  UNL1       -0.2825
     32 H          65.6130   89.9371   10.3615 H       1  UNL1        0.1549
     33 C          66.7089   91.7307    9.9929 C.ar    1  UNL1        0.0535
     34 C          66.1091   92.9486    9.6443 C.ar    1  UNL1        0.0353
     35 C          66.7945   93.8474    8.8236 C.ar    1  UNL1        0.1002
     36 N          68.0302   93.5343    8.3521 N.ar    1  UNL1       -0.2422
     37 C          68.6298   92.3530    8.6563 C.ar    1  UNL1        0.1002
     38 C          67.9794   91.4261    9.4751 C.ar    1  UNL1        0.0353
     39 C          65.1114   90.3506   14.5457 C.3     1  UNL1        0.0569
     40 C          63.9514   89.7215   15.2652 C.ar    1  UNL1       -0.0017
     41 C          63.0645   90.3674   16.1210 C.ar    1  UNL1        0.0681
     42 N          62.2256   89.4746   16.6944 N.ar    1  UNL1       -0.3523
     43 C          62.5836   88.2691   16.2196 C.ar    1  UNL1        0.0563
     44 C          62.0384   87.0318   16.5608 C.ar    1  UNL1        0.0170
     45 C          62.6016   85.8815   15.9793 C.ar    1  UNL1        0.0015
     46 C          63.6886   85.9912   15.0844 C.ar    1  UNL1        0.0001
     47 C          64.2182   87.2529   14.7576 C.ar    1  UNL1        0.0012
     48 C          63.6355   88.3771   15.3459 C.ar    1  UNL1        0.0131
     49 H          61.4734   89.6810   17.3886 H       1  UNL1        0.1660
@<TRIPOS>BOND
     1     1     2    2
     2     2     3   am
     3     3    28    1
     4    28    39    1
     5    39    40    1
     6    40    41   ar
     7    41    42   ar
     8    42    43   ar
     9    43    44   ar
    10    44    45   ar
    11    45    46   ar
    12    46    47   ar
    13    47    48   ar
    14    28    29    1
    15    29    30    2
    16    29    31   am
    17    31    33    1
    18    33    34   ar
    19    34    35   ar
    20    35    36   ar
    21    36    37   ar
    22    37    38   ar
    23     2     5    1
    24     5     6   ar
    25     6     7   ar
    26     7     8   ar
    27     8    12    1
    28    12    13    1
    29    13    14    1
    30    14    15    1
    31    15    18    1
    32    18    19   ar
    33    19    20   ar
    34    20    21   ar
    35    21    22   ar
    36    22    24    1
    37    24    25    1
    38    24    26    1
    39    24    27    1
    40    22    23   ar
    41    15    16    1
    42    16    17    1
    43     8     9   ar
    44     9    10   ar
    45    10    11    1
    46    48    40   ar
    47    38    33   ar
    48    10     5   ar
    49    48    43   ar
    50    17    12    1
    51    23    18   ar
    52     3     4    1
    53    42    49    1
    54    31    32    1
@<TRIPOS>MOLECULE
*****
 49 54 0 0 0
SMALL
GASTEIGER

@<TRIPOS>ATOM
      1 O          63.5416   87.3625   16.3987 O.2     1  UNL1       -0.2701
      2 C          63.7311   86.9819   15.2113 C.2     1  UNL1        0.2483
      3 N          64.0931   87.9385   14.2006 N.am    1  UNL1       -0.2945
      4 H          64.3311   87.5898   13.2462 H       1  UNL1        0.1501
      5 C          63.4810   85.5682   14.8594 C.ar    1  UNL1        0.0808
      6 C          62.1603   85.1416   14.6459 C.ar    1  UNL1        0.0080
      7 C          61.8957   83.8412   14.2119 C.ar    1  UNL1        0.0148
      8 C          62.9459   82.9362   14.0003 C.ar    1  UNL1        0.0502
      9 C          64.2648   83.3487   14.2484 C.ar    1  UNL1        0.0443
     10 C          64.5336   84.6509   14.6807 C.ar    1  UNL1        0.1457
     11 F          65.8177   84.9974   14.9497 F       1  UNL1       -0.2040
     12 N          62.6771   81.6150   13.4958 N.pl3   1  UNL1       -0.3040
     13 C          61.6663   80.7801   14.1655 C.3     1  UNL1        0.1122
     14 C          61.3146   79.5484   13.3246 C.3     1  UNL1        0.1122
     15 N          61.1714   79.9375   11.9143 N.pl3   1  UNL1       -0.3041
     16 C          62.2449   80.7017   11.2575 C.3     1  UNL1        0.1122
     17 C          63.3178   81.1356   12.2631 C.3     1  UNL1        0.1122
     18 C          59.9550   79.6605   11.1944 C.ar    1  UNL1        0.0479
     19 C          59.1221   78.6005   11.5879 C.ar    1  UNL1        0.0145
     20 C          57.9433   78.3333   10.8898 C.ar    1  UNL1        0.0012
     21 C          57.5758   79.1271    9.8013 C.ar    1  UNL1        0.0039
     22 C          58.3769   80.2141    9.4120 C.ar    1  UNL1        0.0726
     23 C          59.5768   80.4611   10.1030 C.ar    1  UNL1        0.0184
     24 C          58.0072   81.0435    8.2078 C.3     1  UNL1        0.4186
     25 F          57.3252   80.2522    7.3025 F       1  UNL1       -0.1659
     26 F          59.1419   81.5508    7.5985 F       1  UNL1       -0.1659
     27 F          57.2010   82.1076    8.5735 F       1  UNL1       -0.1659
     28 C          63.7647   89.3628   14.3267 C.3     1  UNL1        0.1535
     29 C          65.0029   90.1960   14.1214 C.2     1  UNL1        0.2443
     30 O          64.9330   91.2273   13.3990 O.2     1  UNL1       -0.2730
     31 N          66.2629   89.7894   14.6831 N.am    1  UNL1       -0.2825
     32 H          66.3696   88.7958   14.9879 H       1  UNL1        0.1549
     33 C          67.4213   90.6380   14.7560 C.ar    1  UNL1        0.0535
     34 C          68.4553   90.4741   13.8240 C.ar    1  UNL1        0.0353
     35 C          69.5936   91.2797   13.9047 C.ar    1  UNL1        0.1002
     36 N          69.7044   92.2064   14.8928 N.ar    1  UNL1       -0.2422
     37 C          68.7277   92.3754   15.8229 C.ar    1  UNL1        0.1002
     38 C          67.5722   91.5912   15.7777 C.ar    1  UNL1        0.0353
     39 C          62.6737   89.7550   13.3128 C.3     1  UNL1        0.0569
     40 C          62.9310   89.1388   11.9663 C.ar    1  UNL1       -0.0017
     41 C          63.6640   89.7048   10.9277 C.ar    1  UNL1        0.0681
     42 N          63.5822   88.9364    9.8176 N.ar    1  UNL1       -0.3523
     43 C          62.7928   87.8976   10.1410 C.ar    1  UNL1        0.0563
     44 C          62.3762   86.8620    9.3053 C.ar    1  UNL1        0.0170
     45 C          61.5021   85.8973    9.8383 C.ar    1  UNL1        0.0015
     46 C          61.0640   85.9909   11.1776 C.ar    1  UNL1        0.0001
     47 C          61.5012   87.0466   11.9983 C.ar    1  UNL1        0.0012
     48 C          62.3725   87.9861   11.4437 C.ar    1  UNL1        0.0131
     49 H          64.0202   89.1307    8.8898 H       1  UNL1        0.1660
@<TRIPOS>BOND
     1     1     2    2
     2     2     3   am
     3     3    28    1
     4    28    39    1
     5    39    40    1
     6    40    41   ar
     7    41    42   ar
     8    42    43   ar
     9    43    44   ar
    10    44    45   ar
    11    45    46   ar
    12    46    47   ar
    13    47    48   ar
    14    28    29    1
    15    29    30    2
    16    29    31   am
    17    31    33    1
    18    33    34   ar
    19    34    35   ar
    20    35    36   ar
    21    36    37   ar
    22    37    38   ar
    23     2     5    1
    24     5     6   ar
    25     6     7   ar
    26     7     8   ar
    27     8    12    1
    28    12    13    1
    29    13    14    1
    30    14    15    1
    31    15    18    1
    32    18    19   ar
    33    19    20   ar
    34    20    21   ar
    35    21    22   ar
    36    22    24    1
    37    24    25    1
    38    24    26    1
    39    24    27    1
    40    22    23   ar
    41    15    16    1
    42    16    17    1
    43     8     9   ar
    44     9    10   ar
    45    10    11    1
    46    48    40   ar
    47    38    33   ar
    48    10     5   ar
    49    48    43   ar
    50    17    12    1
    51    23    18   ar
    52     3     4    1
    53    42    49    1
    54    31    32    1
@<TRIPOS>MOLECULE
*****
 49 54 0 0 0
SMALL
GASTEIGER

@<TRIPOS>ATOM
      1 O          63.5372   88.6226    9.3589 O.2     1  UNL1       -0.2701
      2 C          62.4404   88.3252    9.9060 C.2     1  UNL1        0.2483
      3 N          61.9946   89.0546   11.0622 N.am    1  UNL1       -0.2945
      4 H          61.0452   88.8511   11.4447 H       1  UNL1        0.1501
      5 C          61.6772   87.1628    9.4046 C.ar    1  UNL1        0.0808
      6 C          62.2358   85.8795    9.5178 C.ar    1  UNL1        0.0080
      7 C          61.5012   84.7506    9.1499 C.ar    1  UNL1        0.0148
      8 C          60.1999   84.8844    8.6446 C.ar    1  UNL1        0.0502
      9 C          59.6526   86.1686    8.4957 C.ar    1  UNL1        0.0443
     10 C          60.3844   87.3012    8.8653 C.ar    1  UNL1        0.1457
     11 F          59.8359   88.5263    8.6663 F       1  UNL1       -0.2040
     12 N          59.4214   83.7172    8.3219 N.pl3   1  UNL1       -0.3040
     13 C          60.1101   82.4849    7.9041 C.3     1  UNL1        0.1122
     14 C          59.1525   81.2887    7.8899 C.3     1  UNL1        0.1122
     15 N          58.3044   81.3204    9.0900 N.pl3   1  UNL1       -0.3041
     16 C          57.5655   82.5486    9.4269 C.3     1  UNL1        0.1122
     17 C          57.9636   83.7100    8.5085 C.3     1  UNL1        0.1122
     18 C          58.2600   80.1964    9.9896 C.ar    1  UNL1        0.0479
     19 C          57.5438   79.0386    9.6452 C.ar    1  UNL1        0.0145
     20 C          57.5018   77.9497   10.5176 C.ar    1  UNL1        0.0012
     21 C          58.1833   77.9982   11.7354 C.ar    1  UNL1        0.0039
     22 C          58.9345   79.1335   12.0846 C.ar    1  UNL1        0.0726
     23 C          58.9503   80.2373   11.2130 C.ar    1  UNL1        0.0184
     24 C          59.6320   79.2075   13.4198 C.3     1  UNL1        0.4186
     25 F          58.7553   78.8137   14.4134 F       1  UNL1       -0.1659
     26 F          60.0550   80.5001   13.6776 F       1  UNL1       -0.1659
     27 F          60.7399   78.3781   13.4413 F       1  UNL1       -0.1659
     28 C          62.9316   89.7583   11.9449 C.3     1  UNL1        0.1535
     29 C          62.8694   89.1731   13.3317 C.2     1  UNL1        0.2443
     30 O          62.8684   89.9513   14.3242 O.2     1  UNL1       -0.2730
     31 N          62.8788   87.7485   13.5286 N.am    1  UNL1       -0.2825
     32 H          63.2040   87.1437   12.7412 H       1  UNL1        0.1549
     33 C          62.5677   87.1080   14.7778 C.ar    1  UNL1        0.0535
     34 C          61.5059   86.1950   14.8384 C.ar    1  UNL1        0.0353
     35 C          61.1841   85.5879   16.0546 C.ar    1  UNL1        0.1002
     36 N          61.8871   85.8944   17.1767 N.ar    1  UNL1       -0.2422
     37 C          62.9089   86.7904   17.1539 C.ar    1  UNL1        0.1002
     38 C          63.2644   87.4194   15.9580 C.ar    1  UNL1        0.0353
     39 C          64.3640   89.6743   11.3854 C.3     1  UNL1        0.0569
     40 C          65.2403   90.7515   11.9606 C.ar    1  UNL1       -0.0017
     41 C          65.7096   91.8770   11.2905 C.ar    1  UNL1        0.0681
     42 N          66.5768   92.5635   12.0690 N.ar    1  UNL1       -0.3523
     43 C          66.6705   91.8745   13.2194 C.ar    1  UNL1        0.0563
     44 C          67.4839   92.1660   14.3139 C.ar    1  UNL1        0.0170
     45 C          67.4649   91.2765   15.4034 C.ar    1  UNL1        0.0015
     46 C          66.6473   90.1254   15.3731 C.ar    1  UNL1        0.0001
     47 C          65.8360   89.8566   14.2556 C.ar    1  UNL1        0.0012
     48 C          65.8715   90.7599   13.1915 C.ar    1  UNL1        0.0131
     49 H          67.0909   93.4355   11.8126 H       1  UNL1        0.1660
@<TRIPOS>BOND
     1     1     2    2
     2     2     3   am
     3     3    28    1
     4    28    39    1
     5    39    40    1
     6    40    41   ar
     7    41    42   ar
     8    42    43   ar
     9    43    44   ar
    10    44    45   ar
    11    45    46   ar
    12    46    47   ar
    13    47    48   ar
    14    28    29    1
    15    29    30    2
    16    29    31   am
    17    31    33    1
    18    33    34   ar
    19    34    35   ar
    20    35    36   ar
    21    36    37   ar
    22    37    38   ar
    23     2     5    1
    24     5     6   ar
    25     6     7   ar
    26     7     8   ar
    27     8    12    1
    28    12    13    1
    29    13    14    1
    30    14    15    1
    31    15    18    1
    32    18    19   ar
    33    19    20   ar
    34    20    21   ar
    35    21    22   ar
    36    22    24    1
    37    24    25    1
    38    24    26    1
    39    24    27    1
    40    22    23   ar
    41    15    16    1
    42    16    17    1
    43     8     9   ar
    44     9    10   ar
    45    10    11    1
    46    48    40   ar
    47    38    33   ar
    48    10     5   ar
    49    48    43   ar
    50    17    12    1
    51    23    18   ar
    52     3     4    1
    53    42    49    1
    54    31    32    1
@<TRIPOS>MOLECULE
*****
 49 54 0 0 0
SMALL
GASTEIGER

@<TRIPOS>ATOM
      1 O          63.9686   88.4888    9.5388 O.2     1  UNL1       -0.2701
      2 C          62.7995   88.3998   10.0034 C.2     1  UNL1        0.2483
      3 N          62.3813   89.2741   11.0656 N.am    1  UNL1       -0.2945
      4 H          61.3847   89.2433   11.3738 H       1  UNL1        0.1501
      5 C          61.9086   87.3276    9.5115 C.ar    1  UNL1        0.0808
      6 C          62.4737   86.1223    9.0647 C.ar    1  UNL1        0.0080
      7 C          61.6590   85.0518    8.6912 C.ar    1  UNL1        0.0148
      8 C          60.2626   85.1720    8.7399 C.ar    1  UNL1        0.0502
      9 C          59.6947   86.3883    9.1511 C.ar    1  UNL1        0.0443
     10 C          60.5075   87.4617    9.5282 C.ar    1  UNL1        0.1457
     11 F          59.9201   88.6335    9.8789 F       1  UNL1       -0.2040
     12 N          59.4240   84.0488    8.4120 N.pl3   1  UNL1       -0.3040
     13 C          60.0397   82.8197    7.8851 C.3     1  UNL1        0.1122
     14 C          59.0422   81.6566    7.8753 C.3     1  UNL1        0.1122
     15 N          58.2780   81.6504    9.1309 N.pl3   1  UNL1       -0.3041
     16 C          57.6067   82.8813    9.5804 C.3     1  UNL1        0.1122
     17 C          57.9826   84.0772    8.6977 C.3     1  UNL1        0.1122
     18 C          58.2548   80.4817    9.9725 C.ar    1  UNL1        0.0479
     19 C          57.5974   79.3149    9.5500 C.ar    1  UNL1        0.0145
     20 C          57.5759   78.1828   10.3663 C.ar    1  UNL1        0.0012
     21 C          58.2199   78.1973   11.6052 C.ar    1  UNL1        0.0039
     22 C          58.9130   79.3427   12.0324 C.ar    1  UNL1        0.0726
     23 C          58.9078   80.4887   11.2170 C.ar    1  UNL1        0.0184
     24 C          59.5686   79.3774   13.3902 C.3     1  UNL1        0.4186
     25 F          58.6412   79.0237   14.3524 F       1  UNL1       -0.1659
     26 F          60.0458   80.6467   13.6687 F       1  UNL1       -0.1659
     27 F          60.6331   78.4944   13.4440 F       1  UNL1       -0.1659
     28 C          63.3427   89.8978   11.9815 C.3     1  UNL1        0.1535
     29 C          63.2213   89.2825   13.3512 C.2     1  UNL1        0.2443
     30 O          63.4415   89.9993   14.3653 O.2     1  UNL1       -0.2730
     31 N          62.9253   87.8834   13.5040 N.am    1  UNL1       -0.2825
     32 H          63.0694   87.2558   12.6813 H       1  UNL1        0.1549
     33 C          62.5424   87.2745   14.7491 C.ar    1  UNL1        0.0535
     34 C          63.3134   87.5080   15.8961 C.ar    1  UNL1        0.0353
     35 C          62.9598   86.8998   17.1029 C.ar    1  UNL1        0.1002
     36 N          61.8830   86.0725   17.1597 N.ar    1  UNL1       -0.2422
     37 C          61.1277   85.8108   16.0604 C.ar    1  UNL1        0.1002
     38 C          61.4459   86.3995   14.8338 C.ar    1  UNL1        0.0353
     39 C          64.7773   89.7423   11.4432 C.3     1  UNL1        0.0569
     40 C          65.2418   90.9944   10.7536 C.ar    1  UNL1       -0.0017
     41 C          64.4422   92.0630   10.3597 C.ar    1  UNL1        0.0681
     42 N          65.1665   92.9598    9.6521 N.ar    1  UNL1       -0.3523
     43 C          66.4127   92.4608    9.5833 C.ar    1  UNL1        0.0563
     44 C          67.5051   93.0084    8.9115 C.ar    1  UNL1        0.0170
     45 C          68.7141   92.2895    8.9253 C.ar    1  UNL1        0.0015
     46 C          68.8023   91.0506    9.5975 C.ar    1  UNL1        0.0001
     47 C          67.6838   90.5222   10.2677 C.ar    1  UNL1        0.0012
     48 C          66.4990   91.2604   10.2415 C.ar    1  UNL1        0.0131
     49 H          64.8168   93.8446    9.2217 H       1  UNL1        0.1660
@<TRIPOS>BOND
     1     1     2    2
     2     2     3   am
     3     3    28    1
     4    28    39    1
     5    39    40    1
     6    40    41   ar
     7    41    42   ar
     8    42    43   ar
     9    43    44   ar
    10    44    45   ar
    11    45    46   ar
    12    46    47   ar
    13    47    48   ar
    14    28    29    1
    15    29    30    2
    16    29    31   am
    17    31    33    1
    18    33    34   ar
    19    34    35   ar
    20    35    36   ar
    21    36    37   ar
    22    37    38   ar
    23     2     5    1
    24     5     6   ar
    25     6     7   ar
    26     7     8   ar
    27     8    12    1
    28    12    13    1
    29    13    14    1
    30    14    15    1
    31    15    18    1
    32    18    19   ar
    33    19    20   ar
    34    20    21   ar
    35    21    22   ar
    36    22    24    1
    37    24    25    1
    38    24    26    1
    39    24    27    1
    40    22    23   ar
    41    15    16    1
    42    16    17    1
    43     8     9   ar
    44     9    10   ar
    45    10    11    1
    46    48    40   ar
    47    38    33   ar
    48    10     5   ar
    49    48    43   ar
    50    17    12    1
    51    23    18   ar
    52     3     4    1
    53    42    49    1
    54    31    32    1
