@<TRIPOS>MOLECULE
*****
 37 38 0 0 0
SMALL
GASTEIGER

@<TRIPOS>ATOM
      1 C         -24.0465  -10.8002  -13.1744 C.3     1  UNL1        0.1755
      2 C         -22.7443  -11.1639  -13.9414 C.3     1  UNL1        0.0774
      3 C         -21.8125   -9.9639  -14.2259 C.3     1  UNL1        0.1321
      4 O         -21.0542   -9.6492  -13.0857 O.3     1  UNL1       -0.3803
      5 C         -22.6126   -8.7360  -14.6421 C.2     1  UNL1       -0.0220
      6 C         -23.7045   -8.4073  -13.8917 C.2     1  UNL1       -0.0250
      7 C         -24.5604   -7.2202  -14.1567 C.2     1  UNL1       -0.0093
      8 C         -25.8197   -7.1699  -13.7218 C.2     1  UNL1       -0.0268
      9 C         -26.4245   -8.3491  -13.0159 C.3     1  UNL1        0.0224
     10 C         -27.7949   -8.0071  -12.4119 C.3     1  UNL1        0.0047
     11 C         -25.4093   -8.9356  -11.9932 C.3     1  UNL1        0.0116
     12 C         -24.0687   -9.3209  -12.7193 C.3     1  UNL1        0.0623
     13 H         -20.3597  -10.3528  -12.9939 H       1  UNL1        0.2108
     14 C         -22.1472   -7.9885  -15.8963 C.3     1  UNL1        0.0203
     15 C         -23.0509   -8.2539  -17.1074 C.3     1  UNL1        0.0044
     16 C         -20.6540   -8.1734  -16.2094 C.3     1  UNL1        0.0044
     17 O         -25.1808  -11.0638  -14.0002 O.3     1  UNL1       -0.4518
     18 C         -25.2454  -12.1190  -14.9149 C.2     1  UNL1        0.3163
     19 O         -25.2807  -11.8929  -16.1562 O.2     1  UNL1       -0.2501
     20 C         -25.2121  -13.5322  -14.4002 C.3     1  UNL1        0.0991
     21 C         -26.5346  -13.8821  -13.7083 C.3     1  UNL1        0.0116
     22 C         -23.5019  -15.1185  -15.4308 C.3     1  UNL1        0.0006
     23 C         -24.9089  -14.5281  -15.5371 C.3     1  UNL1        0.0111
     24 C         -25.1211   -7.9642  -10.8135 C.3     1  UNL1        0.0033
     25 C         -24.7047   -8.7141   -9.5273 C.3     1  UNL1        0.0293
     26 C         -23.3720   -8.2031   -8.9481 C.3     1  UNL1        0.1130
     27 O         -23.4786   -8.1817   -7.5465 O.3     1  UNL1       -0.3844
     28 H         -23.0143   -7.3644   -7.2268 H       1  UNL1        0.2103
     29 C         -22.2015   -9.1232   -9.3626 C.3     1  UNL1        0.0590
     30 C         -20.9144   -8.3342   -9.7019 C.3     1  UNL1        0.1241
     31 O         -20.1829   -8.9468  -10.7360 O.3     1  UNL1       -0.3838
     32 H         -20.7896   -9.0623  -11.5127 H       1  UNL1        0.2104
     33 C         -21.2010   -6.8558  -10.0380 C.3     1  UNL1        0.1385
     34 C         -21.3687   -6.6102  -11.5080 C.2     1  UNL1        0.3163
     35 O         -22.3786   -5.9888  -11.9346 O.2     1  UNL1       -0.2502
     36 O         -20.3938   -7.0475  -12.3994 O.3     1  UNL1       -0.4801
     37 H         -20.4854   -6.8782  -13.3939 H       1  UNL1        0.2951
@<TRIPOS>BOND
     1    22    23    1
     2    23    20    1
     3    20    21    1
     4    20    18    1
     5    18    19    2
     6    18    17    1
     7    17     1    1
     8     1     2    1
     9     2     3    1
    10     3     4    1
    11     3     5    1
    12     5    14    1
    13    14    15    1
    14    14    16    1
    15     5     6    2
    16     6     7    1
    17     7     8    2
    18     8     9    1
    19     9    10    1
    20     9    11    1
    21    11    24    1
    22    24    25    1
    23    25    26    1
    24    26    27    1
    25    26    29    1
    26    29    30    1
    27    30    31    1
    28    30    33    1
    29    33    34    1
    30    34    35    2
    31    34    36    1
    32    11    12    1
    33    12     1    1
    34    12     6    1
    35     4    13    1
    36    27    28    1
    37    31    32    1
    38    36    37    1
@<TRIPOS>MOLECULE
*****
 37 38 0 0 0
SMALL
GASTEIGER

@<TRIPOS>ATOM
      1 C         -24.0109  -10.8457  -13.2214 C.3     1  UNL1        0.1755
      2 C         -22.7015  -11.1959  -13.9824 C.3     1  UNL1        0.0774
      3 C         -21.7477   -9.9990  -14.1995 C.3     1  UNL1        0.1321
      4 O         -21.0042   -9.7453  -13.0347 O.3     1  UNL1       -0.3803
      5 C         -22.5227   -8.7423  -14.5750 C.2     1  UNL1       -0.0220
      6 C         -23.6222   -8.4296  -13.8288 C.2     1  UNL1       -0.0250
      7 C         -24.4562   -7.2193  -14.0559 C.2     1  UNL1       -0.0093
      8 C         -25.7217   -7.1686  -13.6395 C.2     1  UNL1       -0.0268
      9 C         -26.3554   -8.3678  -12.9953 C.3     1  UNL1        0.0224
     10 C         -27.7306   -8.0312  -12.3992 C.3     1  UNL1        0.0047
     11 C         -25.3661   -9.0131  -11.9827 C.3     1  UNL1        0.0116
     12 C         -24.0193   -9.3872  -12.7030 C.3     1  UNL1        0.0623
     13 H         -20.3216  -10.4628  -12.9623 H       1  UNL1        0.2108
     14 C         -22.0255   -7.9487  -15.7880 C.3     1  UNL1        0.0203
     15 C         -22.9993   -8.0140  -16.9718 C.3     1  UNL1        0.0044
     16 C         -20.5756   -8.2675  -16.1850 C.3     1  UNL1        0.0044
     17 O         -25.1350  -11.0561  -14.0761 O.3     1  UNL1       -0.4518
     18 C         -25.2430  -12.1300  -14.9645 C.2     1  UNL1        0.3163
     19 O         -25.3182  -11.9305  -16.2086 O.2     1  UNL1       -0.2501
     20 C         -25.2084  -13.5321  -14.4202 C.3     1  UNL1        0.0991
     21 C         -26.5309  -13.8689  -13.7219 C.3     1  UNL1        0.0116
     22 C         -23.4738  -15.0893  -15.4544 C.3     1  UNL1        0.0006
     23 C         -24.9033  -14.5513  -15.5357 C.3     1  UNL1        0.0111
     24 C         -25.0837   -8.0980  -10.7575 C.3     1  UNL1        0.0033
     25 C         -24.5370   -8.8918   -9.5488 C.3     1  UNL1        0.0293
     26 C         -23.3347   -8.1995   -8.8795 C.3     1  UNL1        0.1130
     27 O         -23.3898   -8.4557   -7.4983 O.3     1  UNL1       -0.3844
     28 H         -23.1122   -7.6245   -7.0318 H       1  UNL1        0.2103
     29 C         -22.0020   -8.7342   -9.4508 C.3     1  UNL1        0.0590
     30 C         -20.8018   -7.8129   -9.1260 C.3     1  UNL1        0.1241
     31 O         -21.1964   -6.6800   -8.3909 O.3     1  UNL1       -0.3838
     32 H         -21.6816   -6.9930   -7.5838 H       1  UNL1        0.2104
     33 C         -19.6625   -8.5623   -8.4042 C.3     1  UNL1        0.1385
     34 C         -19.4200   -8.0603   -7.0119 C.2     1  UNL1        0.3163
     35 O         -20.2735   -8.2652   -6.1078 O.2     1  UNL1       -0.2502
     36 O         -18.2381   -7.3895   -6.7130 O.3     1  UNL1       -0.4801
     37 H         -18.0530   -7.0556   -5.7748 H       1  UNL1        0.2951
@<TRIPOS>BOND
     1    22    23    1
     2    23    20    1
     3    20    21    1
     4    20    18    1
     5    18    19    2
     6    18    17    1
     7    17     1    1
     8     1     2    1
     9     2     3    1
    10     3     4    1
    11     3     5    1
    12     5    14    1
    13    14    15    1
    14    14    16    1
    15     5     6    2
    16     6     7    1
    17     7     8    2
    18     8     9    1
    19     9    10    1
    20     9    11    1
    21    11    24    1
    22    24    25    1
    23    25    26    1
    24    26    27    1
    25    26    29    1
    26    29    30    1
    27    30    31    1
    28    30    33    1
    29    33    34    1
    30    34    35    2
    31    34    36    1
    32    11    12    1
    33    12     1    1
    34    12     6    1
    35     4    13    1
    36    27    28    1
    37    31    32    1
    38    36    37    1
@<TRIPOS>MOLECULE
*****
 37 38 0 0 0
SMALL
GASTEIGER

@<TRIPOS>ATOM
      1 C         -23.7840   -9.3817  -10.6905 C.3     1  UNL1        0.1755
      2 C         -24.2134  -10.5120  -11.6673 C.3     1  UNL1        0.0774
      3 C         -23.1214  -10.9356  -12.6759 C.3     1  UNL1        0.1321
      4 O         -22.2028  -11.8080  -12.0684 O.3     1  UNL1       -0.3803
      5 C         -22.3712   -9.7228  -13.2121 C.2     1  UNL1       -0.0220
      6 C         -21.9427   -8.7930  -12.3092 C.2     1  UNL1       -0.0250
      7 C         -21.1709   -7.5771  -12.6806 C.2     1  UNL1       -0.0093
      8 C         -21.1568   -6.5038  -11.8899 C.2     1  UNL1       -0.0268
      9 C         -21.9849   -6.4750  -10.6376 C.3     1  UNL1        0.0224
     10 C         -21.6593   -5.2498   -9.7702 C.3     1  UNL1        0.0047
     11 C         -21.8639   -7.8330   -9.8881 C.3     1  UNL1        0.0116
     12 C         -22.2871   -9.0151  -10.8348 C.3     1  UNL1        0.0623
     13 H         -22.6560  -12.6859  -11.9691 H       1  UNL1        0.2108
     14 C         -22.1910   -9.6256  -14.7308 C.3     1  UNL1        0.0203
     15 C         -23.4454   -9.0967  -15.4385 C.3     1  UNL1        0.0044
     16 C         -21.6351  -10.9068  -15.3721 C.3     1  UNL1        0.0044
     17 O         -24.5846   -8.2213  -10.9159 O.3     1  UNL1       -0.4518
     18 C         -25.8958   -8.2659  -11.3986 C.2     1  UNL1        0.3163
     19 O         -26.8546   -8.5553  -10.6303 O.2     1  UNL1       -0.2501
     20 C         -26.1556   -7.9054  -12.8359 C.3     1  UNL1        0.0991
     21 C         -27.6578   -7.7204  -13.0792 C.3     1  UNL1        0.0116
     22 C         -25.8512   -5.3989  -12.4775 C.3     1  UNL1        0.0006
     23 C         -25.3758   -6.6379  -13.2381 C.3     1  UNL1        0.0111
     24 C         -20.4349   -8.0800   -9.3264 C.3     1  UNL1        0.0033
     25 C         -20.4581   -8.5334   -7.8487 C.3     1  UNL1        0.0293
     26 C         -19.0882   -8.3827   -7.1606 C.3     1  UNL1        0.1130
     27 O         -18.5925   -7.0971   -7.4398 O.3     1  UNL1       -0.3844
     28 H         -17.6152   -7.1833   -7.5914 H       1  UNL1        0.2103
     29 C         -19.2160   -8.5657   -5.6313 C.3     1  UNL1        0.0590
     30 C         -17.9537   -9.1994   -4.9992 C.3     1  UNL1        0.1241
     31 O         -17.2315   -9.9670   -5.9313 O.3     1  UNL1       -0.3838
     32 H         -17.0322   -9.3899   -6.7136 H       1  UNL1        0.2104
     33 C         -17.0400   -8.1510   -4.3308 C.3     1  UNL1        0.1385
     34 C         -15.5913   -8.3314   -4.6741 C.2     1  UNL1        0.3163
     35 O         -15.0592   -9.4709   -4.5943 O.2     1  UNL1       -0.2502
     36 O         -14.8406   -7.2424   -5.1063 O.3     1  UNL1       -0.4801
     37 H         -13.8644   -7.3498   -5.3546 H       1  UNL1        0.2951
@<TRIPOS>BOND
     1    22    23    1
     2    23    20    1
     3    20    21    1
     4    20    18    1
     5    18    19    2
     6    18    17    1
     7    17     1    1
     8     1     2    1
     9     2     3    1
    10     3     4    1
    11     3     5    1
    12     5    14    1
    13    14    15    1
    14    14    16    1
    15     5     6    2
    16     6     7    1
    17     7     8    2
    18     8     9    1
    19     9    10    1
    20     9    11    1
    21    11    24    1
    22    24    25    1
    23    25    26    1
    24    26    27    1
    25    26    29    1
    26    29    30    1
    27    30    31    1
    28    30    33    1
    29    33    34    1
    30    34    35    2
    31    34    36    1
    32    11    12    1
    33    12     1    1
    34    12     6    1
    35     4    13    1
    36    27    28    1
    37    31    32    1
    38    36    37    1
@<TRIPOS>MOLECULE
*****
 37 38 0 0 0
SMALL
GASTEIGER

@<TRIPOS>ATOM
      1 C         -22.5159   -9.9782  -12.8329 C.3     1  UNL1        0.1755
      2 C         -23.6192   -9.7416  -11.7637 C.3     1  UNL1        0.0774
      3 C         -24.9703   -9.2546  -12.3350 C.3     1  UNL1        0.1321
      4 O         -25.7031  -10.3354  -12.8537 O.3     1  UNL1       -0.3803
      5 C         -24.7592   -8.2254  -13.4384 C.2     1  UNL1       -0.0220
      6 C         -23.8354   -8.5105  -14.4021 C.2     1  UNL1       -0.0250
      7 C         -23.5457   -7.6187  -15.5564 C.2     1  UNL1       -0.0093
      8 C         -22.3817   -7.6875  -16.2031 C.2     1  UNL1       -0.0268
      9 C         -21.3060   -8.6214  -15.7283 C.3     1  UNL1        0.0224
     10 C         -20.1440   -8.7041  -16.7296 C.3     1  UNL1        0.0047
     11 C         -21.9237  -10.0006  -15.3584 C.3     1  UNL1        0.0116
     12 C         -23.0504   -9.8182  -14.2767 C.3     1  UNL1        0.0623
     13 H         -26.0509  -10.8504  -12.0793 H       1  UNL1        0.2108
     14 C         -25.5768   -6.9319  -13.3557 C.3     1  UNL1        0.0203
     15 C         -25.0936   -6.0024  -12.2349 C.3     1  UNL1        0.0044
     16 C         -27.0964   -7.1598  -13.3334 C.3     1  UNL1        0.0044
     17 O         -21.4361   -9.0690  -12.6190 O.3     1  UNL1       -0.4518
     18 C         -20.9814   -8.6896  -11.3527 C.2     1  UNL1        0.3163
     19 O         -20.6164   -9.5587  -10.5133 O.2     1  UNL1       -0.2501
     20 C         -20.8768   -7.2251  -11.0249 C.3     1  UNL1        0.0991
     21 C         -21.2779   -6.3746  -12.2357 C.3     1  UNL1        0.0116
     22 C         -21.7708   -5.3648   -9.5270 C.3     1  UNL1        0.0006
     23 C         -21.7385   -6.8700   -9.7970 C.3     1  UNL1        0.0111
     24 C         -22.4852  -10.7553  -16.5968 C.3     1  UNL1        0.0033
     25 C         -21.8155  -12.1347  -16.7937 C.3     1  UNL1        0.0293
     26 C         -22.5532  -13.2636  -16.0493 C.3     1  UNL1        0.1130
     27 O         -22.2691  -13.1475  -14.6773 O.3     1  UNL1       -0.3844
     28 H         -22.1570  -14.0668  -14.3195 H       1  UNL1        0.2103
     29 C         -24.0795  -13.1648  -16.2704 C.3     1  UNL1        0.0590
     30 C         -24.8574  -14.3102  -15.5794 C.3     1  UNL1        0.1241
     31 O         -23.9958  -15.1946  -14.9047 O.3     1  UNL1       -0.3838
     32 H         -23.4407  -14.6619  -14.2778 H       1  UNL1        0.2104
     33 C         -25.9554  -13.7873  -14.6298 C.3     1  UNL1        0.1385
     34 C         -25.4918  -13.6629  -13.2089 C.2     1  UNL1        0.3163
     35 O         -24.5263  -12.9055  -12.9224 O.2     1  UNL1       -0.2502
     36 O         -26.1463  -14.3660  -12.2022 O.3     1  UNL1       -0.4801
     37 H         -25.8542  -14.2829  -11.2359 H       1  UNL1        0.2951
@<TRIPOS>BOND
     1    22    23    1
     2    23    20    1
     3    20    21    1
     4    20    18    1
     5    18    19    2
     6    18    17    1
     7    17     1    1
     8     1     2    1
     9     2     3    1
    10     3     4    1
    11     3     5    1
    12     5    14    1
    13    14    15    1
    14    14    16    1
    15     5     6    2
    16     6     7    1
    17     7     8    2
    18     8     9    1
    19     9    10    1
    20     9    11    1
    21    11    24    1
    22    24    25    1
    23    25    26    1
    24    26    27    1
    25    26    29    1
    26    29    30    1
    27    30    31    1
    28    30    33    1
    29    33    34    1
    30    34    35    2
    31    34    36    1
    32    11    12    1
    33    12     1    1
    34    12     6    1
    35     4    13    1
    36    27    28    1
    37    31    32    1
    38    36    37    1
@<TRIPOS>MOLECULE
*****
 37 38 0 0 0
SMALL
GASTEIGER

@<TRIPOS>ATOM
      1 C         -24.7148  -10.6439  -14.2704 C.3     1  UNL1        0.1755
      2 C         -24.5253  -11.6962  -13.1421 C.3     1  UNL1        0.0774
      3 C         -23.6357  -11.2243  -11.9694 C.3     1  UNL1        0.1321
      4 O         -24.3716  -10.4123  -11.0900 O.3     1  UNL1       -0.3803
      5 C         -22.4320  -10.4399  -12.4764 C.2     1  UNL1       -0.0220
      6 C         -22.6559   -9.4698  -13.4103 C.2     1  UNL1       -0.0250
      7 C         -21.5858   -8.6030  -13.9719 C.2     1  UNL1       -0.0093
      8 C         -21.7356   -8.0044  -15.1538 C.2     1  UNL1       -0.0268
      9 C         -22.9646   -8.2553  -15.9791 C.3     1  UNL1        0.0224
     10 C         -23.0383   -7.3111  -17.1886 C.3     1  UNL1        0.0047
     11 C         -24.2293   -8.2255  -15.0733 C.3     1  UNL1        0.0116
     12 C         -24.0889   -9.2747  -13.9105 C.3     1  UNL1        0.0623
     13 H         -24.9783  -11.0101  -10.5797 H       1  UNL1        0.2108
     14 C         -21.0575  -10.8306  -11.9228 C.3     1  UNL1        0.0203
     15 C         -20.8080  -12.3432  -11.9841 C.3     1  UNL1        0.0044
     16 C         -20.7508  -10.2270  -10.5432 C.3     1  UNL1        0.0044
     17 O         -24.1384  -11.1295  -15.4829 O.3     1  UNL1       -0.4518
     18 C         -24.0488  -12.4857  -15.8099 C.2     1  UNL1        0.3163
     19 O         -25.0856  -13.2033  -15.8678 O.2     1  UNL1       -0.2501
     20 C         -22.7030  -13.0656  -16.1505 C.3     1  UNL1        0.0991
     21 C         -21.6678  -11.9491  -16.3290 C.3     1  UNL1        0.0116
     22 C         -22.9544  -15.4190  -15.2009 C.3     1  UNL1        0.0006
     23 C         -22.2449  -14.0699  -15.0745 C.3     1  UNL1        0.0111
     24 C         -24.5131   -6.8121  -14.4900 C.3     1  UNL1        0.0033
     25 C         -25.7327   -6.8061  -13.5400 C.3     1  UNL1        0.0293
     26 C         -25.3756   -6.3288  -12.1197 C.3     1  UNL1        0.1130
     27 O         -25.6878   -7.3592  -11.2157 O.3     1  UNL1       -0.3844
     28 H         -26.0680   -6.9345  -10.4028 H       1  UNL1        0.2103
     29 C         -23.8720   -5.9877  -12.0141 C.3     1  UNL1        0.0590
     30 C         -23.2425   -6.4724  -10.6862 C.3     1  UNL1        0.1241
     31 O         -23.2563   -7.8756  -10.5827 O.3     1  UNL1       -0.3838
     32 H         -22.8099   -8.2459  -11.3879 H       1  UNL1        0.2104
     33 C         -21.8159   -5.9237  -10.4758 C.3     1  UNL1        0.1385
     34 C         -21.4849   -5.6886   -9.0320 C.2     1  UNL1        0.3163
     35 O         -21.9610   -4.6904   -8.4280 O.2     1  UNL1       -0.2502
     36 O         -20.6709   -6.5893   -8.3520 O.3     1  UNL1       -0.4801
     37 H         -20.4484   -6.4523   -7.3733 H       1  UNL1        0.2951
@<TRIPOS>BOND
     1    22    23    1
     2    23    20    1
     3    20    21    1
     4    20    18    1
     5    18    19    2
     6    18    17    1
     7    17     1    1
     8     1     2    1
     9     2     3    1
    10     3     4    1
    11     3     5    1
    12     5    14    1
    13    14    15    1
    14    14    16    1
    15     5     6    2
    16     6     7    1
    17     7     8    2
    18     8     9    1
    19     9    10    1
    20     9    11    1
    21    11    24    1
    22    24    25    1
    23    25    26    1
    24    26    27    1
    25    26    29    1
    26    29    30    1
    27    30    31    1
    28    30    33    1
    29    33    34    1
    30    34    35    2
    31    34    36    1
    32    11    12    1
    33    12     1    1
    34    12     6    1
    35     4    13    1
    36    27    28    1
    37    31    32    1
    38    36    37    1
@<TRIPOS>MOLECULE
*****
 37 38 0 0 0
SMALL
GASTEIGER

@<TRIPOS>ATOM
      1 C         -24.0619   -9.7873  -13.5720 C.3     1  UNL1        0.1755
      2 C         -24.7708  -10.7063  -14.6061 C.3     1  UNL1        0.0774
      3 C         -24.7178  -12.2131  -14.2656 C.3     1  UNL1        0.1321
      4 O         -25.6942  -12.5354  -13.3080 O.3     1  UNL1       -0.3803
      5 C         -23.3479  -12.6047  -13.7260 C.2     1  UNL1       -0.0220
      6 C         -22.7971  -11.8120  -12.7608 C.2     1  UNL1       -0.0250
      7 C         -21.4844  -12.0867  -12.1178 C.2     1  UNL1       -0.0093
      8 C         -20.7850  -11.1104  -11.5388 C.2     1  UNL1       -0.0268
      9 C         -21.2778   -9.6930  -11.5902 C.3     1  UNL1        0.0224
     10 C         -20.4468   -8.7703  -10.6858 C.3     1  UNL1        0.0047
     11 C         -22.8068   -9.6503  -11.3059 C.3     1  UNL1        0.0116
     12 C         -23.5745  -10.5672  -12.3270 C.3     1  UNL1        0.0623
     13 H         -26.5724  -12.5228  -13.7712 H       1  UNL1        0.2108
     14 C         -22.6800  -13.8397  -14.3399 C.3     1  UNL1        0.0203
     15 C         -21.4302  -13.4865  -15.1568 C.3     1  UNL1        0.0044
     16 C         -23.6522  -14.7581  -15.0969 C.3     1  UNL1        0.0044
     17 O         -22.9541   -9.1325  -14.1904 O.3     1  UNL1       -0.4518
     18 C         -23.0474   -8.4124  -15.3849 C.2     1  UNL1        0.3163
     19 O         -23.8596   -7.4524  -15.4955 O.2     1  UNL1       -0.2501
     20 C         -22.1226   -8.7602  -16.5193 C.3     1  UNL1        0.0991
     21 C         -20.7848   -8.0279  -16.3643 C.3     1  UNL1        0.0116
     22 C         -22.9155  -10.9599  -17.5374 C.3     1  UNL1        0.0006
     23 C         -21.9054  -10.2837  -16.6089 C.3     1  UNL1        0.0111
     24 C         -23.1550  -10.0621   -9.8473 C.3     1  UNL1        0.0033
     25 C         -24.1604   -9.0891   -9.1896 C.3     1  UNL1        0.0293
     26 C         -25.6214   -9.5520   -9.3445 C.3     1  UNL1        0.1130
     27 O         -26.0221  -10.1601   -8.1420 O.3     1  UNL1       -0.3844
     28 H         -26.5851  -10.9426   -8.3794 H       1  UNL1        0.2103
     29 C         -26.5495   -8.3551   -9.6518 C.3     1  UNL1        0.0590
     30 C         -26.9242   -8.2607  -11.1502 C.3     1  UNL1        0.1241
     31 O         -28.3154   -8.1621  -11.3361 O.3     1  UNL1       -0.3838
     32 H         -28.6417   -7.3935  -10.7999 H       1  UNL1        0.2104
     33 C         -26.1945   -7.1063  -11.8683 C.3     1  UNL1        0.1385
     34 C         -26.5504   -7.0011  -13.3214 C.2     1  UNL1        0.3163
     35 O         -27.5777   -7.5808  -13.7648 O.2     1  UNL1       -0.2502
     36 O         -25.7582   -6.2403  -14.1757 O.3     1  UNL1       -0.4801
     37 H         -25.9920   -6.1483  -15.1570 H       1  UNL1        0.2951
@<TRIPOS>BOND
     1    22    23    1
     2    23    20    1
     3    20    21    1
     4    20    18    1
     5    18    19    2
     6    18    17    1
     7    17     1    1
     8     1     2    1
     9     2     3    1
    10     3     4    1
    11     3     5    1
    12     5    14    1
    13    14    15    1
    14    14    16    1
    15     5     6    2
    16     6     7    1
    17     7     8    2
    18     8     9    1
    19     9    10    1
    20     9    11    1
    21    11    24    1
    22    24    25    1
    23    25    26    1
    24    26    27    1
    25    26    29    1
    26    29    30    1
    27    30    31    1
    28    30    33    1
    29    33    34    1
    30    34    35    2
    31    34    36    1
    32    11    12    1
    33    12     1    1
    34    12     6    1
    35     4    13    1
    36    27    28    1
    37    31    32    1
    38    36    37    1
@<TRIPOS>MOLECULE
*****
 37 38 0 0 0
SMALL
GASTEIGER

@<TRIPOS>ATOM
      1 C         -24.1044   -9.1275  -10.9548 C.3     1  UNL1        0.1755
      2 C         -24.4693  -10.2877  -11.9228 C.3     1  UNL1        0.0774
      3 C         -23.3028  -10.7661  -12.8170 C.3     1  UNL1        0.1321
      4 O         -22.4560  -11.6286  -12.1007 O.3     1  UNL1       -0.3803
      5 C         -22.4871   -9.5864  -13.3307 C.2     1  UNL1       -0.0220
      6 C         -22.1204   -8.6294  -12.4289 C.2     1  UNL1       -0.0250
      7 C         -21.2973   -7.4405  -12.7767 C.2     1  UNL1       -0.0093
      8 C         -21.3312   -6.3380  -12.0278 C.2     1  UNL1       -0.0268
      9 C         -22.2630   -6.2488  -10.8537 C.3     1  UNL1        0.0224
     10 C         -21.9903   -4.9964  -10.0070 C.3     1  UNL1        0.0047
     11 C         -22.2318   -7.5788  -10.0470 C.3     1  UNL1        0.0116
     12 C         -22.5941   -8.7896  -10.9826 C.3     1  UNL1        0.0623
     13 H         -22.9323  -12.4950  -12.0087 H       1  UNL1        0.2108
     14 C         -22.1755   -9.5501  -14.8307 C.3     1  UNL1        0.0203
     15 C         -23.2714   -8.8459  -15.6413 C.3     1  UNL1        0.0044
     16 C         -21.7804  -10.9156  -15.4146 C.3     1  UNL1        0.0044
     17 O         -24.8611   -7.9644  -11.2911 O.3     1  UNL1       -0.4518
     18 C         -26.1911   -8.0021  -11.7200 C.2     1  UNL1        0.3163
     19 O         -27.1281   -8.1870  -10.8947 O.2     1  UNL1       -0.2501
     20 C         -26.4949   -7.7596  -13.1734 C.3     1  UNL1        0.0991
     21 C         -28.0067   -7.6279  -13.3904 C.3     1  UNL1        0.0116
     22 C         -26.1496   -5.2450  -12.9268 C.3     1  UNL1        0.0006
     23 C         -25.7565   -6.5098  -13.6919 C.3     1  UNL1        0.0111
     24 C         -20.8611   -7.8259   -9.3553 C.3     1  UNL1        0.0033
     25 C         -20.5372   -9.3316   -9.2214 C.3     1  UNL1        0.0293
     26 C         -19.3990   -9.7789  -10.1579 C.3     1  UNL1        0.1130
     27 O         -18.3660   -8.8282  -10.0835 O.3     1  UNL1       -0.3844
     28 H         -18.0023   -8.7140  -11.0002 H       1  UNL1        0.2103
     29 C         -18.8556  -11.1649   -9.7430 C.3     1  UNL1        0.0590
     30 C         -17.4843  -11.0789   -9.0312 C.3     1  UNL1        0.1241
     31 O         -17.5632  -10.3492   -7.8308 O.3     1  UNL1       -0.3838
     32 H         -18.2723  -10.7587   -7.2702 H       1  UNL1        0.2104
     33 C         -16.8601  -12.4684   -8.7852 C.3     1  UNL1        0.1385
     34 C         -15.4923  -12.3972   -8.1743 C.2     1  UNL1        0.3163
     35 O         -15.3119  -11.7666   -7.0983 O.2     1  UNL1       -0.2502
     36 O         -14.4259  -13.0507   -8.7842 O.3     1  UNL1       -0.4801
     37 H         -13.4986  -13.0236   -8.3776 H       1  UNL1        0.2951
@<TRIPOS>BOND
     1    22    23    1
     2    23    20    1
     3    20    21    1
     4    20    18    1
     5    18    19    2
     6    18    17    1
     7    17     1    1
     8     1     2    1
     9     2     3    1
    10     3     4    1
    11     3     5    1
    12     5    14    1
    13    14    15    1
    14    14    16    1
    15     5     6    2
    16     6     7    1
    17     7     8    2
    18     8     9    1
    19     9    10    1
    20     9    11    1
    21    11    24    1
    22    24    25    1
    23    25    26    1
    24    26    27    1
    25    26    29    1
    26    29    30    1
    27    30    31    1
    28    30    33    1
    29    33    34    1
    30    34    35    2
    31    34    36    1
    32    11    12    1
    33    12     1    1
    34    12     6    1
    35     4    13    1
    36    27    28    1
    37    31    32    1
    38    36    37    1
@<TRIPOS>MOLECULE
*****
 37 38 0 0 0
SMALL
GASTEIGER

@<TRIPOS>ATOM
      1 C         -23.1699  -10.4713  -11.9942 C.3     1  UNL1        0.1755
      2 C         -23.5917   -9.6356  -10.7532 C.3     1  UNL1        0.0774
      3 C         -24.5925   -8.4977  -11.0578 C.3     1  UNL1        0.1321
      4 O         -25.8983   -9.0059  -11.1608 O.3     1  UNL1       -0.3803
      5 C         -24.2346   -7.7869  -12.3570 C.2     1  UNL1       -0.0220
      6 C         -23.9479   -8.5609  -13.4442 C.2     1  UNL1       -0.0250
      7 C         -23.6146   -8.0093  -14.7845 C.2     1  UNL1       -0.0093
      8 C         -22.9257   -8.7277  -15.6716 C.2     1  UNL1       -0.0268
      9 C         -22.4062  -10.0878  -15.3044 C.3     1  UNL1        0.0224
     10 C         -21.8367  -10.8261  -16.5252 C.3     1  UNL1        0.0047
     11 C         -23.4981  -10.8846  -14.5340 C.3     1  UNL1        0.0116
     12 C         -23.9627  -10.0806  -13.2650 C.3     1  UNL1        0.0623
     13 H         -26.2008   -9.2217  -10.2401 H       1  UNL1        0.2108
     14 C         -24.1882   -6.2554  -12.3279 C.3     1  UNL1        0.0203
     15 C         -23.1478   -5.7181  -11.3364 C.3     1  UNL1        0.0044
     16 C         -25.5672   -5.5967  -12.1669 C.3     1  UNL1        0.0044
     17 O         -21.7720  -10.3062  -12.2328 O.3     1  UNL1       -0.4518
     18 C         -20.7859  -10.5736  -11.2787 C.2     1  UNL1        0.3163
     19 O         -20.6388  -11.7383  -10.8148 O.2     1  UNL1       -0.2501
     20 C         -19.8617   -9.4645  -10.8557 C.3     1  UNL1        0.0991
     21 C         -20.1921   -8.1731  -11.6128 C.3     1  UNL1        0.0116
     22 C         -20.5888   -7.9060   -8.9726 C.3     1  UNL1        0.0006
     23 C         -19.9295   -9.2385   -9.3323 C.3     1  UNL1        0.0111
     24 C         -24.7229  -11.2350  -15.4259 C.3     1  UNL1        0.0033
     25 C         -25.7265  -12.1620  -14.7024 C.3     1  UNL1        0.0293
     26 C         -25.0731  -13.4604  -14.1925 C.3     1  UNL1        0.1130
     27 O         -25.8987  -14.0084  -13.1953 O.3     1  UNL1       -0.3844
     28 H         -25.3056  -14.3727  -12.4873 H       1  UNL1        0.2103
     29 C         -24.9040  -14.4807  -15.3408 C.3     1  UNL1        0.0590
     30 C         -23.4201  -14.8033  -15.6379 C.3     1  UNL1        0.1241
     31 O         -22.8591  -13.8907  -16.5501 O.3     1  UNL1       -0.3838
     32 H         -22.9987  -12.9757  -16.1920 H       1  UNL1        0.2104
     33 C         -22.5671  -14.8865  -14.3549 C.3     1  UNL1        0.1385
     34 C         -21.4051  -13.9383  -14.3604 C.2     1  UNL1        0.3163
     35 O         -20.5764  -13.9585  -15.3095 O.2     1  UNL1       -0.2502
     36 O         -21.2570  -13.0174  -13.3279 O.3     1  UNL1       -0.4801
     37 H         -20.4853  -12.3613  -13.3233 H       1  UNL1        0.2951
@<TRIPOS>BOND
     1    22    23    1
     2    23    20    1
     3    20    21    1
     4    20    18    1
     5    18    19    2
     6    18    17    1
     7    17     1    1
     8     1     2    1
     9     2     3    1
    10     3     4    1
    11     3     5    1
    12     5    14    1
    13    14    15    1
    14    14    16    1
    15     5     6    2
    16     6     7    1
    17     7     8    2
    18     8     9    1
    19     9    10    1
    20     9    11    1
    21    11    24    1
    22    24    25    1
    23    25    26    1
    24    26    27    1
    25    26    29    1
    26    29    30    1
    27    30    31    1
    28    30    33    1
    29    33    34    1
    30    34    35    2
    31    34    36    1
    32    11    12    1
    33    12     1    1
    34    12     6    1
    35     4    13    1
    36    27    28    1
    37    31    32    1
    38    36    37    1
@<TRIPOS>MOLECULE
*****
 37 38 0 0 0
SMALL
GASTEIGER

@<TRIPOS>ATOM
      1 C         -22.9513   -7.2859  -12.9737 C.3     1  UNL1        0.1755
      2 C         -22.0157   -6.5447  -11.9780 C.3     1  UNL1        0.0774
      3 C         -20.8117   -7.3809  -11.4875 C.3     1  UNL1        0.1321
      4 O         -19.7885   -7.3813  -12.4504 O.3     1  UNL1       -0.3803
      5 C         -21.2239   -8.8198  -11.2033 C.2     1  UNL1       -0.0220
      6 C         -21.9801   -9.4593  -12.1427 C.2     1  UNL1       -0.0250
      7 C         -22.4284  -10.8719  -12.0186 C.2     1  UNL1       -0.0093
      8 C         -23.4919  -11.3170  -12.6884 C.2     1  UNL1       -0.0268
      9 C         -24.3061  -10.3754  -13.5281 C.3     1  UNL1        0.0224
     10 C         -25.3432  -11.1253  -14.3777 C.3     1  UNL1        0.0047
     11 C         -23.3665   -9.4459  -14.3489 C.3     1  UNL1        0.0116
     12 C         -22.3947   -8.6700  -13.3865 C.3     1  UNL1        0.0623
     13 H         -19.3624   -6.4849  -12.4236 H       1  UNL1        0.2108
     14 C         -20.7865   -9.4223   -9.8639 C.3     1  UNL1        0.0203
     15 C         -21.1760   -8.5424   -8.6689 C.3     1  UNL1        0.0044
     16 C         -19.3135   -9.8595   -9.8327 C.3     1  UNL1        0.0044
     17 O         -24.2448   -7.4449  -12.3908 O.3     1  UNL1       -0.4518
     18 C         -25.2834   -6.5219  -12.5450 C.2     1  UNL1        0.3163
     19 O         -25.3150   -5.4676  -11.8517 O.2     1  UNL1       -0.2501
     20 C         -26.3329   -6.7746  -13.5927 C.3     1  UNL1        0.0991
     21 C         -27.2897   -7.8823  -13.1371 C.3     1  UNL1        0.0116
     22 C         -26.6996   -4.8907  -15.2720 C.3     1  UNL1        0.0006
     23 C         -27.1078   -5.4834  -13.9224 C.3     1  UNL1        0.0111
     24 C         -22.5525  -10.2191  -15.4250 C.3     1  UNL1        0.0033
     25 C         -23.2605  -10.2272  -16.7993 C.3     1  UNL1        0.0293
     26 C         -23.2540  -11.6179  -17.4616 C.3     1  UNL1        0.1130
     27 O         -23.4032  -11.4474  -18.8490 O.3     1  UNL1       -0.3844
     28 H         -23.9968  -12.1736  -19.1743 H       1  UNL1        0.2103
     29 C         -21.9298  -12.3604  -17.1723 C.3     1  UNL1        0.0590
     30 C         -22.1341  -13.6309  -16.3130 C.3     1  UNL1        0.1241
     31 O         -21.4468  -13.5496  -15.0880 O.3     1  UNL1       -0.3838
     32 H         -21.7328  -12.7160  -14.6317 H       1  UNL1        0.2104
     33 C         -23.6255  -13.9521  -16.0817 C.3     1  UNL1        0.1385
     34 C         -23.8556  -14.8565  -14.9077 C.2     1  UNL1        0.3163
     35 O         -23.0309  -15.7717  -14.6427 O.2     1  UNL1       -0.2502
     36 O         -24.9690  -14.6673  -14.0948 O.3     1  UNL1       -0.4801
     37 H         -25.1322  -15.2610  -13.2905 H       1  UNL1        0.2951
@<TRIPOS>BOND
     1    22    23    1
     2    23    20    1
     3    20    21    1
     4    20    18    1
     5    18    19    2
     6    18    17    1
     7    17     1    1
     8     1     2    1
     9     2     3    1
    10     3     4    1
    11     3     5    1
    12     5    14    1
    13    14    15    1
    14    14    16    1
    15     5     6    2
    16     6     7    1
    17     7     8    2
    18     8     9    1
    19     9    10    1
    20     9    11    1
    21    11    24    1
    22    24    25    1
    23    25    26    1
    24    26    27    1
    25    26    29    1
    26    29    30    1
    27    30    31    1
    28    30    33    1
    29    33    34    1
    30    34    35    2
    31    34    36    1
    32    11    12    1
    33    12     1    1
    34    12     6    1
    35     4    13    1
    36    27    28    1
    37    31    32    1
    38    36    37    1
