@<TRIPOS>MOLECULE
*****
 26 28 0 0 0
SMALL
GASTEIGER

@<TRIPOS>ATOM
      1 C         -22.9359   -9.3604  -15.8014 C.ar    1  UNL1        0.1386
      2 C         -21.5542   -9.1808  -15.6654 C.ar    1  UNL1        0.0366
      3 C         -21.0298   -8.4918  -14.5691 C.ar    1  UNL1       -0.0011
      4 C         -21.8853   -7.9594  -13.5931 C.ar    1  UNL1       -0.0206
      5 C         -23.2723   -8.1024  -13.7454 C.ar    1  UNL1       -0.0011
      6 C         -23.7966   -8.7920  -14.8422 C.ar    1  UNL1        0.0366
      7 O         -23.3957  -10.1206  -16.8899 O.3     1  UNL1       -0.4736
      8 C         -23.0896  -11.4918  -17.1533 C.3     1  UNL1        0.2267
      9 C         -24.1816  -12.4327  -16.6257 C.3     1  UNL1        0.1396
     10 C         -23.9240  -14.6912  -15.5283 C.3     1  UNL1        0.1137
     11 N         -23.7113  -13.2388  -15.4848 N.pl3   1  UNL1       -0.2879
     12 C         -23.0734  -12.6702  -14.3106 C.ar    1  UNL1        0.1318
     13 C         -21.6856  -12.7763  -14.0733 C.ar    1  UNL1        0.0343
     14 C         -21.1278  -12.1641  -12.9488 C.ar    1  UNL1        0.0045
     15 C         -21.9392  -11.4580  -12.0633 C.ar    1  UNL1        0.0208
     16 C         -23.3073  -11.3764  -12.3138 C.ar    1  UNL1        0.1003
     17 N         -23.8335  -11.9745  -13.4147 N.ar    1  UNL1       -0.2292
     18 C         -21.3264   -7.2123  -12.4094 C.3     1  UNL1        0.0468
     19 C         -22.4268   -6.8496  -11.3998 C.3     1  UNL1        0.1369
     20 S         -22.3563   -5.0570  -10.9693 S.3     1  UNL1       -0.0482
     21 C         -21.9921   -5.4693   -9.2713 C.2     1  UNL1        0.2792
     22 O         -21.7464   -4.5941   -8.4011 O.2     1  UNL1       -0.2625
     23 N         -21.9878   -6.8477   -8.9659 N.am    1  UNL1       -0.2460
     24 C         -22.2476   -7.6173  -10.1239 C.2     1  UNL1        0.2392
     25 O         -22.3332   -8.8730  -10.0726 O.2     1  UNL1       -0.2737
     26 H         -21.8175   -7.2444   -8.0150 H       1  UNL1        0.1583
@<TRIPOS>BOND
     1    10    11    1
     2    11     9    1
     3     9     8    1
     4     8     7    1
     5     7     1    1
     6     1     2   ar
     7     2     3   ar
     8     3     4   ar
     9     4    18    1
    10    18    19    1
    11    19    20    1
    12    20    21    1
    13    21    22    2
    14    21    23   am
    15    23    24   am
    16    24    25    2
    17     4     5   ar
    18     5     6   ar
    19    11    12    1
    20    12    13   ar
    21    13    14   ar
    22    14    15   ar
    23    15    16   ar
    24    16    17   ar
    25     6     1   ar
    26    17    12   ar
    27    24    19    1
    28    23    26    1
@<TRIPOS>MOLECULE
*****
 26 28 0 0 0
SMALL
GASTEIGER

@<TRIPOS>ATOM
      1 C         -24.9718  -11.4125  -13.5200 C.ar    1  UNL1        0.1386
      2 C         -24.9846  -10.1016  -14.0113 C.ar    1  UNL1        0.0366
      3 C         -24.1002   -9.1439  -13.5093 C.ar    1  UNL1       -0.0011
      4 C         -23.1924   -9.4822  -12.4947 C.ar    1  UNL1       -0.0206
      5 C         -23.2026  -10.7836  -11.9716 C.ar    1  UNL1       -0.0011
      6 C         -24.0875  -11.7416  -12.4741 C.ar    1  UNL1        0.0366
      7 O         -25.8388  -12.3452  -14.1134 O.3     1  UNL1       -0.4736
      8 C         -25.7174  -13.7683  -14.0565 C.3     1  UNL1        0.2267
      9 C         -25.1971  -14.3509  -15.3780 C.3     1  UNL1        0.1396
     10 C         -22.8594  -15.2983  -15.2837 C.3     1  UNL1        0.1137
     11 N         -23.7448  -14.1537  -15.5339 N.pl3   1  UNL1       -0.2879
     12 C         -23.1429  -12.8826  -15.8959 C.ar    1  UNL1        0.1318
     13 C         -23.6440  -12.0741  -16.9393 C.ar    1  UNL1        0.0343
     14 C         -23.0481  -10.8391  -17.2040 C.ar    1  UNL1        0.0045
     15 C         -21.9605  -10.4115  -16.4454 C.ar    1  UNL1        0.0208
     16 C         -21.4779  -11.2319  -15.4281 C.ar    1  UNL1        0.1003
     17 N         -22.0717  -12.4289  -15.1809 N.ar    1  UNL1       -0.2292
     18 C         -22.2375   -8.4530  -11.9465 C.3     1  UNL1        0.0468
     19 C         -22.9475   -7.4705  -11.0019 C.3     1  UNL1        0.1369
     20 S         -22.3318   -5.7508  -11.2615 S.3     1  UNL1       -0.0482
     21 C         -21.7005   -5.7146   -9.5924 C.2     1  UNL1        0.2792
     22 O         -21.0488   -4.7390   -9.1374 O.2     1  UNL1       -0.2625
     23 N         -21.9718   -6.8600   -8.8128 N.am    1  UNL1       -0.2460
     24 C         -22.6767   -7.8247   -9.5699 C.2     1  UNL1        0.2392
     25 O         -23.0606   -8.9096   -9.0576 O.2     1  UNL1       -0.2737
     26 H         -21.6915   -6.9781   -7.8138 H       1  UNL1        0.1583
@<TRIPOS>BOND
     1    10    11    1
     2    11     9    1
     3     9     8    1
     4     8     7    1
     5     7     1    1
     6     1     2   ar
     7     2     3   ar
     8     3     4   ar
     9     4    18    1
    10    18    19    1
    11    19    20    1
    12    20    21    1
    13    21    22    2
    14    21    23   am
    15    23    24   am
    16    24    25    2
    17     4     5   ar
    18     5     6   ar
    19    11    12    1
    20    12    13   ar
    21    13    14   ar
    22    14    15   ar
    23    15    16   ar
    24    16    17   ar
    25     6     1   ar
    26    17    12   ar
    27    24    19    1
    28    23    26    1
@<TRIPOS>MOLECULE
*****
 26 28 0 0 0
SMALL
GASTEIGER

@<TRIPOS>ATOM
      1 C         -22.2334  -10.1632  -10.3910 C.ar    1  UNL1        0.1386
      2 C         -21.1171  -10.8308  -10.9085 C.ar    1  UNL1        0.0366
      3 C         -21.2128  -11.5686  -12.0909 C.ar    1  UNL1       -0.0011
      4 C         -22.4365  -11.6593  -12.7708 C.ar    1  UNL1       -0.0206
      5 C         -23.5671  -11.0249  -12.2353 C.ar    1  UNL1       -0.0011
      6 C         -23.4709  -10.2868  -11.0524 C.ar    1  UNL1        0.0366
      7 O         -22.0556   -9.3829   -9.2362 O.3     1  UNL1       -0.4736
      8 C         -22.2814   -7.9761   -9.1229 C.3     1  UNL1        0.2267
      9 C         -21.2434   -7.1652   -9.9111 C.3     1  UNL1        0.1396
     10 C         -22.2187   -5.0578  -10.9005 C.3     1  UNL1        0.1137
     11 N         -21.8456   -6.4690  -11.0622 N.pl3   1  UNL1       -0.2879
     12 C         -22.1127   -7.1111  -12.3370 C.ar    1  UNL1        0.1318
     13 C         -21.1048   -7.7484  -13.0930 C.ar    1  UNL1        0.0343
     14 C         -21.4382   -8.3899  -14.2878 C.ar    1  UNL1        0.0045
     15 C         -22.7583   -8.3945  -14.7334 C.ar    1  UNL1        0.0208
     16 C         -23.7330   -7.7497  -13.9749 C.ar    1  UNL1        0.1003
     17 N         -23.3925   -7.1336  -12.8126 N.ar    1  UNL1       -0.2292
     18 C         -22.5476  -12.4560  -14.0454 C.3     1  UNL1        0.0468
     19 C         -24.0042  -12.5525  -14.5259 C.3     1  UNL1        0.1369
     20 S         -24.6628  -14.2586  -14.2829 S.3     1  UNL1       -0.0482
     21 C         -24.8682  -14.4408  -16.0465 C.2     1  UNL1        0.2792
     22 O         -25.2586  -15.5145  -16.5740 O.2     1  UNL1       -0.2625
     23 N         -24.5544  -13.3008  -16.8180 N.am    1  UNL1       -0.2460
     24 C         -24.0988  -12.2474  -15.9912 C.2     1  UNL1        0.2392
     25 O         -23.8040  -11.1191  -16.4674 O.2     1  UNL1       -0.2737
     26 H         -24.6473  -13.2430  -17.8565 H       1  UNL1        0.1583
@<TRIPOS>BOND
     1    10    11    1
     2    11     9    1
     3     9     8    1
     4     8     7    1
     5     7     1    1
     6     1     2   ar
     7     2     3   ar
     8     3     4   ar
     9     4    18    1
    10    18    19    1
    11    19    20    1
    12    20    21    1
    13    21    22    2
    14    21    23   am
    15    23    24   am
    16    24    25    2
    17     4     5   ar
    18     5     6   ar
    19    11    12    1
    20    12    13   ar
    21    13    14   ar
    22    14    15   ar
    23    15    16   ar
    24    16    17   ar
    25     6     1   ar
    26    17    12   ar
    27    24    19    1
    28    23    26    1
@<TRIPOS>MOLECULE
*****
 26 28 0 0 0
SMALL
GASTEIGER

@<TRIPOS>ATOM
      1 C         -23.9598  -10.7385  -13.6251 C.ar    1  UNL1        0.1386
      2 C         -22.9806  -11.5479  -13.0370 C.ar    1  UNL1        0.0366
      3 C         -21.9386  -10.9826  -12.2979 C.ar    1  UNL1       -0.0011
      4 C         -21.8540   -9.5907  -12.1449 C.ar    1  UNL1       -0.0206
      5 C         -22.8103   -8.7733  -12.7653 C.ar    1  UNL1       -0.0011
      6 C         -23.8527   -9.3392  -13.5045 C.ar    1  UNL1        0.0366
      7 O         -25.0186  -11.3716  -14.2976 O.3     1  UNL1       -0.4736
      8 C         -24.9051  -12.4527  -15.2258 C.3     1  UNL1        0.2267
      9 C         -24.3951  -11.9799  -16.5943 C.3     1  UNL1        0.1396
     10 C         -21.9931  -12.7521  -16.5199 C.3     1  UNL1        0.1137
     11 N         -22.9596  -11.6472  -16.5632 N.pl3   1  UNL1       -0.2879
     12 C         -22.4524  -10.2865  -16.5469 C.ar    1  UNL1        0.1318
     13 C         -21.1444   -9.9680  -16.1212 C.ar    1  UNL1        0.0343
     14 C         -20.7024   -8.6444  -16.1768 C.ar    1  UNL1        0.0045
     15 C         -21.5515   -7.6436  -16.6443 C.ar    1  UNL1        0.0208
     16 C         -22.8411   -7.9816  -17.0489 C.ar    1  UNL1        0.1003
     17 N         -23.2543   -9.2748  -16.9921 N.ar    1  UNL1       -0.2292
     18 C         -20.7308   -8.9740  -11.3513 C.3     1  UNL1        0.0468
     19 C         -20.7153   -9.4864   -9.9026 C.3     1  UNL1        0.1369
     20 S         -21.4363   -8.2332   -8.7565 S.3     1  UNL1       -0.0482
     21 C         -19.8681   -8.0847   -7.9171 C.2     1  UNL1        0.2792
     22 O         -19.6745   -7.2584   -6.9880 O.2     1  UNL1       -0.2625
     23 N         -18.8496   -8.9511   -8.3699 N.am    1  UNL1       -0.2460
     24 C         -19.3095   -9.7434   -9.4476 C.2     1  UNL1        0.2392
     25 O         -18.5765  -10.6194   -9.9788 O.2     1  UNL1       -0.2737
     26 H         -17.8887   -9.0011   -7.9639 H       1  UNL1        0.1583
@<TRIPOS>BOND
     1    10    11    1
     2    11     9    1
     3     9     8    1
     4     8     7    1
     5     7     1    1
     6     1     2   ar
     7     2     3   ar
     8     3     4   ar
     9     4    18    1
    10    18    19    1
    11    19    20    1
    12    20    21    1
    13    21    22    2
    14    21    23   am
    15    23    24   am
    16    24    25    2
    17     4     5   ar
    18     5     6   ar
    19    11    12    1
    20    12    13   ar
    21    13    14   ar
    22    14    15   ar
    23    15    16   ar
    24    16    17   ar
    25     6     1   ar
    26    17    12   ar
    27    24    19    1
    28    23    26    1
@<TRIPOS>MOLECULE
*****
 26 28 0 0 0
SMALL
GASTEIGER

@<TRIPOS>ATOM
      1 C         -24.4484  -11.3569  -13.7068 C.ar    1  UNL1        0.1386
      2 C         -24.7691   -9.9979  -13.8072 C.ar    1  UNL1        0.0366
      3 C         -23.9487   -9.0275  -13.2268 C.ar    1  UNL1       -0.0011
      4 C         -22.7950   -9.4051  -12.5237 C.ar    1  UNL1       -0.0206
      5 C         -22.4908  -10.7675  -12.3865 C.ar    1  UNL1       -0.0011
      6 C         -23.3117  -11.7380  -12.9675 C.ar    1  UNL1        0.0366
      7 O         -25.2765  -12.2782  -14.3698 O.3     1  UNL1       -0.4736
      8 C         -24.8643  -13.2329  -15.3504 C.3     1  UNL1        0.2267
      9 C         -24.3784  -12.5553  -16.6392 C.3     1  UNL1        0.1396
     10 C         -21.9394  -13.1778  -16.4526 C.3     1  UNL1        0.1137
     11 N         -22.9691  -12.1346  -16.5438 N.pl3   1  UNL1       -0.2879
     12 C         -22.5479  -10.7453  -16.5090 C.ar    1  UNL1        0.1318
     13 C         -21.2978  -10.3428  -15.9907 C.ar    1  UNL1        0.0343
     14 C         -20.9337   -8.9952  -16.0320 C.ar    1  UNL1        0.0045
     15 C         -21.8037   -8.0531  -16.5766 C.ar    1  UNL1        0.0208
     16 C         -23.0360   -8.4736  -17.0723 C.ar    1  UNL1        0.1003
     17 N         -23.3732   -9.7892  -17.0280 N.ar    1  UNL1       -0.2292
     18 C         -21.9071   -8.3635  -11.8925 C.3     1  UNL1        0.0468
     19 C         -22.7162   -7.3729  -11.0407 C.3     1  UNL1        0.1369
     20 S         -22.1318   -5.6443  -11.3133 S.3     1  UNL1       -0.0482
     21 C         -21.6335   -5.5329   -9.6031 C.2     1  UNL1        0.2792
     22 O         -21.0474   -4.5228   -9.1344 O.2     1  UNL1       -0.2625
     23 N         -21.9316   -6.6596   -8.8063 N.am    1  UNL1       -0.2460
     24 C         -22.5476   -7.6706   -9.5805 C.2     1  UNL1        0.2392
     25 O         -22.9388   -8.7493   -9.0608 O.2     1  UNL1       -0.2737
     26 H         -21.7265   -6.7356   -7.7852 H       1  UNL1        0.1583
@<TRIPOS>BOND
     1    10    11    1
     2    11     9    1
     3     9     8    1
     4     8     7    1
     5     7     1    1
     6     1     2   ar
     7     2     3   ar
     8     3     4   ar
     9     4    18    1
    10    18    19    1
    11    19    20    1
    12    20    21    1
    13    21    22    2
    14    21    23   am
    15    23    24   am
    16    24    25    2
    17     4     5   ar
    18     5     6   ar
    19    11    12    1
    20    12    13   ar
    21    13    14   ar
    22    14    15   ar
    23    15    16   ar
    24    16    17   ar
    25     6     1   ar
    26    17    12   ar
    27    24    19    1
    28    23    26    1
@<TRIPOS>MOLECULE
*****
 26 28 0 0 0
SMALL
GASTEIGER

@<TRIPOS>ATOM
      1 C         -21.2096  -12.8845  -13.3669 C.ar    1  UNL1        0.1386
      2 C         -20.2951  -13.0488  -12.3197 C.ar    1  UNL1        0.0366
      3 C         -20.2651  -12.1484  -11.2521 C.ar    1  UNL1       -0.0011
      4 C         -21.1468  -11.0577  -11.2216 C.ar    1  UNL1       -0.0206
      5 C         -22.0380  -10.8665  -12.2878 C.ar    1  UNL1       -0.0011
      6 C         -22.0678  -11.7676  -13.3557 C.ar    1  UNL1        0.0366
      7 O         -21.2354  -13.8616  -14.3762 O.3     1  UNL1       -0.4736
      8 C         -22.1746  -13.9432  -15.4505 C.3     1  UNL1        0.2267
      9 C         -21.8450  -12.9512  -16.5746 C.3     1  UNL1        0.1396
     10 C         -24.1964  -12.0339  -16.5400 C.3     1  UNL1        0.1137
     11 N         -22.7489  -11.7870  -16.5655 N.pl3   1  UNL1       -0.2879
     12 C         -22.2847  -10.4116  -16.6068 C.ar    1  UNL1        0.1318
     13 C         -23.1484   -9.3255  -16.8677 C.ar    1  UNL1        0.0343
     14 C         -22.6468   -8.0223  -16.8445 C.ar    1  UNL1        0.0045
     15 C         -21.2992   -7.7974  -16.5713 C.ar    1  UNL1        0.0208
     16 C         -20.4651   -8.8863  -16.3273 C.ar    1  UNL1        0.1003
     17 N         -20.9699  -10.1477  -16.3499 N.ar    1  UNL1       -0.2292
     18 C         -21.1178  -10.0808  -10.0742 C.3     1  UNL1        0.0468
     19 C         -22.0819   -8.9071  -10.3075 C.3     1  UNL1        0.1369
     20 S         -21.1505   -7.3392  -10.5863 S.3     1  UNL1       -0.0482
     21 C         -21.8649   -6.6405   -9.1075 C.2     1  UNL1        0.2792
     22 O         -21.5450   -5.5030   -8.6746 O.2     1  UNL1       -0.2625
     23 N         -22.8105   -7.4527   -8.4445 N.am    1  UNL1       -0.2460
     24 C         -22.9555   -8.6939   -9.1072 C.2     1  UNL1        0.2392
     25 O         -23.7821   -9.5578   -8.7106 O.2     1  UNL1       -0.2737
     26 H         -23.3322   -7.1746   -7.5837 H       1  UNL1        0.1583
@<TRIPOS>BOND
     1    10    11    1
     2    11     9    1
     3     9     8    1
     4     8     7    1
     5     7     1    1
     6     1     2   ar
     7     2     3   ar
     8     3     4   ar
     9     4    18    1
    10    18    19    1
    11    19    20    1
    12    20    21    1
    13    21    22    2
    14    21    23   am
    15    23    24   am
    16    24    25    2
    17     4     5   ar
    18     5     6   ar
    19    11    12    1
    20    12    13   ar
    21    13    14   ar
    22    14    15   ar
    23    15    16   ar
    24    16    17   ar
    25     6     1   ar
    26    17    12   ar
    27    24    19    1
    28    23    26    1
@<TRIPOS>MOLECULE
*****
 26 28 0 0 0
SMALL
GASTEIGER

@<TRIPOS>ATOM
      1 C         -20.3229  -11.2770  -11.0383 C.ar    1  UNL1        0.1386
      2 C         -20.0689  -12.5888  -11.4561 C.ar    1  UNL1        0.0366
      3 C         -20.6731  -13.0996  -12.6074 C.ar    1  UNL1       -0.0011
      4 C         -21.5542  -12.3049  -13.3558 C.ar    1  UNL1       -0.0206
      5 C         -21.8426  -11.0034  -12.9194 C.ar    1  UNL1       -0.0011
      6 C         -21.2378  -10.4927  -11.7676 C.ar    1  UNL1        0.0366
      7 O         -19.6320  -10.8008   -9.9114 O.3     1  UNL1       -0.4736
      8 C         -19.2028   -9.4558   -9.6884 C.3     1  UNL1        0.2267
      9 C         -19.9402   -8.8087   -8.5079 C.3     1  UNL1        0.1396
     10 C         -22.4627   -8.8997   -8.4833 C.3     1  UNL1        0.1137
     11 N         -21.2313   -8.2265   -8.9161 N.pl3   1  UNL1       -0.2879
     12 C         -21.3490   -7.0393   -9.7441 C.ar    1  UNL1        0.1318
     13 C         -21.8434   -7.0806  -11.0660 C.ar    1  UNL1        0.0343
     14 C         -21.9773   -5.8948  -11.7914 C.ar    1  UNL1        0.0045
     15 C         -21.6183   -4.6786  -11.2142 C.ar    1  UNL1        0.0208
     16 C         -21.1232   -4.6652   -9.9120 C.ar    1  UNL1        0.1003
     17 N         -21.0029   -5.8275   -9.2185 N.ar    1  UNL1       -0.2292
     18 C         -22.2119  -12.8506  -14.5973 C.3     1  UNL1        0.0468
     19 C         -23.1759  -14.0009  -14.2665 C.3     1  UNL1        0.1369
     20 S         -23.1317  -15.2923  -15.5833 S.3     1  UNL1       -0.0482
     21 C         -24.8466  -14.9765  -15.9639 C.2     1  UNL1        0.2792
     22 O         -25.4459  -15.5510  -16.9096 O.2     1  UNL1       -0.2625
     23 N         -25.4901  -14.0291  -15.1383 N.am    1  UNL1       -0.2460
     24 C         -24.5875  -13.5010  -14.1858 C.2     1  UNL1        0.2392
     25 O         -24.9615  -12.6688  -13.3172 O.2     1  UNL1       -0.2737
     26 H         -26.4950  -13.7568  -15.2190 H       1  UNL1        0.1583
@<TRIPOS>BOND
     1    10    11    1
     2    11     9    1
     3     9     8    1
     4     8     7    1
     5     7     1    1
     6     1     2   ar
     7     2     3   ar
     8     3     4   ar
     9     4    18    1
    10    18    19    1
    11    19    20    1
    12    20    21    1
    13    21    22    2
    14    21    23   am
    15    23    24   am
    16    24    25    2
    17     4     5   ar
    18     5     6   ar
    19    11    12    1
    20    12    13   ar
    21    13    14   ar
    22    14    15   ar
    23    15    16   ar
    24    16    17   ar
    25     6     1   ar
    26    17    12   ar
    27    24    19    1
    28    23    26    1
@<TRIPOS>MOLECULE
*****
 26 28 0 0 0
SMALL
GASTEIGER

@<TRIPOS>ATOM
      1 C         -21.7301  -11.6406  -14.3996 C.ar    1  UNL1        0.1386
      2 C         -21.3499  -12.2329  -13.1894 C.ar    1  UNL1        0.0366
      3 C         -21.1073  -11.4500  -12.0582 C.ar    1  UNL1       -0.0011
      4 C         -21.2311  -10.0542  -12.1242 C.ar    1  UNL1       -0.0206
      5 C         -21.5732   -9.4532  -13.3445 C.ar    1  UNL1       -0.0011
      6 C         -21.8160  -10.2368  -14.4760 C.ar    1  UNL1        0.0366
      7 O         -22.0257  -12.4872  -15.4813 O.3     1  UNL1       -0.4736
      8 C         -22.9990  -13.5339  -15.4948 C.3     1  UNL1        0.2267
      9 C         -24.4205  -12.9900  -15.6940 C.3     1  UNL1        0.1396
     10 C         -25.9809  -13.9445  -13.9546 C.3     1  UNL1        0.1137
     11 N         -25.1361  -12.8348  -14.4149 N.pl3   1  UNL1       -0.2879
     12 C         -25.0705  -11.6344  -13.6002 C.ar    1  UNL1        0.1318
     13 C         -25.4346  -10.3617  -14.0914 C.ar    1  UNL1        0.0343
     14 C         -25.3951   -9.2551  -13.2405 C.ar    1  UNL1        0.0045
     15 C         -24.9920   -9.4069  -11.9155 C.ar    1  UNL1        0.0208
     16 C         -24.6276  -10.6712  -11.4574 C.ar    1  UNL1        0.1003
     17 N         -24.6754  -11.7383  -12.2973 N.ar    1  UNL1       -0.2292
     18 C         -20.9679   -9.2033  -10.9083 C.3     1  UNL1        0.0468
     19 C         -22.0037   -8.0761  -10.7730 C.3     1  UNL1        0.1369
     20 S         -21.2640   -6.4483  -11.2276 S.3     1  UNL1       -0.0482
     21 C         -21.5246   -5.8546   -9.5647 C.2     1  UNL1        0.2792
     22 O         -21.1345   -4.7208   -9.1829 O.2     1  UNL1       -0.2625
     23 N         -22.1917   -6.7460   -8.6965 N.am    1  UNL1       -0.2460
     24 C         -22.4807   -7.9637   -9.3556 C.2     1  UNL1        0.2392
     25 O         -23.1131   -8.8884   -8.7797 O.2     1  UNL1       -0.2737
     26 H         -22.4390   -6.5346   -7.7042 H       1  UNL1        0.1583
@<TRIPOS>BOND
     1    10    11    1
     2    11     9    1
     3     9     8    1
     4     8     7    1
     5     7     1    1
     6     1     2   ar
     7     2     3   ar
     8     3     4   ar
     9     4    18    1
    10    18    19    1
    11    19    20    1
    12    20    21    1
    13    21    22    2
    14    21    23   am
    15    23    24   am
    16    24    25    2
    17     4     5   ar
    18     5     6   ar
    19    11    12    1
    20    12    13   ar
    21    13    14   ar
    22    14    15   ar
    23    15    16   ar
    24    16    17   ar
    25     6     1   ar
    26    17    12   ar
    27    24    19    1
    28    23    26    1
@<TRIPOS>MOLECULE
*****
 26 28 0 0 0
SMALL
GASTEIGER

@<TRIPOS>ATOM
      1 C         -21.2703  -12.6230  -14.1551 C.ar    1  UNL1        0.1386
      2 C         -21.1882  -12.6815  -12.7587 C.ar    1  UNL1        0.0366
      3 C         -21.5061  -11.5668  -11.9790 C.ar    1  UNL1       -0.0011
      4 C         -21.9020  -10.3669  -12.5885 C.ar    1  UNL1       -0.0206
      5 C         -21.9476  -10.2914  -13.9884 C.ar    1  UNL1       -0.0011
      6 C         -21.6297  -11.4069  -14.7682 C.ar    1  UNL1        0.0366
      7 O         -21.0034  -13.7974  -14.8788 O.3     1  UNL1       -0.4736
      8 C         -21.7518  -14.2943  -15.9905 C.3     1  UNL1        0.2267
      9 C         -22.8409  -15.2826  -15.5505 C.3     1  UNL1        0.1396
     10 C         -25.1312  -15.4181  -16.6030 C.3     1  UNL1        0.1137
     11 N         -24.1938  -14.7209  -15.7130 N.pl3   1  UNL1       -0.2879
     12 C         -24.6393  -13.5022  -15.0609 C.ar    1  UNL1        0.1318
     13 C         -24.7612  -13.3914  -13.6586 C.ar    1  UNL1        0.0343
     14 C         -25.1481  -12.1749  -13.0922 C.ar    1  UNL1        0.0045
     15 C         -25.4182  -11.0789  -13.9088 C.ar    1  UNL1        0.0208
     16 C         -25.3008  -11.2162  -15.2903 C.ar    1  UNL1        0.1003
     17 N         -24.9195  -12.4058  -15.8251 N.ar    1  UNL1       -0.2292
     18 C         -22.2435   -9.1596  -11.7534 C.3     1  UNL1        0.0468
     19 C         -20.9872   -8.3561  -11.3822 C.3     1  UNL1        0.1369
     20 S         -20.3315   -8.8859   -9.7411 S.3     1  UNL1       -0.0482
     21 C         -20.6418   -7.2571   -9.0806 C.2     1  UNL1        0.2792
     22 O         -20.4462   -6.9697   -7.8712 O.2     1  UNL1       -0.2625
     23 N         -21.1323   -6.3080  -10.0035 N.am    1  UNL1       -0.2460
     24 C         -21.3058   -6.8942  -11.2790 C.2     1  UNL1        0.2392
     25 O         -21.6943   -6.2156  -12.2667 O.2     1  UNL1       -0.2737
     26 H         -21.3376   -5.3097   -9.7759 H       1  UNL1        0.1583
@<TRIPOS>BOND
     1    10    11    1
     2    11     9    1
     3     9     8    1
     4     8     7    1
     5     7     1    1
     6     1     2   ar
     7     2     3   ar
     8     3     4   ar
     9     4    18    1
    10    18    19    1
    11    19    20    1
    12    20    21    1
    13    21    22    2
    14    21    23   am
    15    23    24   am
    16    24    25    2
    17     4     5   ar
    18     5     6   ar
    19    11    12    1
    20    12    13   ar
    21    13    14   ar
    22    14    15   ar
    23    15    16   ar
    24    16    17   ar
    25     6     1   ar
    26    17    12   ar
    27    24    19    1
    28    23    26    1
