@<TRIPOS>MOLECULE
*****
 52 57 0 0 0
SMALL
GASTEIGER

@<TRIPOS>ATOM
      1 C          60.0514   88.0620    7.2190 C.ar    1  UNL1        0.0502
      2 C          59.5803   86.7428    7.1630 C.ar    1  UNL1        0.0148
      3 C          59.6265   85.9267    8.2958 C.ar    1  UNL1        0.0080
      4 C          60.1542   86.4111    9.5047 C.ar    1  UNL1        0.0808
      5 C          60.6090   87.7431    9.5662 C.ar    1  UNL1        0.1457
      6 F          61.0599   88.2760   10.7299 F       1  UNL1       -0.2040
      7 C          60.5584   88.5572    8.4304 C.ar    1  UNL1        0.0443
      8 C          58.9025   89.8593    5.8777 C.3     1  UNL1        0.1223
      9 C          59.4271   91.1359    5.2049 C.3     1  UNL1        0.1144
     10 N          60.2287   90.7913    4.0260 N.pl3   1  UNL1       -0.2897
     11 C          61.3543   89.8692    4.2174 C.3     1  UNL1        0.1136
     12 C          60.8712   88.5853    4.8970 C.3     1  UNL1        0.1123
     13 N          60.0081   88.8975    6.0465 N.pl3   1  UNL1       -0.3034
     14 C          59.9432   91.3886    2.7462 C.ar    1  UNL1        0.1318
     15 C          59.9743   92.7807    2.5715 C.ar    1  UNL1        0.0343
     16 C          59.6898   93.3243    1.3179 C.ar    1  UNL1        0.0083
     17 C          59.3889   92.4846    0.2350 C.ar    1  UNL1        0.0906
     18 C          59.3329   91.1005    0.4607 C.ar    1  UNL1        0.1041
     19 N          59.6123   90.5944    1.6907 N.ar    1  UNL1       -0.2292
     20 C          59.0301   93.0612   -1.1107 C.3     1  UNL1        0.4200
     21 F          57.8934   93.8455   -1.0179 F       1  UNL1       -0.1658
     22 F          58.7944   92.0295   -1.9999 F       1  UNL1       -0.1658
     23 F          60.0609   93.8478   -1.5950 F       1  UNL1       -0.1658
     24 C          57.7553   89.2314    5.0686 C.3     1  UNL1        0.1636
     25 C          55.7958   90.4422    5.0472 C.3     1  UNL1        0.1742
     26 O          56.5321   89.4582    5.7372 O.3     1  UNL1       -0.3493
     27 C          60.2010   85.5236   10.6886 C.2     1  UNL1        0.2483
     28 O          60.9608   84.5165   10.6757 O.2     1  UNL1       -0.2701
     29 N          59.4216   85.8141   11.8599 N.am    1  UNL1       -0.2945
     30 H          58.9880   86.7608   11.9511 H       1  UNL1        0.1501
     31 C          59.3816   84.9090   13.0110 C.3     1  UNL1        0.1535
     32 C          58.6554   83.6429   12.6347 C.2     1  UNL1        0.2443
     33 O          57.4478   83.5037   12.9693 O.2     1  UNL1       -0.2730
     34 N          59.3191   82.6236   11.8710 N.am    1  UNL1       -0.2825
     35 H          60.1576   82.8999   11.3119 H       1  UNL1        0.1549
     36 C          58.8863   81.2534   11.8087 C.ar    1  UNL1        0.0535
     37 C          58.2872   80.7740   10.6360 C.ar    1  UNL1        0.0353
     38 C          57.9020   79.4339   10.5533 C.ar    1  UNL1        0.1002
     39 N          58.1234   78.5948   11.5992 N.ar    1  UNL1       -0.2422
     40 C          58.7186   79.0249   12.7428 C.ar    1  UNL1        0.1002
     41 C          59.1152   80.3582   12.8688 C.ar    1  UNL1        0.0353
     42 C          60.8115   84.6152   13.5058 C.3     1  UNL1        0.0569
     43 C          61.2449   85.5882   14.5668 C.ar    1  UNL1       -0.0017
     44 C          61.0703   85.4426   15.9398 C.ar    1  UNL1        0.0681
     45 N          61.6797   86.4513   16.6032 N.ar    1  UNL1       -0.3523
     46 C          62.2449   87.2274   15.6622 C.ar    1  UNL1        0.0563
     47 C          63.0125   88.3738   15.8634 C.ar    1  UNL1        0.0170
     48 C          63.5359   89.0225   14.7302 C.ar    1  UNL1        0.0015
     49 C          63.2820   88.5177   13.4360 C.ar    1  UNL1        0.0001
     50 C          62.5036   87.3592   13.2628 C.ar    1  UNL1        0.0012
     51 C          62.0014   86.7341   14.4056 C.ar    1  UNL1        0.0131
     52 H          61.7193   86.5844   17.6381 H       1  UNL1        0.1660
@<TRIPOS>BOND
     1    25    26    1
     2    26    24    1
     3    24     8    1
     4     8     9    1
     5     9    10    1
     6    10    14    1
     7    14    15   ar
     8    15    16   ar
     9    16    17   ar
    10    17    20    1
    11    20    21    1
    12    20    22    1
    13    20    23    1
    14    17    18   ar
    15    18    19   ar
    16    10    11    1
    17    11    12    1
    18    12    13    1
    19    13     1    1
    20     1     2   ar
    21     2     3   ar
    22     3     4   ar
    23     4    27    1
    24    27    28    2
    25    27    29   am
    26    29    31    1
    27    31    42    1
    28    42    43    1
    29    43    44   ar
    30    44    45   ar
    31    45    46   ar
    32    46    47   ar
    33    47    48   ar
    34    48    49   ar
    35    49    50   ar
    36    50    51   ar
    37    31    32    1
    38    32    33    2
    39    32    34   am
    40    34    36    1
    41    36    37   ar
    42    37    38   ar
    43    38    39   ar
    44    39    40   ar
    45    40    41   ar
    46     4     5   ar
    47     5     6    1
    48     5     7   ar
    49    13     8    1
    50     7     1   ar
    51    19    14   ar
    52    51    43   ar
    53    41    36   ar
    54    51    46   ar
    55    29    30    1
    56    45    52    1
    57    34    35    1
@<TRIPOS>MOLECULE
*****
 52 57 0 0 0
SMALL
GASTEIGER

@<TRIPOS>ATOM
      1 C          62.5495   87.6766   11.4723 C.ar    1  UNL1        0.0502
      2 C          62.0225   86.4950   12.0121 C.ar    1  UNL1        0.0148
      3 C          61.1121   85.7281   11.2811 C.ar    1  UNL1        0.0080
      4 C          60.7032   86.1332    9.9992 C.ar    1  UNL1        0.0808
      5 C          61.2482   87.3100    9.4488 C.ar    1  UNL1        0.1457
      6 F          60.9378   87.7020    8.1873 F       1  UNL1       -0.2040
      7 C          62.1613   88.0733   10.1832 C.ar    1  UNL1        0.0443
      8 C          63.8104   89.8354   11.7874 C.3     1  UNL1        0.1223
      9 C          64.0092   90.7425   13.0102 C.3     1  UNL1        0.1144
     10 N          64.9049   90.0973   13.9760 N.pl3   1  UNL1       -0.2897
     11 C          64.5419   88.7550   14.4455 C.3     1  UNL1        0.1136
     12 C          64.3247   87.8222   13.2514 C.3     1  UNL1        0.1123
     13 N          63.4827   88.4678   12.2325 N.pl3   1  UNL1       -0.3034
     14 C          66.0634   90.7918   14.4776 C.ar    1  UNL1        0.1318
     15 C          67.3173   90.6498   13.8636 C.ar    1  UNL1        0.0343
     16 C          68.4182   91.3361   14.3784 C.ar    1  UNL1        0.0083
     17 C          68.2704   92.1743   15.4936 C.ar    1  UNL1        0.0906
     18 C          67.0074   92.2603   16.0997 C.ar    1  UNL1        0.1041
     19 N          65.9504   91.5814   15.5813 N.ar    1  UNL1       -0.2292
     20 C          69.4610   92.8808   16.0898 C.3     1  UNL1        0.4200
     21 F          70.2054   93.5011   15.1014 F       1  UNL1       -0.1658
     22 F          70.2578   91.9587   16.7423 F       1  UNL1       -0.1658
     23 F          69.0532   93.8454   16.9948 F       1  UNL1       -0.1658
     24 C          65.0569   89.8293   10.8867 C.3     1  UNL1        0.1636
     25 C          66.7296   91.3099   10.3247 C.3     1  UNL1        0.1742
     26 O          65.3366   91.1480   10.4655 O.3     1  UNL1       -0.3493
     27 C          59.7300   85.3083    9.2485 C.2     1  UNL1        0.2483
     28 O          58.8664   85.8769    8.5256 O.2     1  UNL1       -0.2701
     29 N          59.7797   83.8737    9.3055 N.am    1  UNL1       -0.2945
     30 H          60.6302   83.4174    9.7068 H       1  UNL1        0.1501
     31 C          58.7780   83.0343    8.6437 C.3     1  UNL1        0.1535
     32 C          59.2448   81.6011    8.6339 C.2     1  UNL1        0.2443
     33 O          58.6065   80.7510    7.9559 O.2     1  UNL1       -0.2730
     34 N          60.4244   81.2156    9.3567 N.am    1  UNL1       -0.2825
     35 H          61.1160   81.9613    9.5968 H       1  UNL1        0.1549
     36 C          60.7239   79.8643    9.7479 C.ar    1  UNL1        0.0535
     37 C          61.9398   79.2884    9.3558 C.ar    1  UNL1        0.0353
     38 C          62.2557   77.9912    9.7666 C.ar    1  UNL1        0.1002
     39 N          61.3952   77.2977   10.5575 N.ar    1  UNL1       -0.2422
     40 C          60.2168   77.8351   10.9694 C.ar    1  UNL1        0.1002
     41 C          59.8602   79.1275   10.5778 C.ar    1  UNL1        0.0353
     42 C          57.4143   83.1801    9.3472 C.3     1  UNL1        0.0569
     43 C          57.5303   82.9845   10.8333 C.ar    1  UNL1       -0.0017
     44 C          57.7579   81.7793   11.4910 C.ar    1  UNL1        0.0681
     45 N          57.9166   81.9877   12.8178 N.ar    1  UNL1       -0.3523
     46 C          57.8001   83.3141   13.0026 C.ar    1  UNL1        0.0563
     47 C          57.9219   84.0127   14.2030 C.ar    1  UNL1        0.0170
     48 C          57.7911   85.4128   14.1657 C.ar    1  UNL1        0.0015
     49 C          57.5428   86.0758   12.9439 C.ar    1  UNL1        0.0001
     50 C          57.4241   85.3454   11.7479 C.ar    1  UNL1        0.0012
     51 C          57.5631   83.9578   11.8147 C.ar    1  UNL1        0.0131
     52 H          58.1118   81.2641   13.5449 H       1  UNL1        0.1660
@<TRIPOS>BOND
     1    25    26    1
     2    26    24    1
     3    24     8    1
     4     8     9    1
     5     9    10    1
     6    10    14    1
     7    14    15   ar
     8    15    16   ar
     9    16    17   ar
    10    17    20    1
    11    20    21    1
    12    20    22    1
    13    20    23    1
    14    17    18   ar
    15    18    19   ar
    16    10    11    1
    17    11    12    1
    18    12    13    1
    19    13     1    1
    20     1     2   ar
    21     2     3   ar
    22     3     4   ar
    23     4    27    1
    24    27    28    2
    25    27    29   am
    26    29    31    1
    27    31    42    1
    28    42    43    1
    29    43    44   ar
    30    44    45   ar
    31    45    46   ar
    32    46    47   ar
    33    47    48   ar
    34    48    49   ar
    35    49    50   ar
    36    50    51   ar
    37    31    32    1
    38    32    33    2
    39    32    34   am
    40    34    36    1
    41    36    37   ar
    42    37    38   ar
    43    38    39   ar
    44    39    40   ar
    45    40    41   ar
    46     4     5   ar
    47     5     6    1
    48     5     7   ar
    49    13     8    1
    50     7     1   ar
    51    19    14   ar
    52    51    43   ar
    53    41    36   ar
    54    51    46   ar
    55    29    30    1
    56    45    52    1
    57    34    35    1
@<TRIPOS>MOLECULE
*****
 52 57 0 0 0
SMALL
GASTEIGER

@<TRIPOS>ATOM
      1 C          62.0234   86.7386   10.6182 C.ar    1  UNL1        0.0502
      2 C          62.3058   86.7106   11.9910 C.ar    1  UNL1        0.0148
      3 C          63.0424   87.7395   12.5827 C.ar    1  UNL1        0.0080
      4 C          63.5198   88.8122   11.8106 C.ar    1  UNL1        0.0808
      5 C          63.2188   88.8504   10.4349 C.ar    1  UNL1        0.1457
      6 F          63.5971   89.9015    9.6643 F       1  UNL1       -0.2040
      7 C          62.4788   87.8195    9.8474 C.ar    1  UNL1        0.0443
      8 C          61.6250   84.2705   10.3033 C.3     1  UNL1        0.1223
      9 C          60.3503   83.4170   10.3672 C.3     1  UNL1        0.1144
     10 N          59.5047   83.6859    9.1994 N.pl3   1  UNL1       -0.2897
     11 C          59.1202   85.0796    8.9472 C.3     1  UNL1        0.1136
     12 C          60.3673   85.9654    8.8870 C.3     1  UNL1        0.1123
     13 N          61.2694   85.6719   10.0112 N.pl3   1  UNL1       -0.3034
     14 C          59.0314   82.6043    8.3733 C.ar    1  UNL1        0.1318
     15 C          57.7560   82.0505    8.5629 C.ar    1  UNL1        0.0343
     16 C          57.3317   81.0018    7.7454 C.ar    1  UNL1        0.0083
     17 C          58.1684   80.5136    6.7306 C.ar    1  UNL1        0.0906
     18 C          59.4498   81.0708    6.5979 C.ar    1  UNL1        0.1041
     19 N          59.8414   82.0903    7.4068 N.ar    1  UNL1       -0.2292
     20 C          57.7424   79.3483    5.8746 C.3     1  UNL1        0.4200
     21 F          57.0539   78.4146    6.6297 F       1  UNL1       -0.1658
     22 F          58.8630   78.7497    5.3299 F       1  UNL1       -0.1658
     23 F          56.9142   79.7726    4.8500 F       1  UNL1       -0.1658
     24 C          62.6085   83.7294    9.2521 C.3     1  UNL1        0.1636
     25 C          64.0528   82.2779   10.3071 C.3     1  UNL1        0.1742
     26 O          62.8845   82.3713    9.5244 O.3     1  UNL1       -0.3493
     27 C          64.3064   89.8855   12.4592 C.2     1  UNL1        0.2483
     28 O          64.1180   91.0841   12.1135 O.2     1  UNL1       -0.2701
     29 N          65.2517   89.5828   13.4977 N.am    1  UNL1       -0.2945
     30 H          65.2278   88.6342   13.9362 H       1  UNL1        0.1501
     31 C          66.1052   90.6122   14.0961 C.3     1  UNL1        0.1535
     32 C          66.4574   91.6452   13.0565 C.2     1  UNL1        0.2443
     33 O          66.1632   92.8533   13.2654 O.2     1  UNL1       -0.2730
     34 N          67.1539   91.2643   11.8597 N.am    1  UNL1       -0.2825
     35 H          67.6917   90.3684   11.8713 H       1  UNL1        0.1549
     36 C          67.1773   92.0514   10.6560 C.ar    1  UNL1        0.0535
     37 C          68.0322   91.6815    9.6090 C.ar    1  UNL1        0.0353
     38 C          68.0304   92.4167    8.4212 C.ar    1  UNL1        0.1002
     39 N          67.1905   93.4752    8.2756 N.ar    1  UNL1       -0.2422
     40 C          66.3369   93.8476    9.2654 C.ar    1  UNL1        0.1002
     41 C          66.3098   93.1425   10.4707 C.ar    1  UNL1        0.0353
     42 C          65.3988   91.2487   15.3092 C.3     1  UNL1        0.0569
     43 C          64.2144   90.4362   15.7537 C.ar    1  UNL1       -0.0017
     44 C          63.0036   90.9341   16.2257 C.ar    1  UNL1        0.0681
     45 N          62.1250   89.9260   16.4280 N.ar    1  UNL1       -0.3523
     46 C          62.7669   88.7974   16.0797 C.ar    1  UNL1        0.0563
     47 C          62.2565   87.5000   16.0864 C.ar    1  UNL1        0.0170
     48 C          63.0980   86.4597   15.6521 C.ar    1  UNL1        0.0015
     49 C          64.4160   86.7358   15.2270 C.ar    1  UNL1        0.0001
     50 C          64.9047   88.0546   15.2313 C.ar    1  UNL1        0.0012
     51 C          64.0458   89.0670   15.6630 C.ar    1  UNL1        0.0131
     52 H          61.1408   90.0135   16.7657 H       1  UNL1        0.1660
@<TRIPOS>BOND
     1    25    26    1
     2    26    24    1
     3    24     8    1
     4     8     9    1
     5     9    10    1
     6    10    14    1
     7    14    15   ar
     8    15    16   ar
     9    16    17   ar
    10    17    20    1
    11    20    21    1
    12    20    22    1
    13    20    23    1
    14    17    18   ar
    15    18    19   ar
    16    10    11    1
    17    11    12    1
    18    12    13    1
    19    13     1    1
    20     1     2   ar
    21     2     3   ar
    22     3     4   ar
    23     4    27    1
    24    27    28    2
    25    27    29   am
    26    29    31    1
    27    31    42    1
    28    42    43    1
    29    43    44   ar
    30    44    45   ar
    31    45    46   ar
    32    46    47   ar
    33    47    48   ar
    34    48    49   ar
    35    49    50   ar
    36    50    51   ar
    37    31    32    1
    38    32    33    2
    39    32    34   am
    40    34    36    1
    41    36    37   ar
    42    37    38   ar
    43    38    39   ar
    44    39    40   ar
    45    40    41   ar
    46     4     5   ar
    47     5     6    1
    48     5     7   ar
    49    13     8    1
    50     7     1   ar
    51    19    14   ar
    52    51    43   ar
    53    41    36   ar
    54    51    46   ar
    55    29    30    1
    56    45    52    1
    57    34    35    1
