@<TRIPOS>MOLECULE
*****
 46 51 0 0 0
SMALL
GASTEIGER

@<TRIPOS>ATOM
      1 C         -68.4328  -55.1908  -23.2222 C.ar    1  UNL1        0.1318
      2 C         -67.2723  -55.8944  -22.8438 C.ar    1  UNL1        0.0356
      3 C         -66.0518  -55.2240  -22.7624 C.ar    1  UNL1        0.0191
      4 C         -65.9756  -53.8580  -23.0507 C.ar    1  UNL1        0.0702
      5 C         -67.1597  -53.1747  -23.3633 C.ar    1  UNL1        0.1149
      6 N         -68.3355  -53.8503  -23.4499 N.ar    1  UNL1       -0.2279
      7 C         -72.2883  -56.2795  -22.3472 C.3     1  UNL1        0.0471
      8 C         -72.1661  -55.8509  -23.8250 C.3     1  UNL1        0.0252
      9 C         -70.8049  -55.2165  -24.1415 C.3     1  UNL1        0.0923
     10 N         -69.7049  -55.8629  -23.4048 N.pl3   1  UNL1       -0.2932
     11 C         -69.9313  -57.2156  -22.8709 C.3     1  UNL1        0.0923
     12 C         -71.1378  -57.2343  -21.9166 C.3     1  UNL1        0.0252
     13 C         -72.4685  -55.0805  -21.3815 C.3     1  UNL1        0.2054
     14 O         -71.6516  -55.2025  -20.2123 O.3     1  UNL1       -0.4758
     15 C         -69.5459  -55.2149  -19.0160 C.ar    1  UNL1        0.0180
     16 C         -70.4203  -54.5789  -19.9325 C.ar    1  UNL1        0.1347
     17 C         -70.0273  -53.3716  -20.5409 C.ar    1  UNL1        0.0366
     18 C         -68.7700  -52.8314  -20.2895 C.ar    1  UNL1        0.0033
     19 C         -67.8953  -53.4639  -19.4123 C.ar    1  UNL1        0.0063
     20 C         -68.2708  -54.6401  -18.7465 C.ar    1  UNL1        0.0744
     21 C         -67.2940  -55.2306  -17.8015 C.2     1  UNL1        0.3378
     22 O         -67.4588  -55.1374  -16.5561 O.2     1  UNL1       -0.2451
     23 O         -66.1509  -55.8560  -18.2925 O.3     1  UNL1       -0.4771
     24 H         -65.4687  -56.2615  -17.6629 H       1  UNL1        0.2954
     25 C         -70.8006  -56.2047  -17.0825 C.3     1  UNL1        0.0051
     26 C         -70.0037  -56.4998  -18.3499 C.3     1  UNL1        0.0297
     27 N         -64.7085  -53.1831  -22.9782 N.am    1  UNL1       -0.2766
     28 C         -64.1163  -52.4808  -24.0816 C.2     1  UNL1        0.2839
     29 O         -64.4718  -52.7440  -25.2618 O.2     1  UNL1       -0.2665
     30 H         -64.1226  -53.3331  -22.1268 H       1  UNL1        0.1553
     31 C         -63.0286  -51.5098  -23.8714 C.ar    1  UNL1        0.1946
     32 O         -61.8052  -51.8802  -23.5359 O.2     1  UNL1       -0.4492
     33 C         -61.0765  -50.7981  -23.4116 C.ar    1  UNL1        0.1452
     34 C         -59.7329  -50.7190  -23.0618 C.ar    1  UNL1        0.0375
     35 C         -59.1459  -49.4440  -22.9818 C.ar    1  UNL1        0.0031
     36 C         -59.9060  -48.2735  -23.2513 C.ar    1  UNL1        0.0002
     37 C         -61.2706  -48.3993  -23.6060 C.ar    1  UNL1        0.0028
     38 C         -61.8194  -49.6799  -23.6758 C.ar    1  UNL1        0.0337
     39 C         -63.0902  -50.1160  -23.9932 C.ar    1  UNL1        0.0202
     40 C         -64.2588  -49.2635  -24.3858 C.3     1  UNL1        0.0345
     41 C         -59.2758  -46.9317  -23.1625 C.ar    1  UNL1        0.0000
     42 C         -60.0023  -45.7756  -23.5059 C.ar    1  UNL1        0.0000
     43 C         -59.4065  -44.5135  -23.4212 C.ar    1  UNL1        0.0000
     44 C         -58.0829  -44.3904  -22.9930 C.ar    1  UNL1        0.0000
     45 C         -57.3518  -45.5295  -22.6488 C.ar    1  UNL1        0.0000
     46 C         -57.9422  -46.7942  -22.7325 C.ar    1  UNL1        0.0000
@<TRIPOS>BOND
     1    25    26    1
     2    26    15    1
     3    15    16   ar
     4    16    14    1
     5    14    13    1
     6    13     7    1
     7     7     8    1
     8     8     9    1
     9     9    10    1
    10    10     1    1
    11     1     2   ar
    12     2     3   ar
    13     3     4   ar
    14     4    27    1
    15    27    28   am
    16    28    29    2
    17    28    31    1
    18    31    32   ar
    19    32    33   ar
    20    33    34   ar
    21    34    35   ar
    22    35    36   ar
    23    36    41    1
    24    41    42   ar
    25    42    43   ar
    26    43    44   ar
    27    44    45   ar
    28    45    46   ar
    29    36    37   ar
    30    37    38   ar
    31    38    39   ar
    32    39    40    1
    33     4     5   ar
    34     5     6   ar
    35    10    11    1
    36    11    12    1
    37    16    17   ar
    38    17    18   ar
    39    18    19   ar
    40    19    20   ar
    41    20    21    1
    42    21    22    2
    43    21    23    1
    44    20    15   ar
    45    12     7    1
    46     6     1   ar
    47    39    31   ar
    48    38    33   ar
    49    46    41   ar
    50    27    30    1
    51    23    24    1
@<TRIPOS>MOLECULE
*****
 46 51 0 0 0
SMALL
GASTEIGER

@<TRIPOS>ATOM
      1 C         -62.9993  -43.1719  -20.2909 C.ar    1  UNL1        0.1318
      2 C         -63.6919  -43.9560  -21.2345 C.ar    1  UNL1        0.0356
      3 C         -63.1229  -44.1980  -22.4849 C.ar    1  UNL1        0.0191
      4 C         -61.8683  -43.6697  -22.8042 C.ar    1  UNL1        0.0702
      5 C         -61.1786  -42.9463  -21.8204 C.ar    1  UNL1        0.1149
      6 N         -61.7575  -42.7114  -20.6138 N.ar    1  UNL1       -0.2279
      7 C         -65.4122  -41.1311  -17.6776 C.3     1  UNL1        0.0471
      8 C         -65.5285  -42.6533  -17.4499 C.3     1  UNL1        0.0252
      9 C         -64.8292  -43.4661  -18.5480 C.3     1  UNL1        0.0923
     10 N         -63.5886  -42.8216  -19.0128 N.pl3   1  UNL1       -0.2932
     11 C         -62.9588  -41.8212  -18.1362 C.3     1  UNL1        0.0923
     12 C         -63.9332  -40.6718  -17.8261 C.3     1  UNL1        0.0252
     13 C         -66.3194  -40.6190  -18.8254 C.3     1  UNL1        0.2054
     14 O         -65.5633  -40.2250  -19.9753 O.3     1  UNL1       -0.4758
     15 C         -64.8533  -40.4155  -22.2828 C.ar    1  UNL1        0.0180
     16 C         -65.9057  -40.3480  -21.3357 C.ar    1  UNL1        0.1347
     17 C         -67.2404  -40.4256  -21.7768 C.ar    1  UNL1        0.0366
     18 C         -67.5281  -40.6213  -23.1239 C.ar    1  UNL1        0.0033
     19 C         -66.5002  -40.7158  -24.0561 C.ar    1  UNL1        0.0063
     20 C         -65.1596  -40.5908  -23.6628 C.ar    1  UNL1        0.0744
     21 C         -64.1275  -40.6677  -24.7233 C.2     1  UNL1        0.3378
     22 O         -64.2022  -39.9475  -25.7542 O.2     1  UNL1       -0.2451
     23 O         -63.0846  -41.5827  -24.6056 O.3     1  UNL1       -0.4771
     24 H         -62.3719  -41.6542  -25.3220 H       1  UNL1        0.2954
     25 C         -63.1458  -38.9023  -21.2400 C.3     1  UNL1        0.0051
     26 C         -63.4233  -40.2996  -21.7868 C.3     1  UNL1        0.0297
     27 N         -61.3008  -43.9138  -24.1021 N.am    1  UNL1       -0.2766
     28 C         -61.8307  -44.8667  -25.0363 C.2     1  UNL1        0.2839
     29 O         -62.5658  -45.8068  -24.6311 O.2     1  UNL1       -0.2665
     30 H         -60.3742  -43.4837  -24.3194 H       1  UNL1        0.1553
     31 C         -61.4617  -44.8226  -26.4617 C.ar    1  UNL1        0.1946
     32 O         -60.4139  -45.4696  -26.9413 O.2     1  UNL1       -0.4492
     33 C         -60.3439  -45.2262  -28.2271 C.ar    1  UNL1        0.1452
     34 C         -59.3927  -45.6960  -29.1261 C.ar    1  UNL1        0.0375
     35 C         -59.5053  -45.3031  -30.4712 C.ar    1  UNL1        0.0031
     36 C         -60.5612  -44.4514  -30.8958 C.ar    1  UNL1        0.0002
     37 C         -61.5095  -43.9974  -29.9479 C.ar    1  UNL1        0.0028
     38 C         -61.3666  -44.4077  -28.6223 C.ar    1  UNL1        0.0337
     39 C         -62.1184  -44.1426  -27.4951 C.ar    1  UNL1        0.0202
     40 C         -63.3639  -43.3120  -27.4229 C.3     1  UNL1        0.0345
     41 C         -60.6696  -44.0417  -32.3190 C.ar    1  UNL1        0.0000
     42 C         -59.5547  -44.1256  -33.1748 C.ar    1  UNL1        0.0000
     43 C         -59.6596  -43.7393  -34.5146 C.ar    1  UNL1        0.0000
     44 C         -60.8750  -43.2671  -35.0149 C.ar    1  UNL1        0.0000
     45 C         -61.9884  -43.1799  -34.1763 C.ar    1  UNL1        0.0000
     46 C         -61.8890  -43.5639  -32.8355 C.ar    1  UNL1        0.0000
@<TRIPOS>BOND
     1    25    26    1
     2    26    15    1
     3    15    16   ar
     4    16    14    1
     5    14    13    1
     6    13     7    1
     7     7     8    1
     8     8     9    1
     9     9    10    1
    10    10     1    1
    11     1     2   ar
    12     2     3   ar
    13     3     4   ar
    14     4    27    1
    15    27    28   am
    16    28    29    2
    17    28    31    1
    18    31    32   ar
    19    32    33   ar
    20    33    34   ar
    21    34    35   ar
    22    35    36   ar
    23    36    41    1
    24    41    42   ar
    25    42    43   ar
    26    43    44   ar
    27    44    45   ar
    28    45    46   ar
    29    36    37   ar
    30    37    38   ar
    31    38    39   ar
    32    39    40    1
    33     4     5   ar
    34     5     6   ar
    35    10    11    1
    36    11    12    1
    37    16    17   ar
    38    17    18   ar
    39    18    19   ar
    40    19    20   ar
    41    20    21    1
    42    21    22    2
    43    21    23    1
    44    20    15   ar
    45    12     7    1
    46     6     1   ar
    47    39    31   ar
    48    38    33   ar
    49    46    41   ar
    50    27    30    1
    51    23    24    1
@<TRIPOS>MOLECULE
*****
 46 51 0 0 0
SMALL
GASTEIGER

@<TRIPOS>ATOM
      1 C         -65.3976  -40.5873  -21.0277 C.ar    1  UNL1        0.1318
      2 C         -64.3148  -39.8142  -21.4910 C.ar    1  UNL1        0.0356
      3 C         -63.9324  -39.8905  -22.8304 C.ar    1  UNL1        0.0191
      4 C         -64.6204  -40.7268  -23.7148 C.ar    1  UNL1        0.0702
      5 C         -65.7321  -41.4348  -23.2357 C.ar    1  UNL1        0.1149
      6 N         -66.0787  -41.3559  -21.9242 N.ar    1  UNL1       -0.2279
      7 C         -65.2726  -41.7558  -17.0989 C.3     1  UNL1        0.0471
      8 C         -65.2972  -40.2162  -17.2082 C.3     1  UNL1        0.0252
      9 C         -65.1097  -39.7271  -18.6507 C.3     1  UNL1        0.0923
     10 N         -65.7750  -40.6068  -19.6275 N.pl3   1  UNL1       -0.2932
     11 C         -66.8422  -41.4965  -19.1423 C.3     1  UNL1        0.0923
     12 C         -66.3199  -42.4265  -18.0337 C.3     1  UNL1        0.0252
     13 C         -63.8512  -42.3522  -17.2619 C.3     1  UNL1        0.2054
     14 O         -63.2706  -42.0235  -18.5283 O.3     1  UNL1       -0.4758
     15 C         -61.8263  -42.6926  -20.3535 C.ar    1  UNL1        0.0180
     16 C         -63.0331  -42.8669  -19.6309 C.ar    1  UNL1        0.1347
     17 C         -63.9337  -43.8766  -20.0199 C.ar    1  UNL1        0.0366
     18 C         -63.6217  -44.7339  -21.0703 C.ar    1  UNL1        0.0033
     19 C         -62.4270  -44.5868  -21.7671 C.ar    1  UNL1        0.0063
     20 C         -61.5280  -43.5599  -21.4434 C.ar    1  UNL1        0.0744
     21 C         -60.2951  -43.4505  -22.2581 C.2     1  UNL1        0.3378
     22 O         -59.3257  -44.2340  -22.0755 O.2     1  UNL1       -0.2451
     23 O         -60.1831  -42.4378  -23.2071 O.3     1  UNL1       -0.4771
     24 H         -59.3466  -42.3431  -23.7706 H       1  UNL1        0.2954
     25 C         -61.2369  -40.2710  -20.6384 C.3     1  UNL1        0.0051
     26 C         -60.8847  -41.5781  -19.9342 C.3     1  UNL1        0.0297
     27 N         -64.2058  -40.8076  -25.0887 N.am    1  UNL1       -0.2766
     28 C         -63.1287  -41.6388  -25.5477 C.2     1  UNL1        0.2839
     29 O         -62.2463  -42.0330  -24.7388 O.2     1  UNL1       -0.2665
     30 H         -64.6106  -40.1204  -25.7629 H       1  UNL1        0.1553
     31 C         -62.9802  -41.9750  -26.9742 C.ar    1  UNL1        0.1946
     32 O         -64.0178  -42.2249  -27.7536 O.2     1  UNL1       -0.4492
     33 C         -63.5644  -42.5006  -28.9518 C.ar    1  UNL1        0.1452
     34 C         -64.3057  -42.8316  -30.0809 C.ar    1  UNL1        0.0375
     35 C         -63.6093  -43.0962  -31.2732 C.ar    1  UNL1        0.0031
     36 C         -62.1903  -43.0262  -31.3194 C.ar    1  UNL1        0.0002
     37 C         -61.4745  -42.6835  -30.1472 C.ar    1  UNL1        0.0028
     38 C         -62.1985  -42.4273  -28.9825 C.ar    1  UNL1        0.0337
     39 C         -61.7934  -42.0715  -27.7116 C.ar    1  UNL1        0.0202
     40 C         -60.3862  -41.8387  -27.2512 C.3     1  UNL1        0.0345
     41 C         -61.4651  -43.3089  -32.5840 C.ar    1  UNL1        0.0000
     42 C         -60.1107  -43.6927  -32.5619 C.ar    1  UNL1        0.0000
     43 C         -59.4303  -43.9585  -33.7542 C.ar    1  UNL1        0.0000
     44 C         -60.0918  -43.8458  -34.9790 C.ar    1  UNL1        0.0000
     45 C         -61.4355  -43.4666  -35.0142 C.ar    1  UNL1        0.0000
     46 C         -62.1206  -43.1987  -33.8251 C.ar    1  UNL1        0.0000
@<TRIPOS>BOND
     1    25    26    1
     2    26    15    1
     3    15    16   ar
     4    16    14    1
     5    14    13    1
     6    13     7    1
     7     7     8    1
     8     8     9    1
     9     9    10    1
    10    10     1    1
    11     1     2   ar
    12     2     3   ar
    13     3     4   ar
    14     4    27    1
    15    27    28   am
    16    28    29    2
    17    28    31    1
    18    31    32   ar
    19    32    33   ar
    20    33    34   ar
    21    34    35   ar
    22    35    36   ar
    23    36    41    1
    24    41    42   ar
    25    42    43   ar
    26    43    44   ar
    27    44    45   ar
    28    45    46   ar
    29    36    37   ar
    30    37    38   ar
    31    38    39   ar
    32    39    40    1
    33     4     5   ar
    34     5     6   ar
    35    10    11    1
    36    11    12    1
    37    16    17   ar
    38    17    18   ar
    39    18    19   ar
    40    19    20   ar
    41    20    21    1
    42    21    22    2
    43    21    23    1
    44    20    15   ar
    45    12     7    1
    46     6     1   ar
    47    39    31   ar
    48    38    33   ar
    49    46    41   ar
    50    27    30    1
    51    23    24    1
@<TRIPOS>MOLECULE
*****
 46 51 0 0 0
SMALL
GASTEIGER

@<TRIPOS>ATOM
      1 C         -61.2245  -44.5558  -28.5708 C.ar    1  UNL1        0.1318
      2 C         -60.1136  -45.2164  -28.0103 C.ar    1  UNL1        0.0356
      3 C         -60.2831  -46.4580  -27.3975 C.ar    1  UNL1        0.0191
      4 C         -61.5481  -47.0508  -27.3405 C.ar    1  UNL1        0.0702
      5 C         -62.6208  -46.3959  -27.9629 C.ar    1  UNL1        0.1149
      6 N         -62.4356  -45.1809  -28.5424 N.ar    1  UNL1       -0.2279
      7 C         -62.4829  -40.8379  -29.7584 C.3     1  UNL1        0.0471
      8 C         -61.1673  -40.7368  -28.9573 C.3     1  UNL1        0.0252
      9 C         -60.7799  -42.0660  -28.2950 C.3     1  UNL1        0.0923
     10 N         -61.1123  -43.2264  -29.1397 N.pl3   1  UNL1       -0.2932
     11 C         -61.3146  -42.9982  -30.5795 C.3     1  UNL1        0.0923
     12 C         -62.4366  -41.9737  -30.8206 C.3     1  UNL1        0.0252
     13 C         -63.7393  -40.9110  -28.8535 C.3     1  UNL1        0.2054
     14 O         -63.4584  -41.5214  -27.5895 O.3     1  UNL1       -0.4758
     15 C         -63.3312  -41.6766  -25.1760 C.ar    1  UNL1        0.0180
     16 C         -64.0236  -41.2358  -26.3316 C.ar    1  UNL1        0.1347
     17 C         -65.2266  -40.5190  -26.1870 C.ar    1  UNL1        0.0366
     18 C         -65.7080  -40.1964  -24.9221 C.ar    1  UNL1        0.0033
     19 C         -65.0200  -40.6017  -23.7832 C.ar    1  UNL1        0.0063
     20 C         -63.8460  -41.3625  -23.8855 C.ar    1  UNL1        0.0744
     21 C         -63.1941  -41.7842  -22.6234 C.2     1  UNL1        0.3378
     22 O         -63.7177  -42.6597  -21.8843 O.2     1  UNL1       -0.2451
     23 O         -62.0106  -41.1715  -22.2203 O.3     1  UNL1       -0.4771
     24 H         -61.5521  -41.4420  -21.3583 H       1  UNL1        0.2954
     25 C         -62.2939  -43.9596  -25.1091 C.3     1  UNL1        0.0051
     26 C         -62.0520  -42.4735  -25.3573 C.3     1  UNL1        0.0297
     27 N         -61.7112  -48.3233  -26.6921 N.am    1  UNL1       -0.2766
     28 C         -61.8355  -48.4823  -25.2706 C.2     1  UNL1        0.2839
     29 O         -61.4198  -47.5797  -24.4953 O.2     1  UNL1       -0.2665
     30 H         -61.5875  -49.1853  -27.2686 H       1  UNL1        0.1553
     31 C         -62.3644  -49.7268  -24.6864 C.ar    1  UNL1        0.1946
     32 O         -61.5852  -50.6221  -24.1050 O.2     1  UNL1       -0.4492
     33 C         -62.3418  -51.6128  -23.7007 C.ar    1  UNL1        0.1452
     34 C         -61.9389  -52.7724  -23.0475 C.ar    1  UNL1        0.0375
     35 C         -62.9254  -53.7141  -22.7062 C.ar    1  UNL1        0.0031
     36 C         -64.2924  -53.4842  -23.0207 C.ar    1  UNL1        0.0002
     37 C         -64.6596  -52.2891  -23.6846 C.ar    1  UNL1        0.0028
     38 C         -63.6543  -51.3774  -24.0075 C.ar    1  UNL1        0.0337
     39 C         -63.6988  -50.1490  -24.6358 C.ar    1  UNL1        0.0202
     40 C         -64.9217  -49.4420  -25.1371 C.3     1  UNL1        0.0345
     41 C         -65.3258  -54.4865  -22.6565 C.ar    1  UNL1        0.0000
     42 C         -66.6714  -54.2926  -23.0225 C.ar    1  UNL1        0.0000
     43 C         -67.6424  -55.2381  -22.6785 C.ar    1  UNL1        0.0000
     44 C         -67.2829  -56.3854  -21.9680 C.ar    1  UNL1        0.0000
     45 C         -65.9514  -56.5897  -21.5996 C.ar    1  UNL1        0.0000
     46 C         -64.9763  -55.6472  -21.9402 C.ar    1  UNL1        0.0000
@<TRIPOS>BOND
     1    25    26    1
     2    26    15    1
     3    15    16   ar
     4    16    14    1
     5    14    13    1
     6    13     7    1
     7     7     8    1
     8     8     9    1
     9     9    10    1
    10    10     1    1
    11     1     2   ar
    12     2     3   ar
    13     3     4   ar
    14     4    27    1
    15    27    28   am
    16    28    29    2
    17    28    31    1
    18    31    32   ar
    19    32    33   ar
    20    33    34   ar
    21    34    35   ar
    22    35    36   ar
    23    36    41    1
    24    41    42   ar
    25    42    43   ar
    26    43    44   ar
    27    44    45   ar
    28    45    46   ar
    29    36    37   ar
    30    37    38   ar
    31    38    39   ar
    32    39    40    1
    33     4     5   ar
    34     5     6   ar
    35    10    11    1
    36    11    12    1
    37    16    17   ar
    38    17    18   ar
    39    18    19   ar
    40    19    20   ar
    41    20    21    1
    42    21    22    2
    43    21    23    1
    44    20    15   ar
    45    12     7    1
    46     6     1   ar
    47    39    31   ar
    48    38    33   ar
    49    46    41   ar
    50    27    30    1
    51    23    24    1
@<TRIPOS>MOLECULE
*****
 46 51 0 0 0
SMALL
GASTEIGER

@<TRIPOS>ATOM
      1 C         -60.7579  -44.4327  -28.2463 C.ar    1  UNL1        0.1318
      2 C         -60.8011  -44.5219  -26.8409 C.ar    1  UNL1        0.0356
      3 C         -60.9800  -45.7636  -26.2310 C.ar    1  UNL1        0.0191
      4 C         -61.1127  -46.9191  -27.0070 C.ar    1  UNL1        0.0702
      5 C         -61.0026  -46.8038  -28.4003 C.ar    1  UNL1        0.1149
      6 N         -60.8417  -45.5825  -28.9739 N.ar    1  UNL1       -0.2279
      7 C         -62.0956  -41.0812  -30.1942 C.3     1  UNL1        0.0471
      8 C         -61.0958  -40.7010  -29.0812 C.3     1  UNL1        0.0252
      9 C         -60.7460  -41.8896  -28.1755 C.3     1  UNL1        0.0923
     10 N         -60.6616  -43.1549  -28.9254 N.pl3   1  UNL1       -0.2932
     11 C         -60.4641  -43.0834  -30.3821 C.3     1  UNL1        0.0923
     12 C         -61.5923  -42.2788  -31.0502 C.3     1  UNL1        0.0252
     13 C         -63.5399  -41.2822  -29.6684 C.3     1  UNL1        0.2054
     14 O         -64.1174  -42.5066  -30.1336 O.3     1  UNL1       -0.4758
     15 C         -64.4269  -44.9059  -30.2465 C.ar    1  UNL1        0.0180
     16 C         -64.2109  -43.7428  -29.4657 C.ar    1  UNL1        0.1347
     17 C         -64.0783  -43.8610  -28.0691 C.ar    1  UNL1        0.0366
     18 C         -64.1040  -45.1123  -27.4612 C.ar    1  UNL1        0.0033
     19 C         -64.2882  -46.2609  -28.2237 C.ar    1  UNL1        0.0063
     20 C         -64.4766  -46.1798  -29.6113 C.ar    1  UNL1        0.0744
     21 C         -64.7020  -47.4478  -30.3444 C.2     1  UNL1        0.3378
     22 O         -65.2445  -47.4517  -31.4813 O.2     1  UNL1       -0.2451
     23 O         -64.3551  -48.6586  -29.7508 O.3     1  UNL1       -0.4771
     24 H         -64.5057  -49.5365  -30.2334 H       1  UNL1        0.2954
     25 C         -66.0357  -44.3843  -32.0992 C.3     1  UNL1        0.0051
     26 C         -64.5968  -44.7504  -31.7470 C.3     1  UNL1        0.0297
     27 N         -61.3123  -48.1900  -26.3658 N.am    1  UNL1       -0.2766
     28 C         -61.6840  -48.3362  -24.9867 C.2     1  UNL1        0.2839
     29 O         -61.4737  -47.3972  -24.1728 O.2     1  UNL1       -0.2665
     30 H         -61.0321  -49.0503  -26.8875 H       1  UNL1        0.1553
     31 C         -62.2326  -49.6043  -24.4757 C.ar    1  UNL1        0.1946
     32 O         -61.4855  -50.4966  -23.8494 O.2     1  UNL1       -0.4492
     33 C         -62.2514  -51.5114  -23.5315 C.ar    1  UNL1        0.1452
     34 C         -61.8793  -52.6773  -22.8712 C.ar    1  UNL1        0.0375
     35 C         -62.8700  -53.6463  -22.6344 C.ar    1  UNL1        0.0031
     36 C         -64.2104  -53.4370  -23.0586 C.ar    1  UNL1        0.0002
     37 C         -64.5468  -52.2347  -23.7259 C.ar    1  UNL1        0.0028
     38 C         -63.5383  -51.2957  -23.9433 C.ar    1  UNL1        0.0337
     39 C         -63.5569  -50.0544  -24.5471 C.ar    1  UNL1        0.0202
     40 C         -64.7486  -49.3611  -25.1352 C.3     1  UNL1        0.0345
     41 C         -65.2484  -54.4681  -22.8043 C.ar    1  UNL1        0.0000
     42 C         -66.4950  -54.4046  -23.4557 C.ar    1  UNL1        0.0000
     43 C         -67.4705  -55.3769  -23.2145 C.ar    1  UNL1        0.0000
     44 C         -67.2139  -56.4216  -22.3240 C.ar    1  UNL1        0.0000
     45 C         -65.9810  -56.4962  -21.6721 C.ar    1  UNL1        0.0000
     46 C         -65.0021  -55.5262  -21.9087 C.ar    1  UNL1        0.0000
@<TRIPOS>BOND
     1    25    26    1
     2    26    15    1
     3    15    16   ar
     4    16    14    1
     5    14    13    1
     6    13     7    1
     7     7     8    1
     8     8     9    1
     9     9    10    1
    10    10     1    1
    11     1     2   ar
    12     2     3   ar
    13     3     4   ar
    14     4    27    1
    15    27    28   am
    16    28    29    2
    17    28    31    1
    18    31    32   ar
    19    32    33   ar
    20    33    34   ar
    21    34    35   ar
    22    35    36   ar
    23    36    41    1
    24    41    42   ar
    25    42    43   ar
    26    43    44   ar
    27    44    45   ar
    28    45    46   ar
    29    36    37   ar
    30    37    38   ar
    31    38    39   ar
    32    39    40    1
    33     4     5   ar
    34     5     6   ar
    35    10    11    1
    36    11    12    1
    37    16    17   ar
    38    17    18   ar
    39    18    19   ar
    40    19    20   ar
    41    20    21    1
    42    21    22    2
    43    21    23    1
    44    20    15   ar
    45    12     7    1
    46     6     1   ar
    47    39    31   ar
    48    38    33   ar
    49    46    41   ar
    50    27    30    1
    51    23    24    1
@<TRIPOS>MOLECULE
*****
 46 51 0 0 0
SMALL
GASTEIGER

@<TRIPOS>ATOM
      1 C         -68.2359  -55.5372  -23.6704 C.ar    1  UNL1        0.1318
      2 C         -67.5612  -55.0156  -24.7918 C.ar    1  UNL1        0.0356
      3 C         -66.3865  -54.2845  -24.6148 C.ar    1  UNL1        0.0191
      4 C         -65.8743  -54.0704  -23.3316 C.ar    1  UNL1        0.0702
      5 C         -66.5359  -54.6560  -22.2425 C.ar    1  UNL1        0.1149
      6 N         -67.6860  -55.3531  -22.4367 N.ar    1  UNL1       -0.2279
      7 C         -72.1810  -56.0324  -24.6742 C.3     1  UNL1        0.0471
      8 C         -71.3414  -57.2338  -25.1584 C.3     1  UNL1        0.0252
      9 C         -69.8327  -56.9914  -25.0151 C.3     1  UNL1        0.0923
     10 N         -69.5049  -56.2277  -23.7987 N.pl3   1  UNL1       -0.2932
     11 C         -70.4979  -56.1968  -22.7129 C.3     1  UNL1        0.0923
     12 C         -71.8384  -55.6295  -23.2110 C.3     1  UNL1        0.0252
     13 C         -72.1418  -54.8318  -25.6538 C.3     1  UNL1        0.2054
     14 O         -71.9688  -55.2496  -27.0120 O.3     1  UNL1       -0.4758
     15 C         -72.5739  -55.6520  -29.3222 C.ar    1  UNL1        0.0180
     16 C         -72.7069  -54.8679  -28.1489 C.ar    1  UNL1        0.1347
     17 C         -73.5759  -53.7602  -28.1510 C.ar    1  UNL1        0.0366
     18 C         -74.3408  -53.4655  -29.2752 C.ar    1  UNL1        0.0033
     19 C         -74.2362  -54.2464  -30.4214 C.ar    1  UNL1        0.0063
     20 C         -73.3429  -55.3266  -30.4762 C.ar    1  UNL1        0.0744
     21 C         -73.2667  -56.0851  -31.7468 C.2     1  UNL1        0.3378
     22 O         -72.3333  -55.8822  -32.5681 O.2     1  UNL1       -0.2451
     23 O         -74.2659  -57.0016  -32.0639 O.3     1  UNL1       -0.4771
     24 H         -74.2347  -57.5264  -32.9298 H       1  UNL1        0.2954
     25 C         -70.1637  -56.3399  -29.2206 C.3     1  UNL1        0.0051
     26 C         -71.6085  -56.8234  -29.3056 C.3     1  UNL1        0.0297
     27 N         -64.6714  -53.3017  -23.1626 N.am    1  UNL1       -0.2766
     28 C         -64.0470  -52.5577  -24.2199 C.2     1  UNL1        0.2839
     29 O         -64.2858  -52.8480  -25.4229 O.2     1  UNL1       -0.2665
     30 H         -64.1461  -53.4064  -22.2661 H       1  UNL1        0.1553
     31 C         -63.0557  -51.5073  -23.9301 C.ar    1  UNL1        0.1946
     32 O         -61.8804  -51.7743  -23.3881 O.2     1  UNL1       -0.4492
     33 C         -61.2361  -50.6421  -23.2452 C.ar    1  UNL1        0.1452
     34 C         -59.9675  -50.4531  -22.7077 C.ar    1  UNL1        0.0375
     35 C         -59.4663  -49.1411  -22.6450 C.ar    1  UNL1        0.0031
     36 C         -60.2357  -48.0435  -23.1179 C.ar    1  UNL1        0.0002
     37 C         -61.5219  -48.2807  -23.6595 C.ar    1  UNL1        0.0028
     38 C         -61.9867  -49.5951  -23.7061 C.ar    1  UNL1        0.0337
     39 C         -63.1700  -50.1325  -24.1720 C.ar    1  UNL1        0.0202
     40 C         -64.3074  -49.3862  -24.8011 C.3     1  UNL1        0.0345
     41 C         -59.6967  -46.6617  -23.0455 C.ar    1  UNL1        0.0000
     42 C         -60.5534  -45.5517  -23.1728 C.ar    1  UNL1        0.0000
     43 C         -60.0431  -44.2517  -23.1040 C.ar    1  UNL1        0.0000
     44 C         -58.6761  -44.0446  -22.9070 C.ar    1  UNL1        0.0000
     45 C         -57.8160  -45.1374  -22.7786 C.ar    1  UNL1        0.0000
     46 C         -58.3206  -46.4396  -22.8474 C.ar    1  UNL1        0.0000
@<TRIPOS>BOND
     1    25    26    1
     2    26    15    1
     3    15    16   ar
     4    16    14    1
     5    14    13    1
     6    13     7    1
     7     7     8    1
     8     8     9    1
     9     9    10    1
    10    10     1    1
    11     1     2   ar
    12     2     3   ar
    13     3     4   ar
    14     4    27    1
    15    27    28   am
    16    28    29    2
    17    28    31    1
    18    31    32   ar
    19    32    33   ar
    20    33    34   ar
    21    34    35   ar
    22    35    36   ar
    23    36    41    1
    24    41    42   ar
    25    42    43   ar
    26    43    44   ar
    27    44    45   ar
    28    45    46   ar
    29    36    37   ar
    30    37    38   ar
    31    38    39   ar
    32    39    40    1
    33     4     5   ar
    34     5     6   ar
    35    10    11    1
    36    11    12    1
    37    16    17   ar
    38    17    18   ar
    39    18    19   ar
    40    19    20   ar
    41    20    21    1
    42    21    22    2
    43    21    23    1
    44    20    15   ar
    45    12     7    1
    46     6     1   ar
    47    39    31   ar
    48    38    33   ar
    49    46    41   ar
    50    27    30    1
    51    23    24    1
@<TRIPOS>MOLECULE
*****
 46 51 0 0 0
SMALL
GASTEIGER

@<TRIPOS>ATOM
      1 C         -65.1761  -40.2904  -21.4078 C.ar    1  UNL1        0.1318
      2 C         -63.9463  -40.0363  -22.0464 C.ar    1  UNL1        0.0356
      3 C         -63.7118  -40.5440  -23.3244 C.ar    1  UNL1        0.0191
      4 C         -64.6919  -41.2998  -23.9750 C.ar    1  UNL1        0.0702
      5 C         -65.9276  -41.4813  -23.3372 C.ar    1  UNL1        0.1149
      6 N         -66.1296  -40.9891  -22.0868 N.ar    1  UNL1       -0.2279
      7 C         -65.0909  -40.4640  -17.3116 C.3     1  UNL1        0.0471
      8 C         -64.6702  -39.0634  -17.8057 C.3     1  UNL1        0.0252
      9 C         -64.4616  -39.0153  -19.3254 C.3     1  UNL1        0.0923
     10 N         -65.4310  -39.8579  -20.0471 N.pl3   1  UNL1       -0.2932
     11 C         -66.6709  -40.2369  -19.3508 C.3     1  UNL1        0.0923
     12 C         -66.3594  -40.9876  -18.0446 C.3     1  UNL1        0.0252
     13 C         -63.9252  -41.4855  -17.3219 C.3     1  UNL1        0.2054
     14 O         -63.8875  -42.2482  -18.5327 O.3     1  UNL1       -0.4758
     15 C         -63.0431  -43.1924  -20.5968 C.ar    1  UNL1        0.0180
     16 C         -62.8453  -42.3498  -19.4744 C.ar    1  UNL1        0.1347
     17 C         -61.6388  -41.6354  -19.3487 C.ar    1  UNL1        0.0366
     18 C         -60.6677  -41.7102  -20.3423 C.ar    1  UNL1        0.0033
     19 C         -60.8657  -42.5138  -21.4602 C.ar    1  UNL1        0.0063
     20 C         -62.0318  -43.2814  -21.5960 C.ar    1  UNL1        0.0744
     21 C         -62.1484  -44.1380  -22.7995 C.2     1  UNL1        0.3378
     22 O         -62.4423  -43.6444  -23.9206 O.2     1  UNL1       -0.2451
     23 O         -61.9793  -45.5153  -22.6847 O.3     1  UNL1       -0.4771
     24 H         -62.0599  -46.1186  -23.4945 H       1  UNL1        0.2954
     25 C         -64.4024  -45.0657  -19.6293 C.3     1  UNL1        0.0051
     26 C         -64.3396  -43.9759  -20.6956 C.3     1  UNL1        0.0297
     27 N         -64.4309  -41.8301  -25.2852 N.am    1  UNL1       -0.2766
     28 C         -64.6573  -41.0986  -26.4998 C.2     1  UNL1        0.2839
     29 O         -65.4524  -40.1208  -26.5093 O.2     1  UNL1       -0.2665
     30 H         -64.2037  -42.8464  -25.3651 H       1  UNL1        0.1553
     31 C         -64.0421  -41.5211  -27.7698 C.ar    1  UNL1        0.1946
     32 O         -64.6836  -41.4537  -28.9232 O.2     1  UNL1       -0.4492
     33 C         -63.8836  -41.9082  -29.8564 C.ar    1  UNL1        0.1452
     34 C         -64.1515  -42.0270  -31.2157 C.ar    1  UNL1        0.0375
     35 C         -63.1426  -42.5492  -32.0440 C.ar    1  UNL1        0.0031
     36 C         -61.8878  -42.9426  -31.5045 C.ar    1  UNL1        0.0002
     37 C         -61.6559  -42.8028  -30.1151 C.ar    1  UNL1        0.0028
     38 C         -62.6795  -42.2808  -29.3240 C.ar    1  UNL1        0.0337
     39 C         -62.7504  -42.0245  -27.9693 C.ar    1  UNL1        0.0202
     40 C         -61.6655  -42.2401  -26.9579 C.3     1  UNL1        0.0345
     41 C         -60.8298  -43.4941  -32.3887 C.ar    1  UNL1        0.0000
     42 C         -60.9018  -43.3221  -33.7842 C.ar    1  UNL1        0.0000
     43 C         -59.9042  -43.8424  -34.6144 C.ar    1  UNL1        0.0000
     44 C         -58.8255  -44.5375  -34.0633 C.ar    1  UNL1        0.0000
     45 C         -58.7422  -44.7143  -32.6804 C.ar    1  UNL1        0.0000
     46 C         -59.7374  -44.1969  -31.8455 C.ar    1  UNL1        0.0000
@<TRIPOS>BOND
     1    25    26    1
     2    26    15    1
     3    15    16   ar
     4    16    14    1
     5    14    13    1
     6    13     7    1
     7     7     8    1
     8     8     9    1
     9     9    10    1
    10    10     1    1
    11     1     2   ar
    12     2     3   ar
    13     3     4   ar
    14     4    27    1
    15    27    28   am
    16    28    29    2
    17    28    31    1
    18    31    32   ar
    19    32    33   ar
    20    33    34   ar
    21    34    35   ar
    22    35    36   ar
    23    36    41    1
    24    41    42   ar
    25    42    43   ar
    26    43    44   ar
    27    44    45   ar
    28    45    46   ar
    29    36    37   ar
    30    37    38   ar
    31    38    39   ar
    32    39    40    1
    33     4     5   ar
    34     5     6   ar
    35    10    11    1
    36    11    12    1
    37    16    17   ar
    38    17    18   ar
    39    18    19   ar
    40    19    20   ar
    41    20    21    1
    42    21    22    2
    43    21    23    1
    44    20    15   ar
    45    12     7    1
    46     6     1   ar
    47    39    31   ar
    48    38    33   ar
    49    46    41   ar
    50    27    30    1
    51    23    24    1
@<TRIPOS>MOLECULE
*****
 46 51 0 0 0
SMALL
GASTEIGER

@<TRIPOS>ATOM
      1 C         -60.9129  -43.9004  -21.4400 C.ar    1  UNL1        0.1318
      2 C         -62.2828  -43.6516  -21.6550 C.ar    1  UNL1        0.0356
      3 C         -62.8737  -42.5124  -21.1082 C.ar    1  UNL1        0.0191
      4 C         -62.1128  -41.6158  -20.3519 C.ar    1  UNL1        0.0702
      5 C         -60.7393  -41.8605  -20.2096 C.ar    1  UNL1        0.1149
      6 N         -60.1872  -42.9834  -20.7395 N.ar    1  UNL1       -0.2279
      7 C         -59.9698  -46.8812  -24.0937 C.3     1  UNL1        0.0471
      8 C         -58.6963  -46.3359  -23.4129 C.3     1  UNL1        0.0252
      9 C         -58.9674  -45.0694  -22.5896 C.3     1  UNL1        0.0923
     10 N         -60.2760  -45.1141  -21.9143 N.pl3   1  UNL1       -0.2932
     11 C         -60.9115  -46.4278  -21.7243 C.3     1  UNL1        0.0923
     12 C         -61.1154  -47.1392  -23.0731 C.3     1  UNL1        0.0252
     13 C         -60.4236  -46.0258  -25.3041 C.3     1  UNL1        0.2054
     14 O         -61.8220  -46.1714  -25.5731 O.3     1  UNL1       -0.4758
     15 C         -62.9346  -47.4908  -27.2720 C.ar    1  UNL1        0.0180
     16 C         -62.4751  -46.2286  -26.8195 C.ar    1  UNL1        0.1347
     17 C         -62.7008  -45.0854  -27.6094 C.ar    1  UNL1        0.0366
     18 C         -63.4160  -45.1797  -28.7992 C.ar    1  UNL1        0.0033
     19 C         -63.8940  -46.4104  -29.2367 C.ar    1  UNL1        0.0063
     20 C         -63.6440  -47.5802  -28.5040 C.ar    1  UNL1        0.0744
     21 C         -64.1575  -48.8550  -29.0581 C.2     1  UNL1        0.3378
     22 O         -63.6866  -49.9615  -28.6827 O.2     1  UNL1       -0.2451
     23 O         -65.1406  -48.8322  -30.0439 O.3     1  UNL1       -0.4771
     24 H         -65.5011  -49.6926  -30.4389 H       1  UNL1        0.2954
     25 C         -63.7493  -48.9162  -25.3754 C.3     1  UNL1        0.0051
     26 C         -62.6533  -48.7136  -26.4177 C.3     1  UNL1        0.0297
     27 N         -62.7381  -40.4541  -19.7811 N.am    1  UNL1       -0.2766
     28 C         -62.6354  -39.1372  -20.3439 C.2     1  UNL1        0.2839
     29 O         -61.6884  -38.8571  -21.1269 O.2     1  UNL1       -0.2665
     30 H         -63.1664  -40.5454  -18.8329 H       1  UNL1        0.1553
     31 C         -63.5715  -38.0678  -19.9564 C.ar    1  UNL1        0.1946
     32 O         -63.1611  -36.9166  -19.4536 O.2     1  UNL1       -0.4492
     33 C         -64.2199  -36.1868  -19.2013 C.ar    1  UNL1        0.1452
     34 C         -64.2551  -34.9075  -18.6573 C.ar    1  UNL1        0.0375
     35 C         -65.5114  -34.3065  -18.4654 C.ar    1  UNL1        0.0031
     36 C         -66.7074  -34.9889  -18.8181 C.ar    1  UNL1        0.0002
     37 C         -66.6263  -36.2895  -19.3710 C.ar    1  UNL1        0.0028
     38 C         -65.3630  -36.8544  -19.5474 C.ar    1  UNL1        0.0337
     39 C         -64.9685  -38.0756  -20.0563 C.ar    1  UNL1        0.0202
     40 C         -65.8602  -39.1520  -20.5973 C.3     1  UNL1        0.0345
     41 C         -68.0291  -34.3447  -18.6097 C.ar    1  UNL1        0.0000
     42 C         -68.1713  -33.2817  -17.6975 C.ar    1  UNL1        0.0000
     43 C         -69.4169  -32.6769  -17.5033 C.ar    1  UNL1        0.0000
     44 C         -70.5319  -33.1237  -18.2158 C.ar    1  UNL1        0.0000
     45 C         -70.4037  -34.1769  -19.1240 C.ar    1  UNL1        0.0000
     46 C         -69.1608  -34.7860  -19.3216 C.ar    1  UNL1        0.0000
@<TRIPOS>BOND
     1    25    26    1
     2    26    15    1
     3    15    16   ar
     4    16    14    1
     5    14    13    1
     6    13     7    1
     7     7     8    1
     8     8     9    1
     9     9    10    1
    10    10     1    1
    11     1     2   ar
    12     2     3   ar
    13     3     4   ar
    14     4    27    1
    15    27    28   am
    16    28    29    2
    17    28    31    1
    18    31    32   ar
    19    32    33   ar
    20    33    34   ar
    21    34    35   ar
    22    35    36   ar
    23    36    41    1
    24    41    42   ar
    25    42    43   ar
    26    43    44   ar
    27    44    45   ar
    28    45    46   ar
    29    36    37   ar
    30    37    38   ar
    31    38    39   ar
    32    39    40    1
    33     4     5   ar
    34     5     6   ar
    35    10    11    1
    36    11    12    1
    37    16    17   ar
    38    17    18   ar
    39    18    19   ar
    40    19    20   ar
    41    20    21    1
    42    21    22    2
    43    21    23    1
    44    20    15   ar
    45    12     7    1
    46     6     1   ar
    47    39    31   ar
    48    38    33   ar
    49    46    41   ar
    50    27    30    1
    51    23    24    1
@<TRIPOS>MOLECULE
*****
 46 51 0 0 0
SMALL
GASTEIGER

@<TRIPOS>ATOM
      1 C         -60.8529  -43.9834  -21.3308 C.ar    1  UNL1        0.1318
      2 C         -60.0932  -42.8127  -21.1384 C.ar    1  UNL1        0.0356
      3 C         -60.6983  -41.6744  -20.6054 C.ar    1  UNL1        0.0191
      4 C         -62.0526  -41.6913  -20.2583 C.ar    1  UNL1        0.0702
      5 C         -62.7642  -42.8909  -20.4042 C.ar    1  UNL1        0.1149
      6 N         -62.1582  -43.9838  -20.9378 N.ar    1  UNL1       -0.2279
      7 C         -60.0426  -46.6193  -24.3659 C.3     1  UNL1        0.0471
      8 C         -58.7550  -46.2723  -23.5885 C.3     1  UNL1        0.0252
      9 C         -58.9608  -45.1188  -22.5972 C.3     1  UNL1        0.0923
     10 N         -60.2893  -45.1615  -21.9618 N.pl3   1  UNL1       -0.2932
     11 C         -61.0217  -46.4379  -21.9754 C.3     1  UNL1        0.0923
     12 C         -61.2341  -46.9336  -23.4162 C.3     1  UNL1        0.0252
     13 C         -60.3976  -45.5694  -25.4497 C.3     1  UNL1        0.2054
     14 O         -61.7739  -45.1802  -25.3929 O.3     1  UNL1       -0.4758
     15 C         -62.7321  -43.3948  -26.7192 C.ar    1  UNL1        0.0180
     16 C         -62.3234  -43.8850  -25.4536 C.ar    1  UNL1        0.1347
     17 C         -62.4960  -43.0812  -24.3108 C.ar    1  UNL1        0.0366
     18 C         -63.1116  -41.8373  -24.4095 C.ar    1  UNL1        0.0033
     19 C         -63.5402  -41.3606  -25.6438 C.ar    1  UNL1        0.0063
     20 C         -63.3386  -42.1093  -26.8128 C.ar    1  UNL1        0.0744
     21 C         -63.7926  -41.5135  -28.0913 C.2     1  UNL1        0.3378
     22 O         -62.9641  -41.0686  -28.9296 O.2     1  UNL1       -0.2451
     23 O         -65.1553  -41.3974  -28.3526 O.3     1  UNL1       -0.4771
     24 H         -65.4860  -40.9885  -29.2185 H       1  UNL1        0.2954
     25 C         -63.6689  -45.2381  -28.1395 C.3     1  UNL1        0.0051
     26 C         -62.5085  -44.2672  -27.9412 C.3     1  UNL1        0.0297
     27 N         -62.6671  -40.5064  -19.7248 N.am    1  UNL1       -0.2766
     28 C         -62.6166  -39.2243  -20.3691 C.2     1  UNL1        0.2839
     29 O         -61.7168  -38.9783  -21.2165 O.2     1  UNL1       -0.2665
     30 H         -63.0437  -40.5467  -18.7515 H       1  UNL1        0.1553
     31 C         -63.5495  -38.1469  -19.9964 C.ar    1  UNL1        0.1946
     32 O         -63.1349  -36.9847  -19.5231 O.2     1  UNL1       -0.4492
     33 C         -64.1916  -36.2499  -19.2768 C.ar    1  UNL1        0.1452
     34 C         -64.2222  -34.9589  -18.7609 C.ar    1  UNL1        0.0375
     35 C         -65.4770  -34.3541  -18.5702 C.ar    1  UNL1        0.0031
     36 C         -66.6759  -35.0445  -18.8964 C.ar    1  UNL1        0.0002
     37 C         -66.5994  -36.3569  -19.4212 C.ar    1  UNL1        0.0028
     38 C         -65.3377  -36.9253  -19.5972 C.ar    1  UNL1        0.0337
     39 C         -64.9474  -38.1572  -20.0828 C.ar    1  UNL1        0.0202
     40 C         -65.8437  -39.2455  -20.5913 C.3     1  UNL1        0.0345
     41 C         -67.9959  -34.3963  -18.6896 C.ar    1  UNL1        0.0000
     42 C         -69.1290  -34.8375  -19.3994 C.ar    1  UNL1        0.0000
     43 C         -70.3707  -34.2255  -19.2026 C.ar    1  UNL1        0.0000
     44 C         -70.4962  -33.1696  -18.2971 C.ar    1  UNL1        0.0000
     45 C         -69.3799  -32.7232  -17.5864 C.ar    1  UNL1        0.0000
     46 C         -68.1356  -33.3309  -17.7798 C.ar    1  UNL1        0.0000
@<TRIPOS>BOND
     1    25    26    1
     2    26    15    1
     3    15    16   ar
     4    16    14    1
     5    14    13    1
     6    13     7    1
     7     7     8    1
     8     8     9    1
     9     9    10    1
    10    10     1    1
    11     1     2   ar
    12     2     3   ar
    13     3     4   ar
    14     4    27    1
    15    27    28   am
    16    28    29    2
    17    28    31    1
    18    31    32   ar
    19    32    33   ar
    20    33    34   ar
    21    34    35   ar
    22    35    36   ar
    23    36    41    1
    24    41    42   ar
    25    42    43   ar
    26    43    44   ar
    27    44    45   ar
    28    45    46   ar
    29    36    37   ar
    30    37    38   ar
    31    38    39   ar
    32    39    40    1
    33     4     5   ar
    34     5     6   ar
    35    10    11    1
    36    11    12    1
    37    16    17   ar
    38    17    18   ar
    39    18    19   ar
    40    19    20   ar
    41    20    21    1
    42    21    22    2
    43    21    23    1
    44    20    15   ar
    45    12     7    1
    46     6     1   ar
    47    39    31   ar
    48    38    33   ar
    49    46    41   ar
    50    27    30    1
    51    23    24    1
