@<TRIPOS>MOLECULE
*****
 46 51 0 0 0
SMALL
GASTEIGER

@<TRIPOS>ATOM
      1 C          -9.0744  -12.8424   29.6678 C.ar    1  UNL1        0.1318
      2 C          -7.7401  -12.4354   29.4963 C.ar    1  UNL1        0.0356
      3 C          -6.9320  -13.0944   28.5688 C.ar    1  UNL1        0.0191
      4 C          -7.4385  -14.1675   27.8265 C.ar    1  UNL1        0.0702
      5 C          -8.7804  -14.5354   28.0128 C.ar    1  UNL1        0.1149
      6 N          -9.5504  -13.8763   28.9183 N.ar    1  UNL1       -0.2279
      7 C         -11.8060  -11.0074   32.5821 C.3     1  UNL1        0.0472
      8 C         -10.2685  -10.8764   32.6976 C.3     1  UNL1        0.0252
      9 C          -9.5450  -12.0506   32.0294 C.3     1  UNL1        0.0923
     10 N          -9.9435  -12.1877   30.6174 N.pl3   1  UNL1       -0.2932
     11 C         -11.1861  -11.5560   30.1473 C.3     1  UNL1        0.0923
     12 C         -12.2628  -11.6290   31.2353 C.3     1  UNL1        0.0252
     13 C         -12.5035   -9.6641   32.8927 C.3     1  UNL1        0.2054
     14 O         -12.6034   -8.8309   31.7337 O.3     1  UNL1       -0.4755
     15 C          -9.6275   -6.1750   30.3244 C.ar    1  UNL1       -0.0158
     16 C         -10.8852   -5.6835   30.7186 C.ar    1  UNL1       -0.0009
     17 C         -11.8744   -6.5384   31.2010 C.ar    1  UNL1        0.0366
     18 C         -11.6389   -7.9176   31.2804 C.ar    1  UNL1        0.1387
     19 C         -10.3881   -8.4170   30.9105 C.ar    1  UNL1        0.0430
     20 C          -9.3709   -7.5734   30.4264 C.ar    1  UNL1        0.0745
     21 C          -8.0883   -8.2091   30.0264 C.2     1  UNL1        0.3378
     22 O          -7.0818   -8.1858   30.7821 O.2     1  UNL1       -0.2451
     23 O          -8.0004   -8.8779   28.8078 O.3     1  UNL1       -0.4771
     24 H          -7.1391   -9.3279   28.5217 H       1  UNL1        0.2954
     25 C          -7.4593   -4.9564   30.6669 C.3     1  UNL1        0.0050
     26 C          -8.6429   -5.1876   29.7306 C.3     1  UNL1        0.0266
     27 N          -6.6004  -14.8222   26.8586 N.am    1  UNL1       -0.2766
     28 C          -7.0271  -15.1748   25.5327 C.2     1  UNL1        0.2839
     29 O          -8.2516  -15.1565   25.2342 O.2     1  UNL1       -0.2665
     30 H          -5.6517  -15.1338   27.1675 H       1  UNL1        0.1553
     31 C          -6.0305  -15.5988   24.5310 C.ar    1  UNL1        0.1946
     32 O          -6.1063  -15.2612   23.2558 O.2     1  UNL1       -0.4492
     33 C          -5.0814  -15.7937   22.6365 C.ar    1  UNL1        0.1452
     34 C          -4.7679  -15.6959   21.2854 C.ar    1  UNL1        0.0375
     35 C          -3.6128  -16.3523   20.8265 C.ar    1  UNL1        0.0031
     36 C          -2.7920  -17.0927   21.7197 C.ar    1  UNL1        0.0002
     37 C          -3.1468  -17.1666   23.0882 C.ar    1  UNL1        0.0028
     38 C          -4.3000  -16.5027   23.5092 C.ar    1  UNL1        0.0337
     39 C          -4.8984  -16.3918   24.7498 C.ar    1  UNL1        0.0202
     40 C          -4.4354  -16.9900   26.0441 C.3     1  UNL1        0.0345
     41 C          -1.5742  -17.7821   21.2233 C.ar    1  UNL1        0.0000
     42 C          -1.2227  -19.0549   21.7121 C.ar    1  UNL1        0.0000
     43 C          -0.0754  -19.7018   21.2429 C.ar    1  UNL1        0.0000
     44 C           0.7318  -19.0886   20.2823 C.ar    1  UNL1        0.0000
     45 C           0.3937  -17.8266   19.7889 C.ar    1  UNL1        0.0000
     46 C          -0.7519  -17.1746   20.2553 C.ar    1  UNL1        0.0000
@<TRIPOS>BOND
     1    25    26    1
     2    26    15    1
     3    15    16   ar
     4    16    17   ar
     5    17    18   ar
     6    18    14    1
     7    14    13    1
     8    13     7    1
     9     7     8    1
    10     8     9    1
    11     9    10    1
    12    10     1    1
    13     1     2   ar
    14     2     3   ar
    15     3     4   ar
    16     4    27    1
    17    27    28   am
    18    28    29    2
    19    28    31    1
    20    31    32   ar
    21    32    33   ar
    22    33    34   ar
    23    34    35   ar
    24    35    36   ar
    25    36    41    1
    26    41    42   ar
    27    42    43   ar
    28    43    44   ar
    29    44    45   ar
    30    45    46   ar
    31    36    37   ar
    32    37    38   ar
    33    38    39   ar
    34    39    40    1
    35     4     5   ar
    36     5     6   ar
    37    10    11    1
    38    11    12    1
    39    18    19   ar
    40    19    20   ar
    41    20    21    1
    42    21    22    2
    43    21    23    1
    44    20    15   ar
    45    12     7    1
    46     6     1   ar
    47    39    31   ar
    48    38    33   ar
    49    46    41   ar
    50    27    30    1
    51    23    24    1
@<TRIPOS>MOLECULE
*****
 46 51 0 0 0
SMALL
GASTEIGER

@<TRIPOS>ATOM
      1 C          -9.0452  -13.3052   29.1143 C.ar    1  UNL1        0.1318
      2 C          -7.6831  -12.9813   28.9917 C.ar    1  UNL1        0.0356
      3 C          -6.8886  -13.6761   28.0786 C.ar    1  UNL1        0.0191
      4 C          -7.4376  -14.7033   27.3024 C.ar    1  UNL1        0.0702
      5 C          -8.8053  -14.9879   27.4402 C.ar    1  UNL1        0.1149
      6 N          -9.5611  -14.2951   28.3325 N.ar    1  UNL1       -0.2279
      7 C         -11.7883  -11.2121   31.8376 C.3     1  UNL1        0.0472
      8 C         -10.9189  -12.4055   32.3004 C.3     1  UNL1        0.0252
      9 C         -10.5715  -13.3418   31.1378 C.3     1  UNL1        0.0923
     10 N          -9.9015  -12.6113   30.0476 N.pl3   1  UNL1       -0.2932
     11 C         -10.0168  -11.1466   29.9746 C.3     1  UNL1        0.0923
     12 C         -11.4137  -10.7015   30.4206 C.3     1  UNL1        0.0252
     13 C         -11.8012  -10.0890   32.8986 C.3     1  UNL1        0.2054
     14 O         -10.5732  -10.0285   33.6307 O.3     1  UNL1       -0.4755
     15 C          -6.7022   -9.7730   31.9438 C.ar    1  UNL1       -0.0158
     16 C          -7.0159  -10.8099   32.8412 C.ar    1  UNL1       -0.0009
     17 C          -8.2892  -10.9225   33.3961 C.ar    1  UNL1        0.0366
     18 C          -9.2810   -9.9826   33.0849 C.ar    1  UNL1        0.1387
     19 C          -8.9891   -8.9589   32.1806 C.ar    1  UNL1        0.0430
     20 C          -7.7128   -8.8278   31.6020 C.ar    1  UNL1        0.0745
     21 C          -7.4950   -7.6832   30.6793 C.2     1  UNL1        0.3378
     22 O          -7.9024   -7.7147   29.4886 O.2     1  UNL1       -0.2451
     23 O          -6.8602   -6.5337   31.1437 O.3     1  UNL1       -0.4771
     24 H          -6.7126   -5.7379   30.5344 H       1  UNL1        0.2954
     25 C          -4.9083  -10.8601   30.5642 C.3     1  UNL1        0.0050
     26 C          -5.2703   -9.6756   31.4570 C.3     1  UNL1        0.0266
     27 N          -6.6116  -15.3950   26.3498 N.am    1  UNL1       -0.2766
     28 C          -6.7683  -15.2924   24.9253 C.2     1  UNL1        0.2839
     29 O          -7.8128  -14.7836   24.4366 O.2     1  UNL1       -0.2665
     30 H          -5.9102  -16.0768   26.7182 H       1  UNL1        0.1553
     31 C          -5.7196  -15.8222   24.0331 C.ar    1  UNL1        0.1946
     32 O          -5.7074  -15.6025   22.7303 O.2     1  UNL1       -0.4492
     33 C          -4.6569  -16.2054   22.2298 C.ar    1  UNL1        0.1452
     34 C          -4.2567  -16.2375   20.8986 C.ar    1  UNL1        0.0375
     35 C          -3.0891  -16.9510   20.5773 C.ar    1  UNL1        0.0031
     36 C          -2.3423  -17.6184   21.5855 C.ar    1  UNL1        0.0002
     37 C          -2.7843  -17.5604   22.9291 C.ar    1  UNL1        0.0028
     38 C          -3.9475  -16.8428   23.2122 C.ar    1  UNL1        0.0337
     39 C          -4.6206  -16.6088   24.3962 C.ar    1  UNL1        0.0202
     40 C          -4.2531  -17.0922   25.7668 C.3     1  UNL1        0.0345
     41 C          -1.1104  -18.3692   21.2339 C.ar    1  UNL1        0.0000
     42 C          -0.1104  -17.7732   20.4419 C.ar    1  UNL1        0.0000
     43 C           1.0486  -18.4824   20.1124 C.ar    1  UNL1        0.0000
     44 C           1.2235  -19.7906   20.5688 C.ar    1  UNL1        0.0000
     45 C           0.2393  -20.3929   21.3557 C.ar    1  UNL1        0.0000
     46 C          -0.9222  -19.6886   21.6875 C.ar    1  UNL1        0.0000
@<TRIPOS>BOND
     1    25    26    1
     2    26    15    1
     3    15    16   ar
     4    16    17   ar
     5    17    18   ar
     6    18    14    1
     7    14    13    1
     8    13     7    1
     9     7     8    1
    10     8     9    1
    11     9    10    1
    12    10     1    1
    13     1     2   ar
    14     2     3   ar
    15     3     4   ar
    16     4    27    1
    17    27    28   am
    18    28    29    2
    19    28    31    1
    20    31    32   ar
    21    32    33   ar
    22    33    34   ar
    23    34    35   ar
    24    35    36   ar
    25    36    41    1
    26    41    42   ar
    27    42    43   ar
    28    43    44   ar
    29    44    45   ar
    30    45    46   ar
    31    36    37   ar
    32    37    38   ar
    33    38    39   ar
    34    39    40    1
    35     4     5   ar
    36     5     6   ar
    37    10    11    1
    38    11    12    1
    39    18    19   ar
    40    19    20   ar
    41    20    21    1
    42    21    22    2
    43    21    23    1
    44    20    15   ar
    45    12     7    1
    46     6     1   ar
    47    39    31   ar
    48    38    33   ar
    49    46    41   ar
    50    27    30    1
    51    23    24    1
@<TRIPOS>MOLECULE
*****
 46 51 0 0 0
SMALL
GASTEIGER

@<TRIPOS>ATOM
      1 C          -8.9443  -12.9039   29.4487 C.ar    1  UNL1        0.1318
      2 C          -7.5990  -12.5423   29.2621 C.ar    1  UNL1        0.0356
      3 C          -6.8109  -13.2594   28.3608 C.ar    1  UNL1        0.0191
      4 C          -7.3486  -14.3452   27.6602 C.ar    1  UNL1        0.0702
      5 C          -8.7004  -14.6670   27.8601 C.ar    1  UNL1        0.1149
      6 N          -9.4504  -13.9518   28.7394 N.ar    1  UNL1       -0.2279
      7 C         -11.6467  -10.8641   32.2520 C.3     1  UNL1        0.0472
      8 C         -10.1445  -11.0725   32.5594 C.3     1  UNL1        0.0252
      9 C          -9.5770  -12.2927   31.8260 C.3     1  UNL1        0.0923
     10 N          -9.7935  -12.1885   30.3722 N.pl3   1  UNL1       -0.2932
     11 C         -10.8116  -11.2625   29.8526 C.3     1  UNL1        0.0923
     12 C         -12.0231  -11.2256   30.7903 C.3     1  UNL1        0.0252
     13 C         -12.1062   -9.4462   32.6592 C.3     1  UNL1        0.2054
     14 O         -12.0613   -8.5314   31.5598 O.3     1  UNL1       -0.4755
     15 C          -8.8247   -5.9440   30.7082 C.ar    1  UNL1       -0.0158
     16 C         -10.0244   -5.8395   29.9810 C.ar    1  UNL1       -0.0009
     17 C         -11.1087   -6.6706   30.2557 C.ar    1  UNL1        0.0366
     18 C         -11.0133   -7.6491   31.2544 C.ar    1  UNL1        0.1387
     19 C          -9.8350   -7.7513   31.9971 C.ar    1  UNL1        0.0430
     20 C          -8.7286   -6.9193   31.7431 C.ar    1  UNL1        0.0745
     21 C          -7.5096   -7.1327   32.5663 C.2     1  UNL1        0.3378
     22 O          -6.6926   -8.0529   32.3009 O.2     1  UNL1       -0.2451
     23 O          -7.2393   -6.2788   33.6330 O.3     1  UNL1       -0.4771
     24 H          -6.4080   -6.3997   34.1991 H       1  UNL1        0.2954
     25 C          -6.4974   -5.8925   29.7678 C.3     1  UNL1        0.0050
     26 C          -7.6684   -5.0604   30.2849 C.3     1  UNL1        0.0266
     27 N          -6.5304  -15.0605   26.7184 N.am    1  UNL1       -0.2766
     28 C          -6.9085  -15.3158   25.3560 C.2     1  UNL1        0.2839
     29 O          -8.1009  -15.1444   24.9853 O.2     1  UNL1       -0.2665
     30 H          -5.6457  -15.4912   27.0707 H       1  UNL1        0.1553
     31 C          -5.9046  -15.8195   24.3994 C.ar    1  UNL1        0.1946
     32 O          -6.0148  -15.6593   23.0925 O.2     1  UNL1       -0.4492
     33 C          -4.9719  -16.2178   22.5288 C.ar    1  UNL1        0.1452
     34 C          -4.6820  -16.2858   21.1706 C.ar    1  UNL1        0.0375
     35 C          -3.5005  -16.9390   20.7796 C.ar    1  UNL1        0.0031
     36 C          -2.6303  -17.5116   21.7463 C.ar    1  UNL1        0.0002
     37 C          -2.9624  -17.4199   23.1194 C.ar    1  UNL1        0.0028
     38 C          -4.1431  -16.7641   23.4718 C.ar    1  UNL1        0.0337
     39 C          -4.7297  -16.5186   24.6986 C.ar    1  UNL1        0.0202
     40 C          -4.2189  -16.9148   26.0512 C.3     1  UNL1        0.0345
     41 C          -1.3849  -18.1995   21.3213 C.ar    1  UNL1        0.0000
     42 C          -0.2498  -17.4565   20.9443 C.ar    1  UNL1        0.0000
     43 C           0.9216  -18.1067   20.5445 C.ar    1  UNL1        0.0000
     44 C           0.9746  -19.5020   20.5171 C.ar    1  UNL1        0.0000
     45 C          -0.1444  -20.2504   20.8893 C.ar    1  UNL1        0.0000
     46 C          -1.3187  -19.6054   21.2891 C.ar    1  UNL1        0.0000
@<TRIPOS>BOND
     1    25    26    1
     2    26    15    1
     3    15    16   ar
     4    16    17   ar
     5    17    18   ar
     6    18    14    1
     7    14    13    1
     8    13     7    1
     9     7     8    1
    10     8     9    1
    11     9    10    1
    12    10     1    1
    13     1     2   ar
    14     2     3   ar
    15     3     4   ar
    16     4    27    1
    17    27    28   am
    18    28    29    2
    19    28    31    1
    20    31    32   ar
    21    32    33   ar
    22    33    34   ar
    23    34    35   ar
    24    35    36   ar
    25    36    41    1
    26    41    42   ar
    27    42    43   ar
    28    43    44   ar
    29    44    45   ar
    30    45    46   ar
    31    36    37   ar
    32    37    38   ar
    33    38    39   ar
    34    39    40    1
    35     4     5   ar
    36     5     6   ar
    37    10    11    1
    38    11    12    1
    39    18    19   ar
    40    19    20   ar
    41    20    21    1
    42    21    22    2
    43    21    23    1
    44    20    15   ar
    45    12     7    1
    46     6     1   ar
    47    39    31   ar
    48    38    33   ar
    49    46    41   ar
    50    27    30    1
    51    23    24    1
