@<TRIPOS>MOLECULE
*****
 26 28 0 0 0
SMALL
GASTEIGER

@<TRIPOS>ATOM
      1 C          46.0342   14.4921  -24.6834 C.ar    1  UNL1        0.1385
      2 C          47.1050   14.6984  -23.8062 C.ar    1  UNL1        0.0366
      3 C          47.4504   13.7261  -22.8637 C.ar    1  UNL1       -0.0011
      4 C          46.7215   12.5304  -22.7801 C.ar    1  UNL1       -0.0206
      5 C          45.6238   12.3356  -23.6316 C.ar    1  UNL1       -0.0011
      6 C          45.2759   13.3102  -24.5704 C.ar    1  UNL1        0.0366
      7 O          45.7699   15.4790  -25.6482 O.3     1  UNL1       -0.4750
      8 C          46.4760   15.6594  -26.8794 C.3     1  UNL1        0.2117
      9 C          45.6127   15.2619  -28.0845 C.3     1  UNL1        0.0931
     10 C          46.4831   11.3689  -29.6507 C.ar    1  UNL1       -0.0030
     11 C          46.6788   11.6216  -28.2864 C.ar    1  UNL1       -0.0015
     12 C          46.4312   12.8935  -27.7688 C.ar    1  UNL1        0.0145
     13 C          45.9882   13.9121  -28.6252 C.ar    1  UNL1        0.0627
     14 N          45.8247   13.6515  -29.9513 N.ar    1  UNL1       -0.2484
     15 C          46.0700   12.4227  -30.4789 C.ar    1  UNL1        0.0941
     16 C          47.8145    9.2761  -29.4034 C.3     1  UNL1        0.0051
     17 C          46.7554   10.0047  -30.2234 C.3     1  UNL1        0.0279
     18 C          47.0949   11.4841  -21.7613 C.3     1  UNL1        0.0468
     19 C          48.5543   11.6364  -21.3045 C.3     1  UNL1        0.1369
     20 S          48.7263   11.2305  -19.5129 S.3     1  UNL1       -0.0482
     21 C          49.7908    9.8560  -19.9167 C.2     1  UNL1        0.2792
     22 O          50.2319    9.0637  -19.0441 O.2     1  UNL1       -0.2625
     23 N          50.1011    9.7067  -21.2858 N.am    1  UNL1       -0.2460
     24 C          49.4451   10.6938  -22.0578 C.2     1  UNL1        0.2392
     25 O          49.6156   10.7746  -23.3032 O.2     1  UNL1       -0.2737
     26 H          50.7297    8.9691  -21.6750 H       1  UNL1        0.1583
@<TRIPOS>BOND
     1    16    17    1
     2    17    10    1
     3    10    11   ar
     4    11    12   ar
     5    12    13   ar
     6    13     9    1
     7     9     8    1
     8     8     7    1
     9     7     1    1
    10     1     2   ar
    11     2     3   ar
    12     3     4   ar
    13     4    18    1
    14    18    19    1
    15    19    20    1
    16    20    21    1
    17    21    22    2
    18    21    23   am
    19    23    24   am
    20    24    25    2
    21     4     5   ar
    22     5     6   ar
    23    13    14   ar
    24    14    15   ar
    25    15    10   ar
    26     6     1   ar
    27    24    19    1
    28    23    26    1
@<TRIPOS>MOLECULE
*****
 26 28 0 0 0
SMALL
GASTEIGER

@<TRIPOS>ATOM
      1 C          51.2910    9.5911  -24.7392 C.ar    1  UNL1        0.1385
      2 C          50.7941    8.4082  -24.1801 C.ar    1  UNL1        0.0366
      3 C          49.9379    8.4474  -23.0764 C.ar    1  UNL1       -0.0011
      4 C          49.5700    9.6765  -22.5088 C.ar    1  UNL1       -0.0206
      5 C          50.0959   10.8627  -23.0421 C.ar    1  UNL1       -0.0011
      6 C          50.9559   10.8225  -24.1427 C.ar    1  UNL1        0.0366
      7 O          52.1007    9.4928  -25.8835 O.3     1  UNL1       -0.4750
      8 C          51.7347    9.8928  -27.2075 C.3     1  UNL1        0.2117
      9 C          50.3095    9.4422  -27.5556 C.3     1  UNL1        0.0931
     10 C          50.0789    7.2094  -31.2063 C.ar    1  UNL1       -0.0030
     11 C          51.3341    7.4998  -30.6551 C.ar    1  UNL1       -0.0015
     12 C          51.4256    8.2541  -29.4848 C.ar    1  UNL1        0.0145
     13 C          50.2534    8.7181  -28.8701 C.ar    1  UNL1        0.0627
     14 N          49.0450    8.4429  -29.4334 N.ar    1  UNL1       -0.2484
     15 C          48.9329    7.7188  -30.5786 C.ar    1  UNL1        0.0941
     16 C          48.5116    6.0499  -32.7596 C.3     1  UNL1        0.0051
     17 C          49.9664    6.4052  -32.4727 C.3     1  UNL1        0.0279
     18 C          48.6478    9.7160  -21.3172 C.3     1  UNL1        0.0468
     19 C          48.7807   11.0374  -20.5440 C.3     1  UNL1        0.1369
     20 S          47.2715   12.0769  -20.7578 S.3     1  UNL1       -0.0482
     21 C          46.9347   11.9647  -19.0087 C.2     1  UNL1        0.2792
     22 O          45.9028   12.4602  -18.4860 O.2     1  UNL1       -0.2625
     23 N          47.8998   11.2730  -18.2451 N.am    1  UNL1       -0.2460
     24 C          48.9324   10.7770  -19.0747 C.2     1  UNL1        0.2392
     25 O          49.9230   10.1639  -18.5955 O.2     1  UNL1       -0.2737
     26 H          47.8574   11.1457  -17.2093 H       1  UNL1        0.1583
@<TRIPOS>BOND
     1    16    17    1
     2    17    10    1
     3    10    11   ar
     4    11    12   ar
     5    12    13   ar
     6    13     9    1
     7     9     8    1
     8     8     7    1
     9     7     1    1
    10     1     2   ar
    11     2     3   ar
    12     3     4   ar
    13     4    18    1
    14    18    19    1
    15    19    20    1
    16    20    21    1
    17    21    22    2
    18    21    23   am
    19    23    24   am
    20    24    25    2
    21     4     5   ar
    22     5     6   ar
    23    13    14   ar
    24    14    15   ar
    25    15    10   ar
    26     6     1   ar
    27    24    19    1
    28    23    26    1
@<TRIPOS>MOLECULE
*****
 26 28 0 0 0
SMALL
GASTEIGER

@<TRIPOS>ATOM
      1 C          50.5536   10.6000  -26.7169 C.ar    1  UNL1        0.1385
      2 C          50.1951    9.5389  -27.5561 C.ar    1  UNL1        0.0366
      3 C          51.0749    9.0819  -28.5410 C.ar    1  UNL1       -0.0011
      4 C          52.3295    9.6874  -28.7062 C.ar    1  UNL1       -0.0206
      5 C          52.6778   10.7760  -27.8927 C.ar    1  UNL1       -0.0011
      6 C          51.7957   11.2357  -26.9113 C.ar    1  UNL1        0.0366
      7 O          49.6527   10.9782  -25.7070 O.3     1  UNL1       -0.4750
      8 C          48.8302   12.1488  -25.7114 C.3     1  UNL1        0.2117
      9 C          47.3464   11.7911  -25.8720 C.3     1  UNL1        0.0931
     10 C          46.2983   11.9134  -30.0257 C.ar    1  UNL1       -0.0030
     11 C          46.1048   13.0527  -29.2330 C.ar    1  UNL1       -0.0015
     12 C          46.4105   13.0171  -27.8721 C.ar    1  UNL1        0.0145
     13 C          46.9094   11.8337  -27.3082 C.ar    1  UNL1        0.0627
     14 N          47.0700   10.7317  -28.0912 N.ar    1  UNL1       -0.2484
     15 C          46.7688   10.7408  -29.4170 C.ar    1  UNL1        0.0941
     16 C          45.7400   13.3646  -31.9740 C.3     1  UNL1        0.0051
     17 C          45.9639   11.9353  -31.4922 C.3     1  UNL1        0.0279
     18 C          53.2758    9.1938  -29.7705 C.3     1  UNL1        0.0468
     19 C          53.1923    7.6683  -29.9368 C.3     1  UNL1        0.1369
     20 S          52.2372    7.2252  -31.4519 S.3     1  UNL1       -0.0482
     21 C          53.6892    6.4623  -32.1557 C.2     1  UNL1        0.2792
     22 O          53.7046    5.9841  -33.3196 O.2     1  UNL1       -0.2625
     23 N          54.8290    6.4372  -31.3232 N.am    1  UNL1       -0.2460
     24 C          54.5623    7.0776  -30.0905 C.2     1  UNL1        0.2392
     25 O          55.4285    7.1325  -29.1776 O.2     1  UNL1       -0.2737
     26 H          55.7436    6.0042  -31.5817 H       1  UNL1        0.1583
@<TRIPOS>BOND
     1    16    17    1
     2    17    10    1
     3    10    11   ar
     4    11    12   ar
     5    12    13   ar
     6    13     9    1
     7     9     8    1
     8     8     7    1
     9     7     1    1
    10     1     2   ar
    11     2     3   ar
    12     3     4   ar
    13     4    18    1
    14    18    19    1
    15    19    20    1
    16    20    21    1
    17    21    22    2
    18    21    23   am
    19    23    24   am
    20    24    25    2
    21     4     5   ar
    22     5     6   ar
    23    13    14   ar
    24    14    15   ar
    25    15    10   ar
    26     6     1   ar
    27    24    19    1
    28    23    26    1
@<TRIPOS>MOLECULE
*****
 26 28 0 0 0
SMALL
GASTEIGER

@<TRIPOS>ATOM
      1 C          47.2510   11.4032  -22.5531 C.ar    1  UNL1        0.1385
      2 C          47.4148   12.4883  -21.6844 C.ar    1  UNL1        0.0366
      3 C          48.1369   12.3462  -20.4965 C.ar    1  UNL1       -0.0011
      4 C          48.7025   11.1086  -20.1552 C.ar    1  UNL1       -0.0206
      5 C          48.5085   10.0087  -21.0041 C.ar    1  UNL1       -0.0011
      6 C          47.7823   10.1502  -22.1895 C.ar    1  UNL1        0.0366
      7 O          46.5654   11.6201  -23.7605 O.3     1  UNL1       -0.4750
      8 C          47.1422   12.1002  -24.9785 C.3     1  UNL1        0.2117
      9 C          46.1322   12.9211  -25.7919 C.3     1  UNL1        0.0931
     10 C          46.2204   12.1245  -30.0019 C.ar    1  UNL1       -0.0030
     11 C          46.5763   11.1110  -29.1018 C.ar    1  UNL1       -0.0015
     12 C          46.5841   11.3660  -27.7300 C.ar    1  UNL1        0.0145
     13 C          46.2355   12.6421  -27.2639 C.ar    1  UNL1        0.0627
     14 N          45.9134   13.6187  -28.1560 N.ar    1  UNL1       -0.2484
     15 C          45.9093   13.3954  -29.4972 C.ar    1  UNL1        0.0941
     16 C          45.6371   13.0568  -32.2388 C.3     1  UNL1        0.0051
     17 C          46.2170   11.8657  -31.4838 C.3     1  UNL1        0.0279
     18 C          49.4793   10.9575  -18.8723 C.3     1  UNL1        0.0468
     19 C          50.0038   12.3109  -18.3673 C.3     1  UNL1        0.1369
     20 S          49.7803   12.4609  -16.5420 S.3     1  UNL1       -0.0482
     21 C          51.5493   12.5503  -16.3231 C.2     1  UNL1        0.2792
     22 O          52.0881   12.5985  -15.1868 O.2     1  UNL1       -0.2625
     23 N          52.3114   12.5541  -17.5114 N.am    1  UNL1       -0.2460
     24 C          51.4716   12.4455  -18.6444 C.2     1  UNL1        0.2392
     25 O          51.9391   12.4733  -19.8138 O.2     1  UNL1       -0.2737
     26 H          53.3525   12.6279  -17.5487 H       1  UNL1        0.1583
@<TRIPOS>BOND
     1    16    17    1
     2    17    10    1
     3    10    11   ar
     4    11    12   ar
     5    12    13   ar
     6    13     9    1
     7     9     8    1
     8     8     7    1
     9     7     1    1
    10     1     2   ar
    11     2     3   ar
    12     3     4   ar
    13     4    18    1
    14    18    19    1
    15    19    20    1
    16    20    21    1
    17    21    22    2
    18    21    23   am
    19    23    24   am
    20    24    25    2
    21     4     5   ar
    22     5     6   ar
    23    13    14   ar
    24    14    15   ar
    25    15    10   ar
    26     6     1   ar
    27    24    19    1
    28    23    26    1
@<TRIPOS>MOLECULE
*****
 26 28 0 0 0
SMALL
GASTEIGER

@<TRIPOS>ATOM
      1 C          45.9065   14.2234  -25.0009 C.ar    1  UNL1        0.1385
      2 C          45.4952   12.8857  -25.0093 C.ar    1  UNL1        0.0366
      3 C          45.8487   12.0259  -23.9660 C.ar    1  UNL1       -0.0011
      4 C          46.6287   12.4923  -22.8973 C.ar    1  UNL1       -0.0206
      5 C          47.0753   13.8222  -22.9036 C.ar    1  UNL1       -0.0011
      6 C          46.7256   14.6802  -23.9496 C.ar    1  UNL1        0.0366
      7 O          45.4723   15.0556  -26.0466 O.3     1  UNL1       -0.4750
      8 C          45.9202   15.0005  -27.4042 C.3     1  UNL1        0.2117
      9 C          46.3444   16.3854  -27.9116 C.3     1  UNL1        0.0931
     10 C          50.2734   17.5598  -26.6663 C.ar    1  UNL1       -0.0030
     11 C          49.9467   16.1981  -26.7207 C.ar    1  UNL1       -0.0015
     12 C          48.6613   15.8024  -27.0924 C.ar    1  UNL1        0.0145
     13 C          47.7038   16.7775  -27.4077 C.ar    1  UNL1        0.0627
     14 N          48.0353   18.0954  -27.3282 N.ar    1  UNL1       -0.2484
     15 C          49.2782   18.5038  -26.9582 C.ar    1  UNL1        0.0941
     16 C          51.7091   18.2797  -24.7600 C.3     1  UNL1        0.0051
     17 C          51.6525   18.0004  -26.2580 C.3     1  UNL1        0.0279
     18 C          47.0102   11.5623  -21.7741 C.3     1  UNL1        0.0468
     19 C          48.5359   11.4424  -21.6338 C.3     1  UNL1        0.1369
     20 S          49.0420   11.5503  -19.8629 S.3     1  UNL1       -0.0482
     21 C          49.6776    9.8840  -19.9331 C.2     1  UNL1        0.2792
     22 O          50.1426    9.2949  -18.9230 O.2     1  UNL1       -0.2625
     23 N          49.6170    9.2611  -21.1985 N.am    1  UNL1       -0.2460
     24 C          49.0114   10.1164  -22.1485 C.2     1  UNL1        0.2392
     25 O          48.8940    9.7784  -23.3563 O.2     1  UNL1       -0.2737
     26 H          49.9716    8.3007  -21.4050 H       1  UNL1        0.1583
@<TRIPOS>BOND
     1    16    17    1
     2    17    10    1
     3    10    11   ar
     4    11    12   ar
     5    12    13   ar
     6    13     9    1
     7     9     8    1
     8     8     7    1
     9     7     1    1
    10     1     2   ar
    11     2     3   ar
    12     3     4   ar
    13     4    18    1
    14    18    19    1
    15    19    20    1
    16    20    21    1
    17    21    22    2
    18    21    23   am
    19    23    24   am
    20    24    25    2
    21     4     5   ar
    22     5     6   ar
    23    13    14   ar
    24    14    15   ar
    25    15    10   ar
    26     6     1   ar
    27    24    19    1
    28    23    26    1
@<TRIPOS>MOLECULE
*****
 26 28 0 0 0
SMALL
GASTEIGER

@<TRIPOS>ATOM
      1 C          49.5539    7.7035  -30.7408 C.ar    1  UNL1        0.1385
      2 C          50.4193    7.9975  -29.6810 C.ar    1  UNL1        0.0366
      3 C          51.7924    7.7659  -29.7981 C.ar    1  UNL1       -0.0011
      4 C          52.3214    7.2273  -30.9806 C.ar    1  UNL1       -0.0206
      5 C          51.4531    6.8954  -32.0313 C.ar    1  UNL1       -0.0011
      6 C          50.0796    7.1228  -31.9117 C.ar    1  UNL1        0.0366
      7 O          48.1914    8.0117  -30.5874 O.3     1  UNL1       -0.4750
      8 C          47.6447    8.9646  -29.6709 C.3     1  UNL1        0.2117
      9 C          46.7347    9.9724  -30.3862 C.3     1  UNL1        0.0931
     10 C          46.1327   13.5362  -28.0833 C.ar    1  UNL1       -0.0030
     11 C          45.9501   13.5750  -29.4721 C.ar    1  UNL1       -0.0015
     12 C          46.1747   12.4308  -30.2385 C.ar    1  UNL1        0.0145
     13 C          46.5852   11.2476  -29.6070 C.ar    1  UNL1        0.0627
     14 N          46.7773   11.2368  -28.2594 N.ar    1  UNL1       -0.2484
     15 C          46.5746   12.3424  -27.4946 C.ar    1  UNL1        0.0941
     16 C          45.5870   15.9680  -28.1284 C.3     1  UNL1        0.0051
     17 C          45.9032   14.7650  -27.2464 C.3     1  UNL1        0.0279
     18 C          53.8026    6.9767  -31.1037 C.3     1  UNL1        0.0468
     19 C          54.5604    7.4441  -29.8511 C.3     1  UNL1        0.1369
     20 S          56.1397    6.5110  -29.6538 S.3     1  UNL1       -0.0482
     21 C          57.0685    8.0219  -29.8538 C.2     1  UNL1        0.2792
     22 O          58.3264    8.0427  -29.8866 O.2     1  UNL1       -0.2625
     23 N          56.2988    9.1982  -29.9830 N.am    1  UNL1       -0.2460
     24 C          54.9170    8.8968  -29.9605 C.2     1  UNL1        0.2392
     25 O          54.0455    9.8044  -30.0178 O.2     1  UNL1       -0.2737
     26 H          56.6954   10.1594  -30.0810 H       1  UNL1        0.1583
@<TRIPOS>BOND
     1    16    17    1
     2    17    10    1
     3    10    11   ar
     4    11    12   ar
     5    12    13   ar
     6    13     9    1
     7     9     8    1
     8     8     7    1
     9     7     1    1
    10     1     2   ar
    11     2     3   ar
    12     3     4   ar
    13     4    18    1
    14    18    19    1
    15    19    20    1
    16    20    21    1
    17    21    22    2
    18    21    23   am
    19    23    24   am
    20    24    25    2
    21     4     5   ar
    22     5     6   ar
    23    13    14   ar
    24    14    15   ar
    25    15    10   ar
    26     6     1   ar
    27    24    19    1
    28    23    26    1
@<TRIPOS>MOLECULE
*****
 26 28 0 0 0
SMALL
GASTEIGER

@<TRIPOS>ATOM
      1 C          45.9537   11.9813  -26.2210 C.ar    1  UNL1        0.1385
      2 C          44.9549   12.2841  -25.2885 C.ar    1  UNL1        0.0366
      3 C          45.2778   12.5097  -23.9477 C.ar    1  UNL1       -0.0011
      4 C          46.6104   12.4282  -23.5168 C.ar    1  UNL1       -0.0206
      5 C          47.6100   12.0874  -24.4403 C.ar    1  UNL1       -0.0011
      6 C          47.2858   11.8572  -25.7798 C.ar    1  UNL1        0.0366
      7 O          45.5771   11.8221  -27.5654 O.3     1  UNL1       -0.4750
      8 C          46.3284   12.2534  -28.7041 C.3     1  UNL1        0.2117
      9 C          45.9535   13.6840  -29.1142 C.3     1  UNL1        0.0931
     10 C          46.9587   16.3862  -25.9433 C.ar    1  UNL1       -0.0030
     11 C          45.6699   16.4183  -26.4926 C.ar    1  UNL1       -0.0015
     12 C          45.3387   15.5673  -27.5476 C.ar    1  UNL1        0.0145
     13 C          46.3055   14.6849  -28.0513 C.ar    1  UNL1        0.0627
     14 N          47.5579   14.6843  -27.5176 N.ar    1  UNL1       -0.2484
     15 C          47.9055   15.5120  -26.4966 C.ar    1  UNL1        0.0941
     16 C          46.7916   16.7775  -23.4872 C.3     1  UNL1        0.0051
     17 C          47.3318   17.3049  -24.8120 C.3     1  UNL1        0.0279
     18 C          46.9558   12.6701  -22.0697 C.3     1  UNL1        0.0468
     19 C          46.7029   11.4200  -21.2123 C.3     1  UNL1        0.1369
     20 S          48.0241   10.1609  -21.4830 S.3     1  UNL1       -0.0482
     21 C          48.5232   10.3035  -19.7753 C.2     1  UNL1        0.2792
     22 O          49.5151    9.6865  -19.3073 O.2     1  UNL1       -0.2625
     23 N          47.7364   11.1645  -18.9800 N.am    1  UNL1       -0.2460
     24 C          46.7173   11.7679  -19.7535 C.2     1  UNL1        0.2392
     25 O          45.8696   12.5417  -19.2345 O.2     1  UNL1       -0.2737
     26 H          47.8858   11.3322  -17.9600 H       1  UNL1        0.1583
@<TRIPOS>BOND
     1    16    17    1
     2    17    10    1
     3    10    11   ar
     4    11    12   ar
     5    12    13   ar
     6    13     9    1
     7     9     8    1
     8     8     7    1
     9     7     1    1
    10     1     2   ar
    11     2     3   ar
    12     3     4   ar
    13     4    18    1
    14    18    19    1
    15    19    20    1
    16    20    21    1
    17    21    22    2
    18    21    23   am
    19    23    24   am
    20    24    25    2
    21     4     5   ar
    22     5     6   ar
    23    13    14   ar
    24    14    15   ar
    25    15    10   ar
    26     6     1   ar
    27    24    19    1
    28    23    26    1
@<TRIPOS>MOLECULE
*****
 26 28 0 0 0
SMALL
GASTEIGER

@<TRIPOS>ATOM
      1 C          49.9463   17.2405  -25.4056 C.ar    1  UNL1        0.1385
      2 C          49.9190   16.6074  -26.6534 C.ar    1  UNL1        0.0366
      3 C          50.1725   15.2374  -26.7621 C.ar    1  UNL1       -0.0011
      4 C          50.4656   14.4786  -25.6191 C.ar    1  UNL1       -0.0206
      5 C          50.5317   15.1162  -24.3713 C.ar    1  UNL1       -0.0011
      6 C          50.2829   16.4869  -24.2639 C.ar    1  UNL1        0.0366
      7 O          49.6262   18.6077  -25.3504 O.3     1  UNL1       -0.4750
      8 C          48.3988   19.2004  -25.7852 C.3     1  UNL1        0.2117
      9 C          47.2352   18.8251  -24.8575 C.3     1  UNL1        0.0931
     10 C          46.1420   14.7232  -25.4449 C.ar    1  UNL1       -0.0030
     11 C          46.0522   15.6200  -26.5179 C.ar    1  UNL1       -0.0015
     12 C          46.3732   16.9652  -26.3328 C.ar    1  UNL1        0.0145
     13 C          46.7829   17.4084  -25.0668 C.ar    1  UNL1        0.0627
     14 N          46.8431   16.5252  -24.0326 N.ar    1  UNL1       -0.2484
     15 C          46.5250   15.2125  -24.1877 C.ar    1  UNL1        0.0941
     16 C          44.6433   12.8736  -24.7055 C.3     1  UNL1        0.0051
     17 C          45.7898   13.2722  -25.6284 C.3     1  UNL1        0.0279
     18 C          50.7405   13.0014  -25.7393 C.3     1  UNL1        0.0468
     19 C          51.0662   12.3749  -24.3744 C.3     1  UNL1        0.1369
     20 S          49.7940   11.1229  -23.9073 S.3     1  UNL1       -0.0482
     21 C          51.0319    9.8376  -23.9431 C.2     1  UNL1        0.2792
     22 O          50.7523    8.6247  -23.7579 O.2     1  UNL1       -0.2625
     23 N          52.3508   10.2685  -24.2031 N.am    1  UNL1       -0.2460
     24 C          52.3870   11.6658  -24.4199 C.2     1  UNL1        0.2392
     25 O          53.4723   12.2707  -24.6267 O.2     1  UNL1       -0.2737
     26 H          53.1856    9.6415  -24.2306 H       1  UNL1        0.1583
@<TRIPOS>BOND
     1    16    17    1
     2    17    10    1
     3    10    11   ar
     4    11    12   ar
     5    12    13   ar
     6    13     9    1
     7     9     8    1
     8     8     7    1
     9     7     1    1
    10     1     2   ar
    11     2     3   ar
    12     3     4   ar
    13     4    18    1
    14    18    19    1
    15    19    20    1
    16    20    21    1
    17    21    22    2
    18    21    23   am
    19    23    24   am
    20    24    25    2
    21     4     5   ar
    22     5     6   ar
    23    13    14   ar
    24    14    15   ar
    25    15    10   ar
    26     6     1   ar
    27    24    19    1
    28    23    26    1
@<TRIPOS>MOLECULE
*****
 26 28 0 0 0
SMALL
GASTEIGER

@<TRIPOS>ATOM
      1 C          47.3675   14.9255  -24.3180 C.ar    1  UNL1        0.1385
      2 C          47.5972   13.5500  -24.4356 C.ar    1  UNL1        0.0366
      3 C          48.5883   12.9262  -23.6731 C.ar    1  UNL1       -0.0011
      4 C          49.3727   13.6744  -22.7826 C.ar    1  UNL1       -0.0206
      5 C          49.1717   15.0597  -22.6895 C.ar    1  UNL1       -0.0011
      6 C          48.1839   15.6837  -23.4558 C.ar    1  UNL1        0.0366
      7 O          46.3192   15.4875  -25.0663 O.3     1  UNL1       -0.4750
      8 C          45.8657   15.0361  -26.3460 C.3     1  UNL1        0.2117
      9 C          46.3089   15.9876  -27.4657 C.3     1  UNL1        0.0931
     10 C          50.2317   17.4749  -26.5902 C.ar    1  UNL1       -0.0030
     11 C          49.1599   18.3729  -26.6836 C.ar    1  UNL1       -0.0015
     12 C          47.8836   17.9068  -27.0007 C.ar    1  UNL1        0.0145
     13 C          47.6861   16.5365  -27.2257 C.ar    1  UNL1        0.0627
     14 N          48.7446   15.6838  -27.1508 N.ar    1  UNL1       -0.2484
     15 C          49.9984   16.1173  -26.8537 C.ar    1  UNL1        0.0941
     16 C          51.7518   18.2232  -24.7618 C.3     1  UNL1        0.0051
     17 C          51.6146   17.9653  -26.2584 C.3     1  UNL1        0.0279
     18 C          50.4424   12.9995  -21.9627 C.3     1  UNL1        0.0468
     19 C          50.7345   13.7743  -20.6680 C.3     1  UNL1        0.1369
     20 S          50.2220   12.7971  -19.1894 S.3     1  UNL1       -0.0482
     21 C          51.9171   12.7286  -18.6352 C.2     1  UNL1        0.2792
     22 O          52.2691   12.0811  -17.6151 O.2     1  UNL1       -0.2625
     23 N          52.8455   13.4430  -19.4230 N.am    1  UNL1       -0.2460
     24 C          52.2040   14.0418  -20.5323 C.2     1  UNL1        0.2392
     25 O          52.8374   14.7652  -21.3460 O.2     1  UNL1       -0.2737
     26 H          53.8661   13.5196  -19.2147 H       1  UNL1        0.1583
@<TRIPOS>BOND
     1    16    17    1
     2    17    10    1
     3    10    11   ar
     4    11    12   ar
     5    12    13   ar
     6    13     9    1
     7     9     8    1
     8     8     7    1
     9     7     1    1
    10     1     2   ar
    11     2     3   ar
    12     3     4   ar
    13     4    18    1
    14    18    19    1
    15    19    20    1
    16    20    21    1
    17    21    22    2
    18    21    23   am
    19    23    24   am
    20    24    25    2
    21     4     5   ar
    22     5     6   ar
    23    13    14   ar
    24    14    15   ar
    25    15    10   ar
    26     6     1   ar
    27    24    19    1
    28    23    26    1
