@<TRIPOS>MOLECULE
*****
 28 31 0 0 0
SMALL
GASTEIGER

@<TRIPOS>ATOM
      1 C         -25.7785   -4.7222  -16.3895 C.3     1  UNL1        0.0138
      2 C         -27.2361   -4.4391  -16.0998 C.3     1  UNL1        0.1087
      3 C         -27.8919   -5.0214  -14.9884 C.3     1  UNL1        0.0893
      4 N         -29.2189   -4.7832  -14.7826 N.4     1  UNL1        0.3475
      5 C         -29.9441   -3.9615  -15.5917 C.3     1  UNL1        0.0950
      6 C         -31.3063   -3.7422  -15.3292 C.3     1  UNL1        0.0923
      7 C         -32.0549   -2.8935  -16.1452 C.3     1  UNL1        0.1695
      8 F         -33.3694   -2.6880  -15.8835 F       1  UNL1       -0.2370
      9 C         -31.4525   -2.2548  -17.2291 C.3     1  UNL1        0.0714
     10 C         -30.0981   -2.4598  -17.5072 C.3     1  UNL1        0.1761
     11 F         -29.5553   -1.8184  -18.5736 F       1  UNL1       -0.2365
     12 C         -29.3262   -3.3188  -16.6904 C.3     1  UNL1        0.1411
     13 C         -27.9589   -3.5620  -16.9332 C.2     1  UNL1        0.1637
     14 O         -27.3749   -2.9975  -17.8994 O.2     1  UNL1       -0.2956
     15 H         -29.6888   -5.2325  -13.9625 H       1  UNL1        0.2374
     16 C         -27.1763   -5.8974  -14.0316 C.3     1  UNL1        0.0516
     17 C         -27.5181   -7.2523  -13.9330 C.3     1  UNL1        0.0071
     18 C         -26.8616   -8.0827  -13.0206 C.3     1  UNL1        0.0162
     19 C         -25.8542   -7.5715  -12.1787 C.3     1  UNL1        0.0577
     20 C         -25.5287   -6.2041  -12.2736 C.3     1  UNL1        0.0162
     21 C         -26.1870   -5.3760  -13.1865 C.3     1  UNL1        0.0071
     22 N         -25.1723   -8.4304  -11.2345 N.3     1  UNL1       -0.2692
     23 C         -23.8831   -9.0575  -11.4898 C.3     1  UNL1        0.0779
     24 C         -23.6420  -10.0047  -10.3224 C.3     1  UNL1        0.0853
     25 C         -24.5811   -9.5356   -9.2150 C.3     1  UNL1        0.2797
     26 F         -25.0845  -10.6109   -8.5022 F       1  UNL1       -0.2028
     27 F         -23.9031   -8.6884   -8.3533 F       1  UNL1       -0.2028
     28 C         -25.6978   -8.7749   -9.9208 C.3     1  UNL1        0.1394
@<TRIPOS>BOND
     1     1     2    1
     2     2     3    1
     3     3    16    1
     4    16    17    1
     5    17    18    1
     6    18    19    1
     7    19    22    1
     8    22    23    1
     9    23    24    1
    10    24    25    1
    11    25    26    1
    12    25    27    1
    13    25    28    1
    14    19    20    1
    15    20    21    1
    16     3     4    1
    17     4     5    1
    18     5     6    1
    19     6     7    1
    20     7     8    1
    21     7     9    1
    22     9    10    1
    23    10    11    1
    24    10    12    1
    25    12    13    1
    26    13    14    2
    27    13     2    1
    28    21    16    1
    29    12     5    1
    30    28    22    1
    31     4    15    1
@<TRIPOS>MOLECULE
*****
 28 31 0 0 0
SMALL
GASTEIGER

@<TRIPOS>ATOM
      1 C         -19.2153  -10.0892   -9.7184 C.3     1  UNL1        0.0138
      2 C         -19.2341   -9.4866   -8.3310 C.3     1  UNL1        0.1087
      3 C         -20.2304   -8.5574   -7.9457 C.3     1  UNL1        0.0893
      4 N         -20.1911   -7.9969   -6.7031 N.4     1  UNL1        0.3475
      5 C         -19.2407   -8.3292   -5.7853 C.3     1  UNL1        0.0950
      6 C         -19.2517   -7.7292   -4.5155 C.3     1  UNL1        0.0923
      7 C         -18.2895   -8.0712   -3.5648 C.3     1  UNL1        0.1695
      8 F         -18.3084   -7.4865   -2.3415 F       1  UNL1       -0.2370
      9 C         -17.3090   -9.0149   -3.8704 C.3     1  UNL1        0.0714
     10 C         -17.2809   -9.6235   -5.1285 C.3     1  UNL1        0.1761
     11 F         -16.3069  -10.5350   -5.3815 F       1  UNL1       -0.2365
     12 C         -18.2483   -9.2861   -6.1038 C.3     1  UNL1        0.1411
     13 C         -18.2585   -9.8677   -7.3879 C.2     1  UNL1        0.1637
     14 O         -17.3929  -10.7314   -7.7012 O.2     1  UNL1       -0.2956
     15 H         -20.9294   -7.3030   -6.4412 H       1  UNL1        0.2374
     16 C         -21.3261   -8.1641   -8.8621 C.3     1  UNL1        0.0516
     17 C         -21.1972   -7.0164   -9.6548 C.3     1  UNL1        0.0071
     18 C         -22.2325   -6.6268  -10.5089 C.3     1  UNL1        0.0162
     19 C         -23.4254   -7.3733  -10.5802 C.3     1  UNL1        0.0577
     20 C         -23.5523   -8.5167   -9.7670 C.3     1  UNL1        0.0162
     21 C         -22.5157   -8.9038   -8.9137 C.3     1  UNL1        0.0071
     22 N         -24.4978   -6.9721  -11.4650 N.3     1  UNL1       -0.2692
     23 C         -25.5913   -7.8464  -11.8659 C.3     1  UNL1        0.0779
     24 C         -26.3670   -7.0822  -12.9301 C.3     1  UNL1        0.0853
     25 C         -25.9633   -5.6207  -12.7595 C.3     1  UNL1        0.2797
     26 F         -25.8814   -4.9818  -13.9854 F       1  UNL1       -0.2028
     27 F         -26.8894   -4.9688  -11.9611 F       1  UNL1       -0.2028
     28 C         -24.6066   -5.6496  -12.0649 C.3     1  UNL1        0.1394
@<TRIPOS>BOND
     1     1     2    1
     2     2     3    1
     3     3    16    1
     4    16    17    1
     5    17    18    1
     6    18    19    1
     7    19    22    1
     8    22    23    1
     9    23    24    1
    10    24    25    1
    11    25    26    1
    12    25    27    1
    13    25    28    1
    14    19    20    1
    15    20    21    1
    16     3     4    1
    17     4     5    1
    18     5     6    1
    19     6     7    1
    20     7     8    1
    21     7     9    1
    22     9    10    1
    23    10    11    1
    24    10    12    1
    25    12    13    1
    26    13    14    2
    27    13     2    1
    28    21    16    1
    29    12     5    1
    30    28    22    1
    31     4    15    1
@<TRIPOS>MOLECULE
*****
 28 31 0 0 0
SMALL
GASTEIGER

@<TRIPOS>ATOM
      1 C         -20.5123   -7.4815  -12.5141 C.3     1  UNL1        0.0138
      2 C         -21.4506   -8.6675  -12.5520 C.3     1  UNL1        0.1087
      3 C         -21.5450   -9.5662  -11.4622 C.3     1  UNL1        0.0893
      4 N         -22.3658  -10.6520  -11.5475 N.4     1  UNL1        0.3475
      5 C         -23.1436  -10.8914  -12.6399 C.3     1  UNL1        0.0950
      6 C         -23.9792  -12.0198  -12.6725 C.3     1  UNL1        0.0923
      7 C         -24.7881  -12.2675  -13.7819 C.3     1  UNL1        0.1695
      8 F         -25.5915  -13.3596  -13.8039 F       1  UNL1       -0.2370
      9 C         -24.7725  -11.3925  -14.8680 C.3     1  UNL1        0.0714
     10 C         -23.9479  -10.2639  -14.8551 C.3     1  UNL1        0.1761
     11 F         -23.9648   -9.4415  -15.9353 F       1  UNL1       -0.2365
     12 C         -23.1207  -10.0000  -13.7385 C.3     1  UNL1        0.1411
     13 C         -22.2681   -8.8787  -13.6805 C.2     1  UNL1        0.1637
     14 O         -22.2303   -8.0588  -14.6396 O.2     1  UNL1       -0.2956
     15 H         -22.4127  -11.3114  -10.7362 H       1  UNL1        0.2374
     16 C         -20.7671   -9.3667  -10.2172 C.3     1  UNL1        0.0516
     17 C         -19.5271   -9.9985  -10.0581 C.3     1  UNL1        0.0071
     18 C         -18.7940   -9.8313   -8.8801 C.3     1  UNL1        0.0162
     19 C         -19.2922   -9.0349   -7.8300 C.3     1  UNL1        0.0577
     20 C         -20.5477   -8.4168   -7.9925 C.3     1  UNL1        0.0162
     21 C         -21.2786   -8.5859   -9.1713 C.3     1  UNL1        0.0071
     22 N         -18.5338   -8.8596   -6.6101 N.3     1  UNL1       -0.2692
     23 C         -17.8358   -9.9382   -5.9244 C.3     1  UNL1        0.0779
     24 C         -17.3416   -9.3463   -4.6116 C.3     1  UNL1        0.0853
     25 C         -17.3716   -7.8336   -4.8084 C.3     1  UNL1        0.2797
     26 F         -17.7452   -7.1882   -3.6415 F       1  UNL1       -0.2028
     27 F         -16.1200   -7.3872   -5.2013 F       1  UNL1       -0.2028
     28 C         -18.3848   -7.5859   -5.9202 C.3     1  UNL1        0.1394
@<TRIPOS>BOND
     1     1     2    1
     2     2     3    1
     3     3    16    1
     4    16    17    1
     5    17    18    1
     6    18    19    1
     7    19    22    1
     8    22    23    1
     9    23    24    1
    10    24    25    1
    11    25    26    1
    12    25    27    1
    13    25    28    1
    14    19    20    1
    15    20    21    1
    16     3     4    1
    17     4     5    1
    18     5     6    1
    19     6     7    1
    20     7     8    1
    21     7     9    1
    22     9    10    1
    23    10    11    1
    24    10    12    1
    25    12    13    1
    26    13    14    2
    27    13     2    1
    28    21    16    1
    29    12     5    1
    30    28    22    1
    31     4    15    1
@<TRIPOS>MOLECULE
*****
 28 31 0 0 0
SMALL
GASTEIGER

@<TRIPOS>ATOM
      1 C         -21.0268   -7.0635  -12.4209 C.3     1  UNL1        0.0138
      2 C         -21.4415   -8.4646  -12.8125 C.3     1  UNL1        0.1087
      3 C         -21.1987   -9.5691  -11.9607 C.3     1  UNL1        0.0893
      4 N         -21.5423  -10.8255  -12.3645 N.4     1  UNL1        0.3475
      5 C         -22.1575  -11.0634  -13.5564 C.3     1  UNL1        0.0950
      6 C         -22.4993  -12.3763  -13.9197 C.3     1  UNL1        0.0923
      7 C         -23.1399  -12.6290  -15.1332 C.3     1  UNL1        0.1695
      8 F         -23.4659  -13.9000  -15.4751 F       1  UNL1       -0.2370
      9 C         -23.4466  -11.5757  -15.9946 C.3     1  UNL1        0.0714
     10 C         -23.1149  -10.2619  -15.6514 C.3     1  UNL1        0.1761
     11 F         -23.4317   -9.2692  -16.5218 F       1  UNL1       -0.2365
     12 C         -22.4636   -9.9897  -14.4255 C.3     1  UNL1        0.1411
     13 C         -22.1037   -8.6831  -14.0373 C.2     1  UNL1        0.1637
     14 O         -22.3704   -7.7018  -14.7852 O.2     1  UNL1       -0.2956
     15 H         -21.3436  -11.6305  -11.7259 H       1  UNL1        0.2374
     16 C         -20.5699   -9.4037  -10.6295 C.3     1  UNL1        0.0516
     17 C         -19.3374  -10.0113  -10.3574 C.3     1  UNL1        0.0071
     18 C         -18.7449   -9.8765   -9.0989 C.3     1  UNL1        0.0162
     19 C         -19.3795   -9.1379   -8.0806 C.3     1  UNL1        0.0577
     20 C         -20.6265   -8.5442   -8.3584 C.3     1  UNL1        0.0162
     21 C         -21.2168   -8.6809   -9.6175 C.3     1  UNL1        0.0071
     22 N         -18.7667   -8.9961   -6.7774 N.3     1  UNL1       -0.2692
     23 C         -18.9719   -7.8500   -5.9027 C.3     1  UNL1        0.0779
     24 C         -18.0041   -8.0334   -4.7417 C.3     1  UNL1        0.0853
     25 C         -17.6181   -9.5094   -4.7608 C.3     1  UNL1        0.2797
     26 F         -16.2908   -9.6802   -4.4047 F       1  UNL1       -0.2028
     27 F         -18.4251  -10.2162   -3.8837 F       1  UNL1       -0.2028
     28 C         -17.8669   -9.9787   -6.1897 C.3     1  UNL1        0.1394
@<TRIPOS>BOND
     1     1     2    1
     2     2     3    1
     3     3    16    1
     4    16    17    1
     5    17    18    1
     6    18    19    1
     7    19    22    1
     8    22    23    1
     9    23    24    1
    10    24    25    1
    11    25    26    1
    12    25    27    1
    13    25    28    1
    14    19    20    1
    15    20    21    1
    16     3     4    1
    17     4     5    1
    18     5     6    1
    19     6     7    1
    20     7     8    1
    21     7     9    1
    22     9    10    1
    23    10    11    1
    24    10    12    1
    25    12    13    1
    26    13    14    2
    27    13     2    1
    28    21    16    1
    29    12     5    1
    30    28    22    1
    31     4    15    1
@<TRIPOS>MOLECULE
*****
 28 31 0 0 0
SMALL
GASTEIGER

@<TRIPOS>ATOM
      1 C         -20.9282  -12.4399  -11.6179 C.3     1  UNL1        0.0138
      2 C         -21.2534  -11.2395  -12.4792 C.3     1  UNL1        0.1087
      3 C         -21.0475   -9.9197  -12.0101 C.3     1  UNL1        0.0893
      4 N         -21.3955   -8.8593  -12.7938 N.4     1  UNL1        0.3475
      5 C         -21.9040   -9.0177  -14.0476 C.3     1  UNL1        0.0950
      6 C         -22.2367   -7.8910  -14.8172 C.3     1  UNL1        0.0923
      7 C         -22.7474   -8.0425  -16.1067 C.3     1  UNL1        0.1695
      8 F         -23.0657   -6.9485  -16.8420 F       1  UNL1       -0.2370
      9 C         -22.9297   -9.3179  -16.6412 C.3     1  UNL1        0.0714
     10 C         -22.6046  -10.4520  -15.8915 C.3     1  UNL1        0.1761
     11 F         -22.8006  -11.6728  -16.4523 F       1  UNL1       -0.2365
     12 C         -22.0877  -10.3149  -14.5819 C.3     1  UNL1        0.1411
     13 C         -21.7503  -11.4275  -13.7846 C.2     1  UNL1        0.1637
     14 O         -21.8933  -12.5983  -14.2343 O.2     1  UNL1       -0.2956
     15 H         -21.2470   -7.8914  -12.4245 H       1  UNL1        0.2374
     16 C         -20.4639   -9.6486  -10.6756 C.3     1  UNL1        0.0516
     17 C         -21.1303   -8.8034   -9.7791 C.3     1  UNL1        0.0071
     18 C         -20.5791   -8.5268   -8.5250 C.3     1  UNL1        0.0162
     19 C         -19.3417   -9.0831   -8.1448 C.3     1  UNL1        0.0577
     20 C         -18.6710   -9.9188   -9.0594 C.3     1  UNL1        0.0162
     21 C         -19.2243  -10.1934  -10.3128 C.3     1  UNL1        0.0071
     22 N         -18.7702   -8.7990   -6.8460 N.3     1  UNL1       -0.2692
     23 C         -18.0430   -9.7750   -6.0465 C.3     1  UNL1        0.0779
     24 C         -17.7926   -9.1078   -4.7010 C.3     1  UNL1        0.0853
     25 C         -17.9750   -7.6129   -4.9460 C.3     1  UNL1        0.2797
     26 F         -18.5670   -6.9995   -3.8547 F       1  UNL1       -0.2028
     27 F         -16.7449   -7.0251   -5.1938 F       1  UNL1       -0.2028
     28 C         -18.8608   -7.5061   -6.1820 C.3     1  UNL1        0.1394
@<TRIPOS>BOND
     1     1     2    1
     2     2     3    1
     3     3    16    1
     4    16    17    1
     5    17    18    1
     6    18    19    1
     7    19    22    1
     8    22    23    1
     9    23    24    1
    10    24    25    1
    11    25    26    1
    12    25    27    1
    13    25    28    1
    14    19    20    1
    15    20    21    1
    16     3     4    1
    17     4     5    1
    18     5     6    1
    19     6     7    1
    20     7     8    1
    21     7     9    1
    22     9    10    1
    23    10    11    1
    24    10    12    1
    25    12    13    1
    26    13    14    2
    27    13     2    1
    28    21    16    1
    29    12     5    1
    30    28    22    1
    31     4    15    1
@<TRIPOS>MOLECULE
*****
 28 31 0 0 0
SMALL
GASTEIGER

@<TRIPOS>ATOM
      1 C         -23.2830  -10.3934  -10.0352 C.3     1  UNL1        0.0138
      2 C         -22.6816   -9.8090  -11.2943 C.3     1  UNL1        0.1087
      3 C         -21.4293   -9.1490  -11.2740 C.3     1  UNL1        0.0893
      4 N         -20.9376   -8.5918  -12.4175 N.4     1  UNL1        0.3475
      5 C         -21.5921   -8.6798  -13.6089 C.3     1  UNL1        0.0950
      6 C         -21.0364   -8.0965  -14.7593 C.3     1  UNL1        0.0923
      7 C         -21.6933   -8.1910  -15.9866 C.3     1  UNL1        0.1695
      8 F         -21.1488   -7.6245  -17.0917 F       1  UNL1       -0.2370
      9 C         -22.9090   -8.8687  -16.0786 C.3     1  UNL1        0.0714
     10 C         -23.4786   -9.4562  -14.9453 C.3     1  UNL1        0.1761
     11 F         -24.6639  -10.1041  -15.0825 F       1  UNL1       -0.2365
     12 C         -22.8258   -9.3674  -13.6936 C.3     1  UNL1        0.1411
     13 C         -23.3624   -9.9382  -12.5216 C.2     1  UNL1        0.1637
     14 O         -24.4566  -10.5663  -12.5641 O.2     1  UNL1       -0.2956
     15 H         -20.0159   -8.0975  -12.3796 H       1  UNL1        0.2374
     16 C         -20.6269   -9.0371  -10.0336 C.3     1  UNL1        0.0516
     17 C         -19.5469   -9.9029   -9.8184 C.3     1  UNL1        0.0071
     18 C         -18.7951   -9.8174   -8.6434 C.3     1  UNL1        0.0162
     19 C         -19.1152   -8.8685   -7.6523 C.3     1  UNL1        0.0577
     20 C         -20.2131   -8.0131   -7.8703 C.3     1  UNL1        0.0162
     21 C         -20.9633   -8.1010   -9.0459 C.3     1  UNL1        0.0071
     22 N         -18.3369   -8.7777   -6.4357 N.3     1  UNL1       -0.2692
     23 C         -17.7271   -9.9222   -5.7732 C.3     1  UNL1        0.0779
     24 C         -17.1767   -9.3959   -4.4548 C.3     1  UNL1        0.0853
     25 C         -17.0814   -7.8828   -4.6268 C.3     1  UNL1        0.2797
     26 F         -17.3922   -7.2284   -3.4466 F       1  UNL1       -0.2028
     27 F         -15.7995   -7.5359   -5.0222 F       1  UNL1       -0.2028
     28 C         -18.0775   -7.5327   -5.7263 C.3     1  UNL1        0.1394
@<TRIPOS>BOND
     1     1     2    1
     2     2     3    1
     3     3    16    1
     4    16    17    1
     5    17    18    1
     6    18    19    1
     7    19    22    1
     8    22    23    1
     9    23    24    1
    10    24    25    1
    11    25    26    1
    12    25    27    1
    13    25    28    1
    14    19    20    1
    15    20    21    1
    16     3     4    1
    17     4     5    1
    18     5     6    1
    19     6     7    1
    20     7     8    1
    21     7     9    1
    22     9    10    1
    23    10    11    1
    24    10    12    1
    25    12    13    1
    26    13    14    2
    27    13     2    1
    28    21    16    1
    29    12     5    1
    30    28    22    1
    31     4    15    1
@<TRIPOS>MOLECULE
*****
 28 31 0 0 0
SMALL
GASTEIGER

@<TRIPOS>ATOM
      1 C         -30.4300   -4.4497  -13.9250 C.3     1  UNL1        0.0138
      2 C         -29.6094   -4.1844  -15.1678 C.3     1  UNL1        0.1087
      3 C         -28.3284   -4.7619  -15.3410 C.3     1  UNL1        0.0893
      4 N         -27.5948   -4.4644  -16.4515 N.4     1  UNL1        0.3475
      5 C         -28.0666   -3.6531  -17.4388 C.3     1  UNL1        0.0950
      6 C         -27.2737   -3.3871  -18.5671 C.3     1  UNL1        0.0923
      7 C         -27.7524   -2.5667  -19.5890 C.3     1  UNL1        0.1695
      8 F         -26.9794   -2.3157  -20.6744 F       1  UNL1       -0.2370
      9 C         -29.0259   -2.0053  -19.4963 C.3     1  UNL1        0.0714
     10 C         -29.8307   -2.2578  -18.3817 C.3     1  UNL1        0.1761
     11 F         -31.0624   -1.6885  -18.3343 F       1  UNL1       -0.2365
     12 C         -29.3589   -3.0859  -17.3365 C.3     1  UNL1        0.1411
     13 C         -30.1302   -3.3658  -16.1901 C.2     1  UNL1        0.1637
     14 O         -31.2906   -2.8832  -16.0716 O.2     1  UNL1       -0.2956
     15 H         -26.6450   -4.8916  -16.5556 H       1  UNL1        0.2374
     16 C         -27.7481   -5.6867  -14.3396 C.3     1  UNL1        0.0516
     17 C         -26.6037   -5.3137  -13.6231 C.3     1  UNL1        0.0071
     18 C         -26.0380   -6.1864  -12.6895 C.3     1  UNL1        0.0162
     19 C         -26.6007   -7.4576  -12.4603 C.3     1  UNL1        0.0577
     20 C         -27.7419   -7.8304  -13.1975 C.3     1  UNL1        0.0162
     21 C         -28.3052   -6.9559  -14.1306 C.3     1  UNL1        0.0071
     22 N         -26.0171   -8.3619  -11.4930 N.3     1  UNL1       -0.2692
     23 C         -24.9031   -9.2539  -11.7826 C.3     1  UNL1        0.0779
     24 C         -24.7471  -10.1384  -10.5532 C.3     1  UNL1        0.0853
     25 C         -25.4732   -9.4064   -9.4284 C.3     1  UNL1        0.2797
     26 F         -26.1102  -10.3004   -8.5842 F       1  UNL1       -0.2028
     27 F         -24.5683   -8.6503   -8.7007 F       1  UNL1       -0.2028
     28 C         -26.4792   -8.4920  -10.1182 C.3     1  UNL1        0.1394
@<TRIPOS>BOND
     1     1     2    1
     2     2     3    1
     3     3    16    1
     4    16    17    1
     5    17    18    1
     6    18    19    1
     7    19    22    1
     8    22    23    1
     9    23    24    1
    10    24    25    1
    11    25    26    1
    12    25    27    1
    13    25    28    1
    14    19    20    1
    15    20    21    1
    16     3     4    1
    17     4     5    1
    18     5     6    1
    19     6     7    1
    20     7     8    1
    21     7     9    1
    22     9    10    1
    23    10    11    1
    24    10    12    1
    25    12    13    1
    26    13    14    2
    27    13     2    1
    28    21    16    1
    29    12     5    1
    30    28    22    1
    31     4    15    1
@<TRIPOS>MOLECULE
*****
 28 31 0 0 0
SMALL
GASTEIGER

@<TRIPOS>ATOM
      1 C         -27.6617   -7.8316  -10.7052 C.3     1  UNL1        0.0138
      2 C         -26.2081   -8.1135  -11.0147 C.3     1  UNL1        0.1087
      3 C         -25.5986   -7.6237  -12.1950 C.3     1  UNL1        0.0893
      4 N         -24.2992   -7.9358  -12.4672 N.4     1  UNL1        0.3475
      5 C         -23.5363   -8.6781  -11.6171 C.3     1  UNL1        0.0950
      6 C         -22.1997   -8.9626  -11.9410 C.3     1  UNL1        0.0923
      7 C         -21.4067   -9.7123  -11.0716 C.3     1  UNL1        0.1695
      8 F         -20.1173   -9.9817  -11.3931 F       1  UNL1       -0.2370
      9 C         -21.9383  -10.1840   -9.8714 C.3     1  UNL1        0.0714
     10 C         -23.2663   -9.9117   -9.5307 C.3     1  UNL1        0.1761
     11 F         -23.7408  -10.3928   -8.3530 F       1  UNL1       -0.2365
     12 C         -24.0835   -9.1546  -10.4024 C.3     1  UNL1        0.1411
     13 C         -25.4296   -8.8584  -10.1062 C.2     1  UNL1        0.1637
     14 O         -25.9460   -9.2605   -9.0267 O.2     1  UNL1       -0.2956
     15 H         -23.8701   -7.5744  -13.3507 H       1  UNL1        0.2374
     16 C         -26.3372   -6.7764  -13.1601 C.3     1  UNL1        0.0516
     17 C         -25.7776   -5.5717  -13.6048 C.3     1  UNL1        0.0071
     18 C         -26.4742   -4.7565  -14.5010 C.3     1  UNL1        0.0162
     19 C         -27.7528   -5.1253  -14.9641 C.3     1  UNL1        0.0577
     20 C         -28.3144   -6.3306  -14.4986 C.3     1  UNL1        0.0162
     21 C         -27.6157   -7.1436  -13.6022 C.3     1  UNL1        0.0071
     22 N         -28.4749   -4.2831  -15.8933 N.3     1  UNL1       -0.2692
     23 C         -27.8354   -3.4581  -16.9087 C.3     1  UNL1        0.0779
     24 C         -28.9457   -2.6142  -17.5197 C.3     1  UNL1        0.0853
     25 C         -30.2462   -3.3238  -17.1548 C.3     1  UNL1        0.2797
     26 F         -31.2537   -2.4105  -16.8929 F       1  UNL1       -0.2028
     27 F         -30.6351   -4.1532  -18.1944 F       1  UNL1       -0.2028
     28 C         -29.9252   -4.1554  -15.9181 C.3     1  UNL1        0.1394
@<TRIPOS>BOND
     1     1     2    1
     2     2     3    1
     3     3    16    1
     4    16    17    1
     5    17    18    1
     6    18    19    1
     7    19    22    1
     8    22    23    1
     9    23    24    1
    10    24    25    1
    11    25    26    1
    12    25    27    1
    13    25    28    1
    14    19    20    1
    15    20    21    1
    16     3     4    1
    17     4     5    1
    18     5     6    1
    19     6     7    1
    20     7     8    1
    21     7     9    1
    22     9    10    1
    23    10    11    1
    24    10    12    1
    25    12    13    1
    26    13    14    2
    27    13     2    1
    28    21    16    1
    29    12     5    1
    30    28    22    1
    31     4    15    1
@<TRIPOS>MOLECULE
*****
 28 31 0 0 0
SMALL
GASTEIGER

@<TRIPOS>ATOM
      1 C         -17.7589  -11.6806   -9.5760 C.3     1  UNL1        0.0138
      2 C         -18.1259  -10.6784   -8.5039 C.3     1  UNL1        0.1087
      3 C         -19.0771   -9.6579   -8.7452 C.3     1  UNL1        0.0893
      4 N         -19.3502   -8.7416   -7.7727 N.4     1  UNL1        0.3475
      5 C         -18.7669   -8.7910   -6.5427 C.3     1  UNL1        0.0950
      6 C         -19.0912   -7.8279   -5.5733 C.3     1  UNL1        0.0923
      7 C         -18.5079   -7.8766   -4.3068 C.3     1  UNL1        0.1695
      8 F         -18.8274   -6.9422   -3.3776 F       1  UNL1       -0.2370
      9 C         -17.5974   -8.8861   -3.9947 C.3     1  UNL1        0.0714
     10 C         -17.2614   -9.8542   -4.9455 C.3     1  UNL1        0.1761
     11 F         -16.3694  -10.8166   -4.5972 F       1  UNL1       -0.2365
     12 C         -17.8428   -9.8172   -6.2344 C.3     1  UNL1        0.1411
     13 C         -17.5321  -10.7670   -7.2289 C.2     1  UNL1        0.1637
     14 O         -16.7187  -11.7007   -6.9838 O.2     1  UNL1       -0.2956
     15 H         -20.0473   -7.9874   -7.9744 H       1  UNL1        0.2374
     16 C         -19.7911   -9.5473  -10.0385 C.3     1  UNL1        0.0516
     17 C         -19.6914   -8.3724  -10.7947 C.3     1  UNL1        0.0071
     18 C         -20.3758   -8.2514  -12.0072 C.3     1  UNL1        0.0162
     19 C         -21.1845   -9.3017  -12.4844 C.3     1  UNL1        0.0577
     20 C         -21.2918  -10.4730  -11.7091 C.3     1  UNL1        0.0162
     21 C         -20.6066  -10.5912  -10.4970 C.3     1  UNL1        0.0071
     22 N         -21.8927   -9.1786  -13.7404 N.3     1  UNL1       -0.2692
     23 C         -22.9226  -10.1060  -14.1874 C.3     1  UNL1        0.0779
     24 C         -23.2515   -9.7050  -15.6189 C.3     1  UNL1        0.0853
     25 C         -22.7345   -8.2777  -15.7724 C.3     1  UNL1        0.2797
     26 F         -22.2188   -8.0701  -17.0408 F       1  UNL1       -0.2028
     27 F         -23.7634   -7.3791  -15.5406 F       1  UNL1       -0.2028
     28 C         -21.6544   -8.1174  -14.7087 C.3     1  UNL1        0.1394
@<TRIPOS>BOND
     1     1     2    1
     2     2     3    1
     3     3    16    1
     4    16    17    1
     5    17    18    1
     6    18    19    1
     7    19    22    1
     8    22    23    1
     9    23    24    1
    10    24    25    1
    11    25    26    1
    12    25    27    1
    13    25    28    1
    14    19    20    1
    15    20    21    1
    16     3     4    1
    17     4     5    1
    18     5     6    1
    19     6     7    1
    20     7     8    1
    21     7     9    1
    22     9    10    1
    23    10    11    1
    24    10    12    1
    25    12    13    1
    26    13    14    2
    27    13     2    1
    28    21    16    1
    29    12     5    1
    30    28    22    1
    31     4    15    1
