@<TRIPOS>MOLECULE
*****
 51 57 0 0 0
SMALL
GASTEIGER

@<TRIPOS>ATOM
      1 C          59.1113   85.3099   13.1958 C.ar    1  UNL1        0.0481
      2 C          58.0585   85.4494   12.2783 C.ar    1  UNL1        0.0176
      3 C          57.6787   84.3761   11.4697 C.ar    1  UNL1        0.0382
      4 C          58.3468   83.1486   11.5474 C.ar    1  UNL1        0.1388
      5 C          59.3952   83.0029   12.4782 C.ar    1  UNL1        0.0382
      6 C          59.7761   84.0774   13.2873 C.ar    1  UNL1        0.0176
      7 N          61.0197   88.7217   14.2704 N.pl3   1  UNL1       -0.3041
      8 C          61.2073   87.7032   15.3137 C.3     1  UNL1        0.1122
      9 C          60.7765   86.3319   14.7804 C.3     1  UNL1        0.1122
     10 N          59.5277   86.4259   14.0060 N.pl3   1  UNL1       -0.3041
     11 C          58.7795   87.6910   13.9870 C.3     1  UNL1        0.1122
     12 C          59.7168   88.8389   13.5945 C.3     1  UNL1        0.1122
     13 C          64.2963   91.1310   12.9905 C.ar    1  UNL1        0.0699
     14 C          63.3066   90.7281   12.0781 C.ar    1  UNL1        0.0190
     15 C          62.2322   89.9391   12.4978 C.ar    1  UNL1        0.0160
     16 C          62.1188   89.5479   13.8410 C.ar    1  UNL1        0.0480
     17 C          63.1057   89.9515   14.7547 C.ar    1  UNL1        0.0160
     18 C          64.1818   90.7382   14.3350 C.ar    1  UNL1        0.0190
     19 N          66.7449   93.2560   11.3572 N.ar    1  UNL1       -0.2024
     20 N          67.3407   93.0571   12.5235 N.ar    1  UNL1       -0.1442
     21 C          66.5175   92.2644   13.2435 C.ar    1  UNL1        0.2073
     22 N          65.4001   91.9463   12.5513 N.ar    1  UNL1       -0.2398
     23 C          65.5741   92.5890   11.3795 C.ar    1  UNL1        0.3522
     24 O          64.7347   92.5966   10.4390 O.2     1  UNL1       -0.2444
     25 C          67.3082   94.0842   10.2843 C.3     1  UNL1        0.1099
     26 C          66.1960   94.8924    9.6023 C.3     1  UNL1        0.0265
     27 C          68.4399   91.8305    9.8613 C.3     1  UNL1        0.0021
     28 C          68.0947   93.2054    9.2890 C.3     1  UNL1        0.0245
     29 O          57.9345   82.1202   10.6806 O.3     1  UNL1       -0.4727
     30 C          58.3493   81.9296    9.3244 C.3     1  UNL1        0.2374
     31 C          59.0701   83.1638    8.7599 C.3     1  UNL1        0.1909
     32 C          59.8183   82.9208    7.4827 C.3     1  UNL1        0.1783
     33 O          60.9017   83.7924    7.5131 O.3     1  UNL1       -0.3271
     34 C          61.0461   84.2038    8.8620 C.3     1  UNL1        0.2232
     35 O          60.0207   83.6387    9.6579 O.3     1  UNL1       -0.3258
     36 C          60.9877   85.7322    8.9512 C.ar    1  UNL1        0.0404
     37 C          62.1177   86.4518    9.3990 C.ar    1  UNL1        0.0021
     38 C          62.0868   87.8432    9.5087 C.ar    1  UNL1        0.0113
     39 C          60.9252   88.5457    9.1931 C.ar    1  UNL1        0.0585
     40 CL         60.8902   90.2938    9.3353 Cl      1  UNL1       -0.0822
     41 C          59.7859   87.8553    8.7790 C.ar    1  UNL1        0.0226
     42 C          59.7999   86.4594    8.6648 C.ar    1  UNL1        0.0591
     43 CL         58.2901   85.6809    8.1921 Cl      1  UNL1       -0.0824
     44 C          62.4162   83.7146    9.3690 C.3     1  UNL1        0.1338
     45 N          62.2974   83.2418   10.7708 N.3     1  UNL1       -0.2659
     46 C          63.0087   84.0892   11.7573 C.3     1  UNL1        0.0896
     47 C          64.4033   83.5450   12.1328 C.3     1  UNL1        0.0862
     48 N          64.9695   82.7247   11.0586 N.3     1  UNL1       -0.2951
     49 C          64.1388   81.5395   10.7892 C.3     1  UNL1        0.0862
     50 C          62.6234   81.8124   10.9299 C.3     1  UNL1        0.0896
     51 H          65.0418   83.3052   10.1904 H       1  UNL1        0.1233
@<TRIPOS>BOND
     1    27    28    1
     2    28    25    1
     3    25    26    1
     4    25    19    1
     5    19    20   ar
     6    20    21   ar
     7    21    22   ar
     8    22    13    1
     9    13    14   ar
    10    14    15   ar
    11    15    16   ar
    12    16     7    1
    13     7     8    1
    14     8     9    1
    15     9    10    1
    16    10     1    1
    17     1     2   ar
    18     2     3   ar
    19     3     4   ar
    20     4    29    1
    21    29    30    1
    22    30    31    1
    23    31    32    1
    24    32    33    1
    25    33    34    1
    26    34    44    1
    27    44    45    1
    28    45    46    1
    29    46    47    1
    30    47    48    1
    31    48    49    1
    32    49    50    1
    33    34    36    1
    34    36    37   ar
    35    37    38   ar
    36    38    39   ar
    37    39    40    1
    38    39    41   ar
    39    41    42   ar
    40    42    43    1
    41    34    35    1
    42     4     5   ar
    43     5     6   ar
    44    10    11    1
    45    11    12    1
    46    16    17   ar
    47    17    18   ar
    48    22    23   ar
    49    23    24    2
    50    23    19   ar
    51    18    13   ar
    52    12     7    1
    53     6     1   ar
    54    35    31    1
    55    50    45    1
    56    42    36   ar
    57    48    51    1
@<TRIPOS>MOLECULE
*****
 51 57 0 0 0
SMALL
GASTEIGER

@<TRIPOS>ATOM
      1 C          58.7056   84.8389   12.9831 C.ar    1  UNL1        0.0481
      2 C          57.8152   85.0386   11.9167 C.ar    1  UNL1        0.0176
      3 C          57.4800   83.9813   11.0683 C.ar    1  UNL1        0.0382
      4 C          58.0340   82.7095   11.2546 C.ar    1  UNL1        0.1388
      5 C          58.9176   82.5042   12.3336 C.ar    1  UNL1        0.0382
      6 C          59.2538   83.5626   13.1826 C.ar    1  UNL1        0.0176
      7 N          60.5494   88.2287   14.2269 N.pl3   1  UNL1       -0.3041
      8 C          60.6920   87.1857   15.2531 C.3     1  UNL1        0.1122
      9 C          60.2915   85.8266   14.6676 C.3     1  UNL1        0.1122
     10 N          59.0797   85.9361   13.8384 N.pl3   1  UNL1       -0.3041
     11 C          58.3285   87.1993   13.8149 C.3     1  UNL1        0.1122
     12 C          59.2789   88.3588   13.4941 C.3     1  UNL1        0.1122
     13 C          63.8255   90.7476   13.1779 C.ar    1  UNL1        0.0699
     14 C          63.6835   90.2705   14.4918 C.ar    1  UNL1        0.0190
     15 C          62.6101   89.4442   14.8355 C.ar    1  UNL1        0.0160
     16 C          61.6642   89.0677   13.8691 C.ar    1  UNL1        0.0480
     17 C          61.8059   89.5416   12.5550 C.ar    1  UNL1        0.0160
     18 C          62.8776   90.3702   12.2115 C.ar    1  UNL1        0.0190
     19 N          66.3459   92.9298   11.7411 N.ar    1  UNL1       -0.2024
     20 N          66.8218   92.7910   12.9694 N.ar    1  UNL1       -0.1442
     21 C          65.9594   91.9840   13.6250 C.ar    1  UNL1        0.2073
     22 N          64.9359   91.5974   12.8302 N.ar    1  UNL1       -0.2398
     23 C          65.2074   92.2131   11.6624 C.ar    1  UNL1        0.3522
     24 O          64.4732   92.1568   10.6392 O.2     1  UNL1       -0.2444
     25 C          66.9861   93.7506   10.7063 C.3     1  UNL1        0.1099
     26 C          66.0509   94.8919   10.2844 C.3     1  UNL1        0.0265
     27 C          68.9191   92.5926    9.4973 C.3     1  UNL1        0.0021
     28 C          67.4155   92.8682    9.5153 C.3     1  UNL1        0.0245
     29 O          57.6790   81.6983   10.3435 O.3     1  UNL1       -0.4727
     30 C          58.1432   81.5616    8.9967 C.3     1  UNL1        0.2374
     31 C          58.9113   82.8040    8.5195 C.3     1  UNL1        0.1909
     32 C          59.7295   82.5950    7.2798 C.3     1  UNL1        0.1783
     33 O          60.8203   83.4489    7.4041 O.3     1  UNL1       -0.3271
     34 C          60.8911   83.8105    8.7730 C.3     1  UNL1        0.2232
     35 O          59.8139   83.2330    9.4874 O.3     1  UNL1       -0.3258
     36 C          60.8470   85.3355    8.9135 C.ar    1  UNL1        0.0404
     37 C          59.6188   85.9792    9.1828 C.ar    1  UNL1        0.0021
     38 C          59.5453   87.3687    9.2968 C.ar    1  UNL1        0.0113
     39 C          60.6886   88.1476    9.1266 C.ar    1  UNL1        0.0585
     40 CL         60.5907   89.8934    9.2678 Cl      1  UNL1       -0.0822
     41 C          61.9073   87.5378    8.8284 C.ar    1  UNL1        0.0226
     42 C          61.9979   86.1452    8.7095 C.ar    1  UNL1        0.0591
     43 CL         63.5713   85.4811    8.2707 Cl      1  UNL1       -0.0824
     44 C          62.2230   83.2836    9.3405 C.3     1  UNL1        0.1338
     45 N          62.0886   83.0342   10.7974 N.3     1  UNL1       -0.2659
     46 C          62.6539   84.1075   11.6493 C.3     1  UNL1        0.0896
     47 C          64.0798   83.7974   12.1518 C.3     1  UNL1        0.0862
     48 N          64.7842   82.8850   11.2471 N.3     1  UNL1       -0.2951
     49 C          64.1026   81.5833   11.1547 C.3     1  UNL1        0.0862
     50 C          62.5614   81.6974   11.2025 C.3     1  UNL1        0.0896
     51 H          64.8345   83.3211   10.2966 H       1  UNL1        0.1233
@<TRIPOS>BOND
     1    27    28    1
     2    28    25    1
     3    25    26    1
     4    25    19    1
     5    19    20   ar
     6    20    21   ar
     7    21    22   ar
     8    22    13    1
     9    13    14   ar
    10    14    15   ar
    11    15    16   ar
    12    16     7    1
    13     7     8    1
    14     8     9    1
    15     9    10    1
    16    10     1    1
    17     1     2   ar
    18     2     3   ar
    19     3     4   ar
    20     4    29    1
    21    29    30    1
    22    30    31    1
    23    31    32    1
    24    32    33    1
    25    33    34    1
    26    34    44    1
    27    44    45    1
    28    45    46    1
    29    46    47    1
    30    47    48    1
    31    48    49    1
    32    49    50    1
    33    34    36    1
    34    36    37   ar
    35    37    38   ar
    36    38    39   ar
    37    39    40    1
    38    39    41   ar
    39    41    42   ar
    40    42    43    1
    41    34    35    1
    42     4     5   ar
    43     5     6   ar
    44    10    11    1
    45    11    12    1
    46    16    17   ar
    47    17    18   ar
    48    22    23   ar
    49    23    24    2
    50    23    19   ar
    51    18    13   ar
    52    12     7    1
    53     6     1   ar
    54    35    31    1
    55    50    45    1
    56    42    36   ar
    57    48    51    1
@<TRIPOS>MOLECULE
*****
 51 57 0 0 0
SMALL
GASTEIGER

@<TRIPOS>ATOM
      1 C          58.1257   83.7941   11.8083 C.ar    1  UNL1        0.0481
      2 C          57.9163   83.0806   10.6179 C.ar    1  UNL1        0.0176
      3 C          58.0176   81.6879   10.6014 C.ar    1  UNL1        0.0382
      4 C          58.3426   80.9791   11.7637 C.ar    1  UNL1        0.1388
      5 C          58.5394   81.6933   12.9629 C.ar    1  UNL1        0.0382
      6 C          58.4388   83.0874   12.9796 C.ar    1  UNL1        0.0176
      7 N          59.3141   87.6520   12.1840 N.pl3   1  UNL1       -0.3041
      8 C          58.0841   87.4379   12.9602 C.3     1  UNL1        0.1122
      9 C          57.8106   85.9350   13.0909 C.3     1  UNL1        0.1122
     10 N          58.0561   85.2329   11.8202 N.pl3   1  UNL1       -0.3041
     11 C          58.3307   86.0103   10.6032 C.3     1  UNL1        0.1122
     12 C          59.4674   87.0036   10.8710 C.3     1  UNL1        0.1122
     13 C          62.5728   89.8845   13.7887 C.ar    1  UNL1        0.0699
     14 C          62.2243   90.0037   12.4328 C.ar    1  UNL1        0.0190
     15 C          61.1556   89.2726   11.9070 C.ar    1  UNL1        0.0160
     16 C          60.4058   88.4173   12.7294 C.ar    1  UNL1        0.0480
     17 C          60.7512   88.2986   14.0853 C.ar    1  UNL1        0.0160
     18 C          61.8215   89.0275   14.6109 C.ar    1  UNL1        0.0190
     19 N          65.4899   91.9109   14.5391 N.ar    1  UNL1       -0.2024
     20 N          65.0771   91.6228   15.7643 N.ar    1  UNL1       -0.1442
     21 C          63.9737   90.8561   15.6260 C.ar    1  UNL1        0.2073
     22 N          63.6745   90.6429   14.3245 N.ar    1  UNL1       -0.2398
     23 C          64.6398   91.3227   13.6745 C.ar    1  UNL1        0.3522
     24 O          64.7178   91.4265   12.4206 O.2     1  UNL1       -0.2444
     25 C          66.6618   92.7454   14.2484 C.3     1  UNL1        0.1099
     26 C          67.6609   91.9684   13.3806 C.3     1  UNL1        0.0265
     27 C          68.6143   92.5622   15.8895 C.3     1  UNL1        0.0021
     28 C          67.2922   93.2560   15.5612 C.3     1  UNL1        0.0245
     29 O          58.4609   79.5806   11.6689 O.3     1  UNL1       -0.4727
     30 C          59.6080   78.8493   11.2246 C.3     1  UNL1        0.2374
     31 C          60.6119   79.7426   10.4794 C.3     1  UNL1        0.1909
     32 C          61.9431   79.1029   10.2172 C.3     1  UNL1        0.1783
     33 O          62.8674   80.1419   10.2396 O.3     1  UNL1       -0.3271
     34 C          62.2299   81.2304   10.8863 C.3     1  UNL1        0.2232
     35 O          60.8943   80.8916   11.2113 O.3     1  UNL1       -0.3258
     36 C          62.2442   82.4612    9.9739 C.ar    1  UNL1        0.0404
     37 C          61.1256   82.7420    9.1583 C.ar    1  UNL1        0.0021
     38 C          61.1185   83.8455    8.3031 C.ar    1  UNL1        0.0113
     39 C          62.2312   84.6814    8.2278 C.ar    1  UNL1        0.0585
     40 CL         62.2187   86.0650    7.1495 Cl      1  UNL1       -0.0822
     41 C          63.3605   84.4070    8.9997 C.ar    1  UNL1        0.0226
     42 C          63.3843   83.3035    9.8618 C.ar    1  UNL1        0.0591
     43 CL         64.8817   83.0122   10.7462 Cl      1  UNL1       -0.0824
     44 C          63.0078   81.5435   12.1786 C.3     1  UNL1        0.1338
     45 N          62.0670   81.9685   13.2449 N.3     1  UNL1       -0.2659
     46 C          62.0646   83.4283   13.5027 C.3     1  UNL1        0.0896
     47 C          62.9489   83.8358   14.7001 C.3     1  UNL1        0.0862
     48 N          64.0290   82.8715   14.9259 N.3     1  UNL1       -0.2951
     49 C          63.5015   81.5373   15.2562 C.3     1  UNL1        0.0862
     50 C          62.2071   81.1860   14.4870 C.3     1  UNL1        0.0896
     51 H          64.6160   82.8107   14.0612 H       1  UNL1        0.1233
@<TRIPOS>BOND
     1    27    28    1
     2    28    25    1
     3    25    26    1
     4    25    19    1
     5    19    20   ar
     6    20    21   ar
     7    21    22   ar
     8    22    13    1
     9    13    14   ar
    10    14    15   ar
    11    15    16   ar
    12    16     7    1
    13     7     8    1
    14     8     9    1
    15     9    10    1
    16    10     1    1
    17     1     2   ar
    18     2     3   ar
    19     3     4   ar
    20     4    29    1
    21    29    30    1
    22    30    31    1
    23    31    32    1
    24    32    33    1
    25    33    34    1
    26    34    44    1
    27    44    45    1
    28    45    46    1
    29    46    47    1
    30    47    48    1
    31    48    49    1
    32    49    50    1
    33    34    36    1
    34    36    37   ar
    35    37    38   ar
    36    38    39   ar
    37    39    40    1
    38    39    41   ar
    39    41    42   ar
    40    42    43    1
    41    34    35    1
    42     4     5   ar
    43     5     6   ar
    44    10    11    1
    45    11    12    1
    46    16    17   ar
    47    17    18   ar
    48    22    23   ar
    49    23    24    2
    50    23    19   ar
    51    18    13   ar
    52    12     7    1
    53     6     1   ar
    54    35    31    1
    55    50    45    1
    56    42    36   ar
    57    48    51    1
@<TRIPOS>MOLECULE
*****
 51 57 0 0 0
SMALL
GASTEIGER

@<TRIPOS>ATOM
      1 C          59.3335   84.3443    8.2585 C.ar    1  UNL1        0.0481
      2 C          59.9124   83.1338    7.8470 C.ar    1  UNL1        0.0176
      3 C          59.2662   81.9209    8.0949 C.ar    1  UNL1        0.0382
      4 C          58.0399   81.8867    8.7687 C.ar    1  UNL1        0.1388
      5 C          57.4506   83.1027    9.1701 C.ar    1  UNL1        0.0382
      6 C          58.0976   84.3169    8.9228 C.ar    1  UNL1        0.0176
      7 N          61.6101   87.6159    9.0006 N.pl3   1  UNL1       -0.3041
      8 C          60.3384   88.0292    8.3899 C.3     1  UNL1        0.1122
      9 C          59.3523   86.8555    8.4052 C.3     1  UNL1        0.1122
     10 N          60.0147   85.5937    8.0349 N.pl3   1  UNL1       -0.3041
     11 C          61.3991   85.6190    7.5414 C.3     1  UNL1        0.1122
     12 C          62.2830   86.3960    8.5240 C.3     1  UNL1        0.1122
     13 C          63.2826   89.7547   12.2879 C.ar    1  UNL1        0.0699
     14 C          62.9109   90.4284   11.1124 C.ar    1  UNL1        0.0190
     15 C          62.3619   89.7275   10.0352 C.ar    1  UNL1        0.0160
     16 C          62.1616   88.3406   10.1167 C.ar    1  UNL1        0.0480
     17 C          62.5304   87.6659   11.2916 C.ar    1  UNL1        0.0160
     18 C          63.0820   88.3660   12.3681 C.ar    1  UNL1        0.0190
     19 N          65.1329   91.7817   14.6642 N.ar    1  UNL1       -0.2024
     20 N          64.1540   91.3385   15.4389 N.ar    1  UNL1       -0.1442
     21 C          63.3758   90.5546   14.6615 C.ar    1  UNL1        0.2073
     22 N          63.8461   90.4840   13.3955 N.ar    1  UNL1       -0.2398
     23 C          64.9413   91.2685   13.4330 C.ar    1  UNL1        0.3522
     24 O          65.6723   91.5203   12.4373 O.2     1  UNL1       -0.2444
     25 C          66.1932   92.6853   15.1263 C.3     1  UNL1        0.1099
     26 C          66.4751   93.7555   14.0631 C.3     1  UNL1        0.0265
     27 C          68.6414   92.7746   15.8595 C.3     1  UNL1        0.0021
     28 C          67.4546   91.8796   15.5021 C.3     1  UNL1        0.0245
     29 O          57.4602   80.6289    9.0146 O.3     1  UNL1       -0.4727
     30 C          57.6134   79.8347   10.1952 C.3     1  UNL1        0.2374
     31 C          58.8594   80.2308   11.0024 C.3     1  UNL1        0.1909
     32 C          58.8535   79.7669   12.4289 C.3     1  UNL1        0.1783
     33 O          59.5646   80.7296   13.1375 O.3     1  UNL1       -0.3271
     34 C          59.6156   81.8791   12.3095 C.3     1  UNL1        0.2232
     35 O          58.9916   81.6143   11.0665 O.3     1  UNL1       -0.3258
     36 C          61.0727   82.2930   12.0794 C.ar    1  UNL1        0.0404
     37 C          61.4738   82.7701   10.8118 C.ar    1  UNL1        0.0021
     38 C          62.7987   83.1361   10.5678 C.ar    1  UNL1        0.0113
     39 C          63.7557   83.0172   11.5741 C.ar    1  UNL1        0.0585
     40 CL         65.4199   83.4756   11.2619 Cl      1  UNL1       -0.0822
     41 C          63.3910   82.5186   12.8250 C.ar    1  UNL1        0.0226
     42 C          62.0663   82.1459   13.0857 C.ar    1  UNL1        0.0591
     43 CL         61.7245   81.4712   14.6786 Cl      1  UNL1       -0.0824
     44 C          58.8675   83.0199   13.0253 C.3     1  UNL1        0.1338
     45 N          58.8406   84.2269   12.1621 N.3     1  UNL1       -0.2659
     46 C          59.9687   85.1606   12.3926 C.3     1  UNL1        0.0896
     47 C          59.6058   86.3334   13.3280 C.3     1  UNL1        0.0862
     48 N          58.5144   85.9788   14.2393 N.3     1  UNL1       -0.2951
     49 C          57.2796   85.6589   13.5043 C.3     1  UNL1        0.0862
     50 C          57.5377   84.9176   12.1721 C.3     1  UNL1        0.0896
     51 H          58.8048   85.1513   14.8110 H       1  UNL1        0.1233
@<TRIPOS>BOND
     1    27    28    1
     2    28    25    1
     3    25    26    1
     4    25    19    1
     5    19    20   ar
     6    20    21   ar
     7    21    22   ar
     8    22    13    1
     9    13    14   ar
    10    14    15   ar
    11    15    16   ar
    12    16     7    1
    13     7     8    1
    14     8     9    1
    15     9    10    1
    16    10     1    1
    17     1     2   ar
    18     2     3   ar
    19     3     4   ar
    20     4    29    1
    21    29    30    1
    22    30    31    1
    23    31    32    1
    24    32    33    1
    25    33    34    1
    26    34    44    1
    27    44    45    1
    28    45    46    1
    29    46    47    1
    30    47    48    1
    31    48    49    1
    32    49    50    1
    33    34    36    1
    34    36    37   ar
    35    37    38   ar
    36    38    39   ar
    37    39    40    1
    38    39    41   ar
    39    41    42   ar
    40    42    43    1
    41    34    35    1
    42     4     5   ar
    43     5     6   ar
    44    10    11    1
    45    11    12    1
    46    16    17   ar
    47    17    18   ar
    48    22    23   ar
    49    23    24    2
    50    23    19   ar
    51    18    13   ar
    52    12     7    1
    53     6     1   ar
    54    35    31    1
    55    50    45    1
    56    42    36   ar
    57    48    51    1
@<TRIPOS>MOLECULE
*****
 51 57 0 0 0
SMALL
GASTEIGER

@<TRIPOS>ATOM
      1 C          58.1504   83.6889   11.6857 C.ar    1  UNL1        0.0481
      2 C          57.9451   82.8907   10.5498 C.ar    1  UNL1        0.0176
      3 C          58.0900   81.5038   10.6248 C.ar    1  UNL1        0.0382
      4 C          58.4554   80.8853   11.8261 C.ar    1  UNL1        0.1388
      5 C          58.6483   81.6845   12.9711 C.ar    1  UNL1        0.0382
      6 C          58.5040   83.0729   12.8961 C.ar    1  UNL1        0.0176
      7 N          59.2591   87.5815   11.4491 N.pl3   1  UNL1       -0.3041
      8 C          58.2692   87.4160   12.5233 C.3     1  UNL1        0.1122
      9 C          58.0897   85.9257   12.8353 C.3     1  UNL1        0.1122
     10 N          58.0357   85.1225   11.6024 N.pl3   1  UNL1       -0.3041
     11 C          57.9713   85.7984   10.2986 C.3     1  UNL1        0.1122
     12 C          59.1034   86.8270   10.1943 C.3     1  UNL1        0.1122
     13 C          62.6970   90.0279   12.0608 C.ar    1  UNL1        0.0699
     14 C          62.7534   88.6443   12.2989 C.ar    1  UNL1        0.0190
     15 C          61.6267   87.8423   12.0976 C.ar    1  UNL1        0.0160
     16 C          60.4246   88.4057   11.6417 C.ar    1  UNL1        0.0480
     17 C          60.3671   89.7879   11.4010 C.ar    1  UNL1        0.0160
     18 C          61.4928   90.5907   11.6048 C.ar    1  UNL1        0.0190
     19 N          65.5660   92.2508   11.9805 N.ar    1  UNL1       -0.2024
     20 N          65.5935   91.8704   13.2491 N.ar    1  UNL1       -0.1442
     21 C          64.5557   91.0223   13.4168 C.ar    1  UNL1        0.2073
     22 N          63.8631   90.8483   12.2684 N.ar    1  UNL1       -0.2398
     23 C          64.5196   91.6366   11.3942 C.ar    1  UNL1        0.3522
     24 O          64.1784   91.8071   10.1927 O.2     1  UNL1       -0.2444
     25 C          66.5245   93.1929   11.3906 C.3     1  UNL1        0.1099
     26 C          65.7806   94.3813   10.7667 C.3     1  UNL1        0.0265
     27 C          68.0556   93.4171    9.3547 C.3     1  UNL1        0.0021
     28 C          67.4318   92.4656   10.3759 C.3     1  UNL1        0.0245
     29 O          58.6163   79.4879   11.8231 O.3     1  UNL1       -0.4727
     30 C          59.7327   78.7584   11.3041 C.3     1  UNL1        0.2374
     31 C          60.7127   79.6638   10.5416 C.3     1  UNL1        0.1909
     32 C          62.0553   79.0492   10.2779 C.3     1  UNL1        0.1783
     33 O          62.9576   80.1076   10.2819 O.3     1  UNL1       -0.3271
     34 C          62.3014   81.1900   10.9200 C.3     1  UNL1        0.2232
     35 O          60.9754   80.8270   11.2581 O.3     1  UNL1       -0.3258
     36 C          62.2838   82.4100    9.9932 C.ar    1  UNL1        0.0404
     37 C          61.1552   82.6561    9.1802 C.ar    1  UNL1        0.0021
     38 C          61.1192   83.7489    8.3122 C.ar    1  UNL1        0.0113
     39 C          62.2126   84.6084    8.2212 C.ar    1  UNL1        0.0585
     40 CL         62.1639   85.9785    7.1268 Cl      1  UNL1       -0.0822
     41 C          63.3515   84.3684    8.9903 C.ar    1  UNL1        0.0226
     42 C          63.4042   83.2760    9.8652 C.ar    1  UNL1        0.0591
     43 CL         64.9121   83.0286   10.7452 Cl      1  UNL1       -0.0824
     44 C          63.0810   81.5348   12.2033 C.3     1  UNL1        0.1338
     45 N          62.1336   81.8516   13.3010 N.3     1  UNL1       -0.2659
     46 C          62.0850   83.2884   13.6621 C.3     1  UNL1        0.0896
     47 C          62.9632   83.6387   14.8820 C.3     1  UNL1        0.0862
     48 N          64.0757   82.6972   15.0341 N.3     1  UNL1       -0.2951
     49 C          63.5941   81.3261   15.2707 C.3     1  UNL1        0.0862
     50 C          62.3070   80.9878   14.4835 C.3     1  UNL1        0.0896
     51 H          64.6588   82.7174   14.1649 H       1  UNL1        0.1233
@<TRIPOS>BOND
     1    27    28    1
     2    28    25    1
     3    25    26    1
     4    25    19    1
     5    19    20   ar
     6    20    21   ar
     7    21    22   ar
     8    22    13    1
     9    13    14   ar
    10    14    15   ar
    11    15    16   ar
    12    16     7    1
    13     7     8    1
    14     8     9    1
    15     9    10    1
    16    10     1    1
    17     1     2   ar
    18     2     3   ar
    19     3     4   ar
    20     4    29    1
    21    29    30    1
    22    30    31    1
    23    31    32    1
    24    32    33    1
    25    33    34    1
    26    34    44    1
    27    44    45    1
    28    45    46    1
    29    46    47    1
    30    47    48    1
    31    48    49    1
    32    49    50    1
    33    34    36    1
    34    36    37   ar
    35    37    38   ar
    36    38    39   ar
    37    39    40    1
    38    39    41   ar
    39    41    42   ar
    40    42    43    1
    41    34    35    1
    42     4     5   ar
    43     5     6   ar
    44    10    11    1
    45    11    12    1
    46    16    17   ar
    47    17    18   ar
    48    22    23   ar
    49    23    24    2
    50    23    19   ar
    51    18    13   ar
    52    12     7    1
    53     6     1   ar
    54    35    31    1
    55    50    45    1
    56    42    36   ar
    57    48    51    1
@<TRIPOS>MOLECULE
*****
 51 57 0 0 0
SMALL
GASTEIGER

@<TRIPOS>ATOM
      1 C          58.7345   84.9712   12.7541 C.ar    1  UNL1        0.0481
      2 C          57.8418   85.2471   11.7068 C.ar    1  UNL1        0.0176
      3 C          57.5579   84.2750   10.7453 C.ar    1  UNL1        0.0382
      4 C          58.1663   83.0156   10.7981 C.ar    1  UNL1        0.1388
      5 C          59.0523   82.7324   11.8572 C.ar    1  UNL1        0.0382
      6 C          59.3372   83.7055   12.8194 C.ar    1  UNL1        0.0176
      7 N          60.5187   88.2070   14.4223 N.pl3   1  UNL1       -0.3041
      8 C          60.5702   87.0774   15.3617 C.3     1  UNL1        0.1122
      9 C          60.1992   85.7812   14.6320 C.3     1  UNL1        0.1122
     10 N          59.0555   85.9838   13.7271 N.pl3   1  UNL1       -0.3041
     11 C          58.3235   87.2582   13.7574 C.3     1  UNL1        0.1122
     12 C          59.3094   88.4231   13.6106 C.3     1  UNL1        0.1122
     13 C          63.9435   90.6752   13.8243 C.ar    1  UNL1        0.0699
     14 C          63.0901   90.3656   12.7519 C.ar    1  UNL1        0.0190
     15 C          61.9671   89.5573   12.9481 C.ar    1  UNL1        0.0160
     16 C          61.6676   89.0529   14.2232 C.ar    1  UNL1        0.0480
     17 C          62.5180   89.3631   15.2966 C.ar    1  UNL1        0.0160
     18 C          63.6427   90.1692   15.1004 C.ar    1  UNL1        0.0190
     19 N          67.1060   92.4569   13.7707 N.ar    1  UNL1       -0.2024
     20 N          66.4790   93.0522   12.7671 N.ar    1  UNL1       -0.1442
     21 C          65.2631   92.4708   12.6769 C.ar    1  UNL1        0.2073
     22 N          65.0984   91.5110   13.6152 N.ar    1  UNL1       -0.2398
     23 C          66.2728   91.5261   14.2761 C.ar    1  UNL1        0.3522
     24 O          66.5692   90.7460   15.2211 O.2     1  UNL1       -0.2444
     25 C          68.4728   92.7889   14.1903 C.3     1  UNL1        0.1099
     26 C          69.4713   91.8098   13.5582 C.3     1  UNL1        0.0265
     27 C          69.0610   94.1587   16.2679 C.3     1  UNL1        0.0021
     28 C          68.5665   92.8157   15.7304 C.3     1  UNL1        0.0245
     29 O          57.8608   82.0952    9.7791 O.3     1  UNL1       -0.4727
     30 C          58.4613   82.0278    8.4818 C.3     1  UNL1        0.2374
     31 C          59.2474   83.3032    8.1401 C.3     1  UNL1        0.1909
     32 C          60.1424   83.1837    6.9424 C.3     1  UNL1        0.1783
     33 O          61.2165   84.0310    7.1929 O.3     1  UNL1       -0.3271
     34 C          61.1995   84.2972    8.5852 C.3     1  UNL1        0.2232
     35 O          60.0848   83.6676    9.1897 O.3     1  UNL1       -0.3258
     36 C          61.1344   85.8087    8.8273 C.ar    1  UNL1        0.0404
     37 C          62.2336   86.4719    9.4167 C.ar    1  UNL1        0.0021
     38 C          62.1949   87.8448    9.6668 C.ar    1  UNL1        0.0113
     39 C          61.0548   88.5828    9.3531 C.ar    1  UNL1        0.0585
     40 CL         61.0098   90.3072    9.6720 Cl      1  UNL1       -0.0822
     41 C          59.9443   87.9451    8.7997 C.ar    1  UNL1        0.0226
     42 C          59.9665   86.5683    8.5436 C.ar    1  UNL1        0.0591
     43 CL         58.4899   85.8512    7.8997 Cl      1  UNL1       -0.0824
     44 C          62.4979   83.7374    9.1969 C.3     1  UNL1        0.1338
     45 N          62.2295   83.2107   10.5583 N.3     1  UNL1       -0.2659
     46 C          62.8161   84.0258   11.6486 C.3     1  UNL1        0.0896
     47 C          64.1668   83.4791   12.1573 C.3     1  UNL1        0.0862
     48 N          64.8591   82.7049   11.1236 N.3     1  UNL1       -0.2951
     49 C          64.0783   81.5240   10.7196 C.3     1  UNL1        0.0862
     50 C          62.5534   81.7790   10.7000 C.3     1  UNL1        0.0896
     51 H          65.0205   83.3184   10.2909 H       1  UNL1        0.1233
@<TRIPOS>BOND
     1    27    28    1
     2    28    25    1
     3    25    26    1
     4    25    19    1
     5    19    20   ar
     6    20    21   ar
     7    21    22   ar
     8    22    13    1
     9    13    14   ar
    10    14    15   ar
    11    15    16   ar
    12    16     7    1
    13     7     8    1
    14     8     9    1
    15     9    10    1
    16    10     1    1
    17     1     2   ar
    18     2     3   ar
    19     3     4   ar
    20     4    29    1
    21    29    30    1
    22    30    31    1
    23    31    32    1
    24    32    33    1
    25    33    34    1
    26    34    44    1
    27    44    45    1
    28    45    46    1
    29    46    47    1
    30    47    48    1
    31    48    49    1
    32    49    50    1
    33    34    36    1
    34    36    37   ar
    35    37    38   ar
    36    38    39   ar
    37    39    40    1
    38    39    41   ar
    39    41    42   ar
    40    42    43    1
    41    34    35    1
    42     4     5   ar
    43     5     6   ar
    44    10    11    1
    45    11    12    1
    46    16    17   ar
    47    17    18   ar
    48    22    23   ar
    49    23    24    2
    50    23    19   ar
    51    18    13   ar
    52    12     7    1
    53     6     1   ar
    54    35    31    1
    55    50    45    1
    56    42    36   ar
    57    48    51    1
@<TRIPOS>MOLECULE
*****
 51 57 0 0 0
SMALL
GASTEIGER

@<TRIPOS>ATOM
      1 C          61.8737   85.0973   15.3141 C.ar    1  UNL1        0.0481
      2 C          60.8656   84.7051   14.4198 C.ar    1  UNL1        0.0176
      3 C          60.8233   83.3974   13.9317 C.ar    1  UNL1        0.0382
      4 C          61.7898   82.4589   14.3115 C.ar    1  UNL1        0.1388
      5 C          62.7946   82.8477   15.2204 C.ar    1  UNL1        0.0382
      6 C          62.8376   84.1568   15.7087 C.ar    1  UNL1        0.0176
      7 N          62.6553   89.0753   15.3584 N.pl3   1  UNL1       -0.3041
      8 C          63.1662   88.4594   16.5916 C.3     1  UNL1        0.1122
      9 C          63.1700   86.9334   16.4438 C.3     1  UNL1        0.1122
     10 N          61.9397   86.4548   15.7917 N.pl3   1  UNL1       -0.3041
     11 C          60.8376   87.3951   15.5431 C.3     1  UNL1        0.1122
     12 C          61.3682   88.6273   14.8011 C.3     1  UNL1        0.1122
     13 C          65.0042   91.9279   13.2315 C.ar    1  UNL1        0.0699
     14 C          64.0722   91.1232   12.5548 C.ar    1  UNL1        0.0190
     15 C          63.3018   90.1887   13.2520 C.ar    1  UNL1        0.0160
     16 C          63.4384   90.0492   14.6420 C.ar    1  UNL1        0.0480
     17 C          64.3676   90.8543   15.3204 C.ar    1  UNL1        0.0160
     18 C          65.1403   91.7870   14.6231 C.ar    1  UNL1        0.0190
     19 N          66.8613   94.0032   10.9027 N.ar    1  UNL1       -0.2024
     20 N          67.0488   94.6784   12.0268 N.ar    1  UNL1       -0.1442
     21 C          66.3956   93.9992   12.9946 C.ar    1  UNL1        0.2073
     22 N          65.7937   92.8909   12.5066 N.ar    1  UNL1       -0.2398
     23 C          66.1009   92.9296   11.1949 C.ar    1  UNL1        0.3522
     24 O          65.6993   92.0912   10.3435 O.2     1  UNL1       -0.2444
     25 C          67.3987   94.4196    9.6018 C.3     1  UNL1        0.1099
     26 C          66.2605   94.8925    8.6876 C.3     1  UNL1        0.0265
     27 C          68.8425   92.3514   10.0230 C.3     1  UNL1        0.0021
     28 C          68.2235   93.2760    8.9746 C.3     1  UNL1        0.0245
     29 O          61.7070   81.1691   13.7563 O.3     1  UNL1       -0.4727
     30 C          62.5579   80.6187   12.7459 C.3     1  UNL1        0.2374
     31 C          62.1135   81.0219   11.3312 C.3     1  UNL1        0.1909
     32 C          63.1099   81.8502   10.5755 C.3     1  UNL1        0.1783
     33 O          62.3572   82.6757    9.7469 O.3     1  UNL1       -0.3271
     34 C          61.0374   82.6653   10.2643 C.3     1  UNL1        0.2232
     35 O          60.9543   81.7900   11.3740 O.3     1  UNL1       -0.3258
     36 C          60.0539   82.2184    9.1778 C.ar    1  UNL1        0.0404
     37 C          60.3620   82.4440    7.8178 C.ar    1  UNL1        0.0021
     38 C          59.4761   82.0650    6.8077 C.ar    1  UNL1        0.0113
     39 C          58.2573   81.4709    7.1304 C.ar    1  UNL1        0.0585
     40 CL         57.1461   80.9990    5.8577 Cl      1  UNL1       -0.0822
     41 C          57.9160   81.2664    8.4675 C.ar    1  UNL1        0.0226
     42 C          58.7929   81.6419    9.4930 C.ar    1  UNL1        0.0591
     43 CL         58.2390   81.3950   11.1488 Cl      1  UNL1       -0.0824
     44 C          60.6865   84.0965   10.7135 C.3     1  UNL1        0.1338
     45 N          61.6453   85.0620   10.1208 N.3     1  UNL1       -0.2659
     46 C          62.4709   85.7840   11.1180 C.3     1  UNL1        0.0896
     47 C          61.9202   87.1836   11.4644 C.3     1  UNL1        0.0862
     48 N          60.4727   87.2620   11.2502 N.3     1  UNL1       -0.2951
     49 C          60.1226   87.0345    9.8384 C.3     1  UNL1        0.0862
     50 C          61.0190   85.9791    9.1505 C.3     1  UNL1        0.0896
     51 H          60.0017   86.5423   11.8471 H       1  UNL1        0.1233
@<TRIPOS>BOND
     1    27    28    1
     2    28    25    1
     3    25    26    1
     4    25    19    1
     5    19    20   ar
     6    20    21   ar
     7    21    22   ar
     8    22    13    1
     9    13    14   ar
    10    14    15   ar
    11    15    16   ar
    12    16     7    1
    13     7     8    1
    14     8     9    1
    15     9    10    1
    16    10     1    1
    17     1     2   ar
    18     2     3   ar
    19     3     4   ar
    20     4    29    1
    21    29    30    1
    22    30    31    1
    23    31    32    1
    24    32    33    1
    25    33    34    1
    26    34    44    1
    27    44    45    1
    28    45    46    1
    29    46    47    1
    30    47    48    1
    31    48    49    1
    32    49    50    1
    33    34    36    1
    34    36    37   ar
    35    37    38   ar
    36    38    39   ar
    37    39    40    1
    38    39    41   ar
    39    41    42   ar
    40    42    43    1
    41    34    35    1
    42     4     5   ar
    43     5     6   ar
    44    10    11    1
    45    11    12    1
    46    16    17   ar
    47    17    18   ar
    48    22    23   ar
    49    23    24    2
    50    23    19   ar
    51    18    13   ar
    52    12     7    1
    53     6     1   ar
    54    35    31    1
    55    50    45    1
    56    42    36   ar
    57    48    51    1
@<TRIPOS>MOLECULE
*****
 51 57 0 0 0
SMALL
GASTEIGER

@<TRIPOS>ATOM
      1 C          59.6064   86.5069    8.8607 C.ar    1  UNL1        0.0481
      2 C          58.3749   85.8659    8.6552 C.ar    1  UNL1        0.0176
      3 C          58.3320   84.5265    8.2625 C.ar    1  UNL1        0.0382
      4 C          59.5116   83.8029    8.0529 C.ar    1  UNL1        0.1388
      5 C          60.7490   84.4414    8.2724 C.ar    1  UNL1        0.0382
      6 C          60.7923   85.7824    8.6648 C.ar    1  UNL1        0.0176
      7 N          61.1069   90.0466   10.1475 N.pl3   1  UNL1       -0.3041
      8 C          59.8715   89.7392   10.8827 C.3     1  UNL1        0.1122
      9 C          59.4786   88.2766   10.6439 C.3     1  UNL1        0.1122
     10 N          59.6537   87.8980    9.2319 N.pl3   1  UNL1       -0.3041
     11 C          59.9780   88.9319    8.2385 C.3     1  UNL1        0.1122
     12 C          61.1940   89.7375    8.7106 C.3     1  UNL1        0.1122
     13 C          64.5490   91.5476   12.1668 C.ar    1  UNL1        0.0699
     14 C          64.3541   91.8052   10.7994 C.ar    1  UNL1        0.0190
     15 C          63.2254   91.3140   10.1377 C.ar    1  UNL1        0.0160
     16 C          62.2624   90.5661   10.8330 C.ar    1  UNL1        0.0480
     17 C          62.4544   90.3096   12.2002 C.ar    1  UNL1        0.0160
     18 C          63.5843   90.7984   12.8617 C.ar    1  UNL1        0.0190
     19 N          67.3733   92.3830   14.2892 N.ar    1  UNL1       -0.2024
     20 N          67.5225   93.2818   13.3277 N.ar    1  UNL1       -0.1442
     21 C          66.5141   93.0770   12.4526 C.ar    1  UNL1        0.2073
     22 N          65.7140   92.0591   12.8431 N.ar    1  UNL1       -0.2398
     23 C          66.2855   91.6453   13.9913 C.ar    1  UNL1        0.3522
     24 O          65.8782   90.6710   14.6798 O.2     1  UNL1       -0.2444
     25 C          68.2812   92.2565   15.4355 C.3     1  UNL1        0.1099
     26 C          67.5113   92.4742   16.7450 C.3     1  UNL1        0.0265
     27 C          69.3504   94.4562   16.1821 C.3     1  UNL1        0.0021
     28 C          69.4720   93.2262   15.2825 C.3     1  UNL1        0.0245
     29 O          59.3962   82.4676    7.6260 O.3     1  UNL1       -0.4727
     30 C          58.5407   81.4645    8.1827 C.3     1  UNL1        0.2374
     31 C          58.9963   81.0264    9.5833 C.3     1  UNL1        0.1909
     32 C          57.9612   80.2810   10.3725 C.3     1  UNL1        0.1783
     33 O          58.2081   80.5969   11.7043 O.3     1  UNL1       -0.3271
     34 C          59.0223   81.7574   11.6956 C.3     1  UNL1        0.2232
     35 O          59.3312   82.1278   10.3646 O.3     1  UNL1       -0.3258
     36 C          60.3159   81.4939   12.4731 C.ar    1  UNL1        0.0404
     37 C          61.5436   81.9876   11.9787 C.ar    1  UNL1        0.0021
     38 C          62.7404   81.7463   12.6558 C.ar    1  UNL1        0.0113
     39 C          62.7430   80.9930   13.8285 C.ar    1  UNL1        0.0585
     40 CL         64.2497   80.6900   14.6741 Cl      1  UNL1       -0.0822
     41 C          61.5477   80.4675   14.3199 C.ar    1  UNL1        0.0226
     42 C          60.3386   80.6993   13.6520 C.ar    1  UNL1        0.0591
     43 CL         58.8961   79.9396   14.3236 Cl      1  UNL1       -0.0824
     44 C          58.2406   82.8973   12.3761 C.3     1  UNL1        0.1338
     45 N          58.6295   84.2013   11.7835 N.3     1  UNL1       -0.2659
     46 C          59.8588   84.7885   12.3676 C.3     1  UNL1        0.0896
     47 C          59.5706   85.8434   13.4568 C.3     1  UNL1        0.0862
     48 N          58.2745   85.6136   14.1008 N.3     1  UNL1       -0.2951
     49 C          57.1662   85.7223   13.1378 C.3     1  UNL1        0.0862
     50 C          57.5193   85.1709   11.7371 C.3     1  UNL1        0.0896
     51 H          58.2727   84.6582   14.5288 H       1  UNL1        0.1233
@<TRIPOS>BOND
     1    27    28    1
     2    28    25    1
     3    25    26    1
     4    25    19    1
     5    19    20   ar
     6    20    21   ar
     7    21    22   ar
     8    22    13    1
     9    13    14   ar
    10    14    15   ar
    11    15    16   ar
    12    16     7    1
    13     7     8    1
    14     8     9    1
    15     9    10    1
    16    10     1    1
    17     1     2   ar
    18     2     3   ar
    19     3     4   ar
    20     4    29    1
    21    29    30    1
    22    30    31    1
    23    31    32    1
    24    32    33    1
    25    33    34    1
    26    34    44    1
    27    44    45    1
    28    45    46    1
    29    46    47    1
    30    47    48    1
    31    48    49    1
    32    49    50    1
    33    34    36    1
    34    36    37   ar
    35    37    38   ar
    36    38    39   ar
    37    39    40    1
    38    39    41   ar
    39    41    42   ar
    40    42    43    1
    41    34    35    1
    42     4     5   ar
    43     5     6   ar
    44    10    11    1
    45    11    12    1
    46    16    17   ar
    47    17    18   ar
    48    22    23   ar
    49    23    24    2
    50    23    19   ar
    51    18    13   ar
    52    12     7    1
    53     6     1   ar
    54    35    31    1
    55    50    45    1
    56    42    36   ar
    57    48    51    1
@<TRIPOS>MOLECULE
*****
 51 57 0 0 0
SMALL
GASTEIGER

@<TRIPOS>ATOM
      1 C          58.6156   85.4090   11.7138 C.ar    1  UNL1        0.0481
      2 C          58.0610   84.4167   10.8906 C.ar    1  UNL1        0.0176
      3 C          57.9606   83.0989   11.3416 C.ar    1  UNL1        0.0382
      4 C          58.4222   82.7394   12.6131 C.ar    1  UNL1        0.1388
      5 C          58.9666   83.7377   13.4462 C.ar    1  UNL1        0.0382
      6 C          59.0680   85.0568   12.9947 C.ar    1  UNL1        0.0176
      7 N          60.3400   88.9720   10.8368 N.pl3   1  UNL1       -0.3041
      8 C          59.0864   89.1990   11.5703 C.3     1  UNL1        0.1122
      9 C          58.6001   87.8804   12.1829 C.3     1  UNL1        0.1122
     10 N          58.7522   86.7617   11.2377 N.pl3   1  UNL1       -0.3041
     11 C          59.1439   87.0349    9.8475 C.3     1  UNL1        0.1122
     12 C          60.4088   87.9010    9.8286 C.3     1  UNL1        0.1122
     13 C          63.8743   91.1698   11.7625 C.ar    1  UNL1        0.0699
     14 C          63.3401   91.1904   10.4631 C.ar    1  UNL1        0.0190
     15 C          62.1812   90.4707   10.1599 C.ar    1  UNL1        0.0160
     16 C          61.5258   89.7262   11.1531 C.ar    1  UNL1        0.0480
     17 C          62.0569   89.7063   12.4528 C.ar    1  UNL1        0.0160
     18 C          63.2173   90.4237   12.7558 C.ar    1  UNL1        0.0190
     19 N          66.8825   92.7254   13.0700 N.ar    1  UNL1       -0.2024
     20 N          66.7936   93.3278   11.8936 N.ar    1  UNL1       -0.1442
     21 C          65.6924   92.8293   11.2907 C.ar    1  UNL1        0.2073
     22 N          65.0683   91.9160   12.0685 N.ar    1  UNL1       -0.2398
     23 C          65.8440   91.8724   13.1698 C.ar    1  UNL1        0.3522
     24 O          65.6461   91.1066   14.1514 O.2     1  UNL1       -0.2444
     25 C          67.9593   92.9762   14.0354 C.3     1  UNL1        0.1099
     26 C          69.0414   91.8951   13.9115 C.3     1  UNL1        0.0265
     27 C          68.1771   92.2503   16.4776 C.3     1  UNL1        0.0021
     28 C          67.3832   93.0741   15.4636 C.3     1  UNL1        0.0245
     29 O          58.3208   81.3882   12.9911 O.3     1  UNL1       -0.4727
     30 C          59.2672   80.3512   12.7139 C.3     1  UNL1        0.2374
     31 C          60.2644   80.7548   11.6166 C.3     1  UNL1        0.1909
     32 C          61.4478   79.8430   11.4815 C.3     1  UNL1        0.1783
     33 O          62.4956   80.6521   11.0549 O.3     1  UNL1       -0.3271
     34 C          62.1069   81.9875   11.3290 C.3     1  UNL1        0.2232
     35 O          60.7981   82.0147   11.8683 O.3     1  UNL1       -0.3258
     36 C          62.1544   82.8198   10.0436 C.ar    1  UNL1        0.0404
     37 C          61.0117   82.8982    9.2168 C.ar    1  UNL1        0.0021
     38 C          61.0321   83.6332    8.0302 C.ar    1  UNL1        0.0113
     39 C          62.1953   84.2899    7.6320 C.ar    1  UNL1        0.0585
     40 CL         62.2170   85.2098    6.1386 Cl      1  UNL1       -0.0822
     41 C          63.3464   84.2014    8.4152 C.ar    1  UNL1        0.0226
     42 C          63.3430   83.4672    9.6079 C.ar    1  UNL1        0.0591
     43 CL         64.8662   83.3695   10.4908 Cl      1  UNL1       -0.0824
     44 C          63.0956   82.5744   12.3544 C.3     1  UNL1        0.1338
     45 N          62.3875   83.5139   13.2593 N.3     1  UNL1       -0.2659
     46 C          62.7149   84.9407   13.0260 C.3     1  UNL1        0.0896
     47 C          63.7922   85.4827   13.9891 C.3     1  UNL1        0.0862
     48 N          64.6685   84.4135   14.4751 N.3     1  UNL1       -0.2951
     49 C          63.9174   83.4071   15.2435 C.3     1  UNL1        0.0862
     50 C          62.5008   83.1442   14.6823 C.3     1  UNL1        0.0896
     51 H          65.1302   83.9541   13.6555 H       1  UNL1        0.1233
@<TRIPOS>BOND
     1    27    28    1
     2    28    25    1
     3    25    26    1
     4    25    19    1
     5    19    20   ar
     6    20    21   ar
     7    21    22   ar
     8    22    13    1
     9    13    14   ar
    10    14    15   ar
    11    15    16   ar
    12    16     7    1
    13     7     8    1
    14     8     9    1
    15     9    10    1
    16    10     1    1
    17     1     2   ar
    18     2     3   ar
    19     3     4   ar
    20     4    29    1
    21    29    30    1
    22    30    31    1
    23    31    32    1
    24    32    33    1
    25    33    34    1
    26    34    44    1
    27    44    45    1
    28    45    46    1
    29    46    47    1
    30    47    48    1
    31    48    49    1
    32    49    50    1
    33    34    36    1
    34    36    37   ar
    35    37    38   ar
    36    38    39   ar
    37    39    40    1
    38    39    41   ar
    39    41    42   ar
    40    42    43    1
    41    34    35    1
    42     4     5   ar
    43     5     6   ar
    44    10    11    1
    45    11    12    1
    46    16    17   ar
    47    17    18   ar
    48    22    23   ar
    49    23    24    2
    50    23    19   ar
    51    18    13   ar
    52    12     7    1
    53     6     1   ar
    54    35    31    1
    55    50    45    1
    56    42    36   ar
    57    48    51    1
