@<TRIPOS>MOLECULE
*****
 46 51 0 0 0
SMALL
GASTEIGER

@<TRIPOS>ATOM
      1 C          61.2721   89.6510    9.3678 C.ar    1  UNL1        0.0743
      2 C          60.4381   88.5707    9.6902 C.ar    1  UNL1        0.0196
      3 C          60.4523   88.0290   10.9756 C.ar    1  UNL1        0.0356
      4 C          61.3150   88.5649   11.9464 C.ar    1  UNL1        0.1323
      5 N          62.1305   89.6006   11.6025 N.ar    1  UNL1       -0.2235
      6 C          62.1387   90.1466   10.3577 C.ar    1  UNL1        0.1179
      7 S          63.2441   91.5185   10.0290 S.3     1  UNL1       -0.1215
      8 H          64.2729   90.6566    9.6054 H       1  UNL1        0.1086
      9 N          61.3594   88.0328   13.2893 N.pl3   1  UNL1       -0.2932
     10 C          61.6851   88.9075   14.4290 C.3     1  UNL1        0.0923
     11 C          62.1469   88.0952   15.6433 C.3     1  UNL1        0.0252
     12 C          61.1043   87.0288   16.0447 C.3     1  UNL1        0.0472
     13 C          60.4590   86.3228   14.8181 C.3     1  UNL1        0.0252
     14 C          61.2086   86.5858   13.5076 C.3     1  UNL1        0.0923
     15 C          61.7358   86.0152   17.0123 C.3     1  UNL1        0.2054
     16 O          63.1368   85.9151   16.7638 O.3     1  UNL1       -0.4755
     17 C          63.7096   85.1318   15.7512 C.ar    1  UNL1        0.1388
     18 C          64.8375   85.5501   15.0211 C.ar    1  UNL1        0.0369
     19 C          65.3693   84.7325   14.0219 C.ar    1  UNL1        0.0033
     20 C          64.7861   83.4951   13.7405 C.ar    1  UNL1        0.0066
     21 C          63.6590   83.0606   14.4596 C.ar    1  UNL1        0.0785
     22 C          63.1295   83.8897   15.4645 C.ar    1  UNL1        0.0433
     23 C          63.0361   81.7507   14.1667 C.2     1  UNL1        0.3381
     24 O          63.4586   81.0414   13.2135 O.2     1  UNL1       -0.2451
     25 O          61.9757   81.2884   14.9419 O.3     1  UNL1       -0.4771
     26 H          61.5422   80.3932   14.7499 H       1  UNL1        0.2954
     27 C          60.1846   90.1131    7.1268 C.2     1  UNL1        0.2840
     28 O          59.1522   89.4610    7.4379 O.2     1  UNL1       -0.2665
     29 N          61.2938   90.1959    8.0376 N.am    1  UNL1       -0.2763
     30 H          62.1595   90.6915    7.7334 H       1  UNL1        0.1553
     31 C          57.6894   91.1074    5.3215 C.3     1  UNL1        0.0345
     32 C          59.1561   91.2094    5.0307 C.ar    1  UNL1        0.0202
     33 C          60.2336   90.7605    5.8045 C.ar    1  UNL1        0.1946
     34 O          61.3702   90.9807    5.1673 O.2     1  UNL1       -0.4492
     35 C          61.0873   91.5711    4.0318 C.ar    1  UNL1        0.1452
     36 C          61.9797   91.9917    3.0518 C.ar    1  UNL1        0.0375
     37 C          61.4548   92.6081    1.9022 C.ar    1  UNL1        0.0031
     38 C          60.0538   92.7931    1.7496 C.ar    1  UNL1        0.0002
     39 C          59.1803   92.3480    2.7708 C.ar    1  UNL1        0.0028
     40 C          59.7366   91.7427    3.8976 C.ar    1  UNL1        0.0337
     41 C          59.5107   93.4455    0.5311 C.ar    1  UNL1        0.0000
     42 C          58.1720   93.2412    0.1459 C.ar    1  UNL1        0.0000
     43 C          57.6638   93.8560   -1.0026 C.ar    1  UNL1        0.0000
     44 C          58.4829   94.6801   -1.7775 C.ar    1  UNL1        0.0000
     45 C          59.8125   94.8909   -1.4059 C.ar    1  UNL1        0.0000
     46 C          60.3264   94.2780   -0.2590 C.ar    1  UNL1        0.0000
@<TRIPOS>BOND
     1    31    32    1
     2    32    33   ar
     3    33    27    1
     4    27    28    2
     5    27    29   am
     6    29     1    1
     7     1     2   ar
     8     2     3   ar
     9     3     4   ar
    10     4     9    1
    11     9    10    1
    12    10    11    1
    13    11    12    1
    14    12    15    1
    15    15    16    1
    16    16    17    1
    17    17    18   ar
    18    18    19   ar
    19    19    20   ar
    20    20    21   ar
    21    21    23    1
    22    23    24    2
    23    23    25    1
    24    21    22   ar
    25    12    13    1
    26    13    14    1
    27     4     5   ar
    28     5     6   ar
    29     6     7    1
    30    33    34   ar
    31    34    35   ar
    32    35    36   ar
    33    36    37   ar
    34    37    38   ar
    35    38    41    1
    36    41    42   ar
    37    42    43   ar
    38    43    44   ar
    39    44    45   ar
    40    45    46   ar
    41    38    39   ar
    42    39    40   ar
    43    40    32   ar
    44     6     1   ar
    45    40    35   ar
    46    14     9    1
    47    46    41   ar
    48    22    17   ar
    49    29    30    1
    50    25    26    1
    51     7     8    1
