@<TRIPOS>MOLECULE
*****
 61 65 0 0 0
SMALL
GASTEIGER

@<TRIPOS>ATOM
      1 C          52.6198    9.1944  -28.9938 C.ar    1  UNL1        0.0548
      2 C          51.4878    8.3998  -29.2390 C.ar    1  UNL1        0.0077
      3 C          50.3352    8.5492  -28.4650 C.ar    1  UNL1        0.0390
      4 C          50.2889    9.4998  -27.4283 C.ar    1  UNL1        0.1598
      5 C          51.4217   10.2885  -27.1721 C.ar    1  UNL1        0.0993
      6 C          52.5784   10.1296  -27.9468 C.ar    1  UNL1        0.0235
      7 N          54.6642    7.8338  -29.6538 N.am    1  UNL1       -0.3040
      8 C          53.8604    9.0229  -29.7871 C.2     1  UNL1        0.2458
      9 O          54.1985    9.9280  -30.5970 O.2     1  UNL1       -0.2701
     10 H          54.2290    7.0149  -29.1716 H       1  UNL1        0.1496
     11 C          56.7107    6.4457  -29.5326 C.3     1  UNL1        0.0196
     12 C          56.0467    7.6912  -30.1523 C.3     1  UNL1        0.0572
     13 C          56.0124    7.5149  -31.6847 C.3     1  UNL1        0.0196
     14 C          56.8662    8.9546  -29.8242 C.3     1  UNL1        0.0196
     15 N          51.4349   11.1801  -26.0541 N.pl3   1  UNL1       -0.2120
     16 H          50.7863   11.9985  -26.0528 H       1  UNL1        0.1738
     17 S          51.9758   10.5835  -24.5220 S.O2    1  UNL1        0.0757
     18 O          52.5182    9.1934  -24.6923 O.2     1  UNL1       -0.1499
     19 O          53.0948   11.4450  -24.0069 O.2     1  UNL1       -0.1499
     20 C          50.5950   10.6594  -23.3953 C.ar    1  UNL1        0.1484
     21 C          50.2163   11.9026  -22.8233 C.ar    1  UNL1        0.0611
     22 N          50.9136   13.1218  -23.1210 N.pl3   1  UNL1       -0.3559
     23 C          49.1020   11.9734  -21.9750 C.ar    1  UNL1        0.0112
     24 C          48.3254   10.8359  -21.6959 C.ar    1  UNL1       -0.0204
     25 C          48.6887    9.6193  -22.2807 C.ar    1  UNL1        0.0086
     26 C          49.7985    9.5192  -23.1243 C.ar    1  UNL1        0.0774
     27 CL         50.0886    7.9393  -23.8463 Cl      1  UNL1       -0.0808
     28 H          50.7100   13.9917  -22.5798 H       1  UNL1        0.1424
     29 H          51.5366   13.2262  -23.9487 H       1  UNL1        0.1424
     30 C          47.0728   10.8566  -20.8348 C.3     1  UNL1        0.0224
     31 C          46.2799   12.1557  -20.8639 C.3     1  UNL1        0.0047
     32 C          47.0311   11.7508  -19.6020 C.3     1  UNL1        0.0047
     33 O          49.1640    9.6450  -26.5991 O.3     1  UNL1       -0.4513
     34 C          48.2927   10.7388  -26.6248 C.ar    1  UNL1        0.1580
     35 C          48.2694   11.6077  -25.5297 C.ar    1  UNL1        0.0677
     36 C          47.3970   12.6972  -25.5081 C.ar    1  UNL1        0.1398
     37 F          47.3821   13.5116  -24.4235 F       1  UNL1       -0.2044
     38 C          46.5356   12.9344  -26.5930 C.ar    1  UNL1        0.0175
     39 C          46.5743   12.0736  -27.7025 C.ar    1  UNL1        0.0130
     40 C          47.4589   10.9893  -27.7296 C.ar    1  UNL1        0.0919
     41 CL         47.5240    9.9755  -29.1645 Cl      1  UNL1       -0.0791
     42 C          45.5246   14.0474  -26.5340 C.3     1  UNL1        0.1382
     43 C          46.1745   15.3300  -26.9397 C.2     1  UNL1        0.3234
     44 O          45.4607   16.3104  -27.2859 O.2     1  UNL1       -0.2497
     45 O          47.5673   15.4449  -26.8706 O.3     1  UNL1       -0.4215
     46 C          48.2793   16.6313  -27.2246 C.3     1  UNL1        0.3207
     47 O          49.6007   16.2863  -27.6339 O.3     1  UNL1       -0.3070
     48 C          50.5392   16.2483  -26.5687 C.3     1  UNL1        0.2456
     49 C          50.7474   17.6595  -25.9405 C.3     1  UNL1        0.1781
     50 O          51.8189   18.2966  -26.5905 O.3     1  UNL1       -0.3790
     51 C          49.4830   18.5383  -26.0679 C.3     1  UNL1        0.1733
     52 O          49.4442   19.4550  -25.0039 O.3     1  UNL1       -0.3793
     53 C          48.2210   17.6627  -26.0616 C.3     1  UNL1        0.2106
     54 O          47.0556   18.4466  -26.1407 O.3     1  UNL1       -0.3766
     55 H          52.0854   19.0667  -26.0227 H       1  UNL1        0.2106
     56 H          48.8700   20.2115  -25.2932 H       1  UNL1        0.2105
     57 H          47.1096   18.9871  -26.9719 H       1  UNL1        0.2107
     58 C          50.2168   15.1416  -25.5856 C.2     1  UNL1        0.3439
     59 O          50.3906   13.9280  -25.8795 O.2     1  UNL1       -0.2475
     60 O          49.7007   15.4760  -24.3374 O.3     1  UNL1       -0.4785
     61 H          49.4755   14.7584  -23.6588 H       1  UNL1        0.2951
@<TRIPOS>BOND
     1    11    12    1
     2    12    13    1
     3    12    14    1
     4    12     7    1
     5     7     8   am
     6     8     9    2
     7     8     1    1
     8     1     2   ar
     9     2     3   ar
    10     3     4   ar
    11     4    33    1
    12    33    34    1
    13    34    35   ar
    14    35    36   ar
    15    36    37    1
    16    36    38   ar
    17    38    42    1
    18    42    43    1
    19    43    44    2
    20    43    45    1
    21    45    46    1
    22    46    47    1
    23    47    48    1
    24    48    58    1
    25    58    59    2
    26    58    60    1
    27    48    49    1
    28    49    50    1
    29    49    51    1
    30    51    52    1
    31    51    53    1
    32    53    54    1
    33    38    39   ar
    34    39    40   ar
    35    40    41    1
    36     4     5   ar
    37     5    15    1
    38    15    17    1
    39    17    18    2
    40    17    19    2
    41    17    20    1
    42    20    21   ar
    43    21    22    1
    44    21    23   ar
    45    23    24   ar
    46    24    30    1
    47    30    31    1
    48    31    32    1
    49    24    25   ar
    50    25    26   ar
    51    26    27    1
    52     5     6   ar
    53     6     1   ar
    54    40    34   ar
    55    26    20   ar
    56    53    46    1
    57    32    30    1
    58     7    10    1
    59    60    61    1
    60    50    55    1
    61    52    56    1
    62    54    57    1
    63    15    16    1
    64    22    28    1
    65    22    29    1
@<TRIPOS>MOLECULE
*****
 61 65 0 0 0
SMALL
GASTEIGER

@<TRIPOS>ATOM
      1 C          50.9596   12.3985  -17.7566 C.ar    1  UNL1        0.0548
      2 C          52.0517   13.0024  -18.4013 C.ar    1  UNL1        0.0077
      3 C          52.0715   13.1321  -19.7915 C.ar    1  UNL1        0.0390
      4 C          50.9966   12.6616  -20.5685 C.ar    1  UNL1        0.1598
      5 C          49.9081   12.0471  -19.9297 C.ar    1  UNL1        0.0993
      6 C          49.8962   11.9127  -18.5349 C.ar    1  UNL1        0.0235
      7 N          49.7443   11.7960  -15.6057 N.am    1  UNL1       -0.3040
      8 C          50.9413   12.2256  -16.2844 C.2     1  UNL1        0.2458
      9 O          51.9961   12.4449  -15.6297 O.2     1  UNL1       -0.2701
     10 H          48.9814   11.3907  -16.1939 H       1  UNL1        0.1496
     11 C          49.4615   13.3580  -13.7057 C.3     1  UNL1        0.0196
     12 C          49.5252   11.8827  -14.1481 C.3     1  UNL1        0.0572
     13 C          48.1804   11.2105  -13.8016 C.3     1  UNL1        0.0196
     14 C          50.6488   11.1451  -13.3938 C.3     1  UNL1        0.0196
     15 N          48.8592   11.4627  -20.7065 N.pl3   1  UNL1       -0.2120
     16 H          48.2012   12.0901  -21.2202 H       1  UNL1        0.1738
     17 S          49.0701    9.8547  -21.3111 S.O2    1  UNL1        0.0757
     18 O          50.1458    9.1636  -20.5231 O.2     1  UNL1       -0.1499
     19 O          47.8007    9.0711  -21.1264 O.2     1  UNL1       -0.1499
     20 C          49.4498    9.9773  -23.0497 C.ar    1  UNL1        0.1484
     21 C          50.3229    9.0330  -23.6514 C.ar    1  UNL1        0.0611
     22 N          50.9230    7.9654  -22.9021 N.pl3   1  UNL1       -0.3559
     23 C          50.5853    9.0984  -25.0273 C.ar    1  UNL1        0.0112
     24 C          49.9762   10.0700  -25.8398 C.ar    1  UNL1       -0.0204
     25 C          49.0989   10.9823  -25.2463 C.ar    1  UNL1        0.0086
     26 C          48.8251   10.9440  -23.8763 C.ar    1  UNL1        0.0774
     27 CL         47.6432   12.1080  -23.2851 Cl      1  UNL1       -0.0808
     28 H          51.6704    7.3750  -23.3309 H       1  UNL1        0.1424
     29 H          50.5615    7.6550  -21.9763 H       1  UNL1        0.1424
     30 C          50.1707   10.1575  -27.3448 C.3     1  UNL1        0.0224
     31 C          50.3219    8.8244  -28.0639 C.3     1  UNL1        0.0047
     32 C          51.5143    9.7652  -27.9465 C.3     1  UNL1        0.0047
     33 O          51.0035   12.7321  -21.9717 O.3     1  UNL1       -0.4513
     34 C          50.4694   13.7878  -22.7177 C.ar    1  UNL1        0.1580
     35 C          49.6100   14.6919  -22.0864 C.ar    1  UNL1        0.0677
     36 C          49.0386   15.7449  -22.8028 C.ar    1  UNL1        0.1398
     37 F          48.1927   16.5947  -22.1687 F       1  UNL1       -0.2044
     38 C          49.3278   15.9094  -24.1683 C.ar    1  UNL1        0.0175
     39 C          50.2080   15.0135  -24.7975 C.ar    1  UNL1        0.0130
     40 C          50.7914   13.9660  -24.0753 C.ar    1  UNL1        0.0919
     41 CL         51.9394   12.9072  -24.8827 Cl      1  UNL1       -0.0791
     42 C          48.6394   16.9815  -24.9691 C.3     1  UNL1        0.1382
     43 C          47.1630   16.7553  -24.9349 C.2     1  UNL1        0.3234
     44 O          46.4338   17.4946  -24.2190 O.2     1  UNL1       -0.2497
     45 O          46.6020   15.7636  -25.7471 O.3     1  UNL1       -0.4215
     46 C          46.7359   14.3651  -25.4907 C.3     1  UNL1        0.3207
     47 O          47.5690   13.7783  -26.4877 O.3     1  UNL1       -0.3070
     48 C          46.8608   13.3247  -27.6321 C.3     1  UNL1        0.2456
     49 C          45.8955   12.1529  -27.2790 C.3     1  UNL1        0.1781
     50 O          46.5690   10.9330  -27.4647 O.3     1  UNL1       -0.3790
     51 C          45.3962   12.2389  -25.8193 C.3     1  UNL1        0.1733
     52 O          44.1260   11.6457  -25.7263 O.3     1  UNL1       -0.3793
     53 C          45.3339   13.7037  -25.3613 C.3     1  UNL1        0.2106
     54 O          44.8470   13.8067  -24.0455 O.3     1  UNL1       -0.3766
     55 H          45.8780   10.2196  -27.4758 H       1  UNL1        0.2106
     56 H          43.9961   11.3848  -24.7773 H       1  UNL1        0.2105
     57 H          45.4460   13.2753  -23.4583 H       1  UNL1        0.2107
     58 C          46.2324   14.4777  -28.3877 C.2     1  UNL1        0.3439
     59 O          45.2058   14.3161  -29.1014 O.2     1  UNL1       -0.2475
     60 O          46.8153   15.7384  -28.3033 O.3     1  UNL1       -0.4785
     61 H          46.4182   16.5288  -28.7969 H       1  UNL1        0.2951
@<TRIPOS>BOND
     1    11    12    1
     2    12    13    1
     3    12    14    1
     4    12     7    1
     5     7     8   am
     6     8     9    2
     7     8     1    1
     8     1     2   ar
     9     2     3   ar
    10     3     4   ar
    11     4    33    1
    12    33    34    1
    13    34    35   ar
    14    35    36   ar
    15    36    37    1
    16    36    38   ar
    17    38    42    1
    18    42    43    1
    19    43    44    2
    20    43    45    1
    21    45    46    1
    22    46    47    1
    23    47    48    1
    24    48    58    1
    25    58    59    2
    26    58    60    1
    27    48    49    1
    28    49    50    1
    29    49    51    1
    30    51    52    1
    31    51    53    1
    32    53    54    1
    33    38    39   ar
    34    39    40   ar
    35    40    41    1
    36     4     5   ar
    37     5    15    1
    38    15    17    1
    39    17    18    2
    40    17    19    2
    41    17    20    1
    42    20    21   ar
    43    21    22    1
    44    21    23   ar
    45    23    24   ar
    46    24    30    1
    47    30    31    1
    48    31    32    1
    49    24    25   ar
    50    25    26   ar
    51    26    27    1
    52     5     6   ar
    53     6     1   ar
    54    40    34   ar
    55    26    20   ar
    56    53    46    1
    57    32    30    1
    58     7    10    1
    59    60    61    1
    60    50    55    1
    61    52    56    1
    62    54    57    1
    63    15    16    1
    64    22    28    1
    65    22    29    1
@<TRIPOS>MOLECULE
*****
 61 65 0 0 0
SMALL
GASTEIGER

@<TRIPOS>ATOM
      1 C          50.4483    9.4305  -27.3680 C.ar    1  UNL1        0.0548
      2 C          51.1990    9.0156  -26.2557 C.ar    1  UNL1        0.0077
      3 C          51.1731    9.7505  -25.0686 C.ar    1  UNL1        0.0390
      4 C          50.3929   10.9173  -24.9673 C.ar    1  UNL1        0.1598
      5 C          49.6498   11.3422  -26.0800 C.ar    1  UNL1        0.0993
      6 C          49.6849   10.6054  -27.2713 C.ar    1  UNL1        0.0235
      7 N          51.7510    8.2759  -29.2217 N.am    1  UNL1       -0.3040
      8 C          50.4928    8.6772  -28.6441 C.2     1  UNL1        0.2458
      9 O          49.4096    8.3756  -29.2143 O.2     1  UNL1       -0.2701
     10 H          52.5950    8.3225  -28.6070 H       1  UNL1        0.1496
     11 C          50.7159    6.9532  -31.0407 C.3     1  UNL1        0.0196
     12 C          51.9281    7.8018  -30.6088 C.3     1  UNL1        0.0572
     13 C          52.0292    9.0221  -31.5475 C.3     1  UNL1        0.0196
     14 C          53.2273    6.9819  -30.7317 C.3     1  UNL1        0.0196
     15 N          48.9402   12.5830  -26.0352 N.pl3   1  UNL1       -0.2120
     16 H          49.3891   13.4365  -26.4357 H       1  UNL1        0.1738
     17 S          47.2116   12.5490  -25.9550 S.O2    1  UNL1        0.0757
     18 O          46.7647   11.2255  -25.4034 O.2     1  UNL1       -0.1499
     19 O          46.7247   13.6172  -25.0160 O.2     1  UNL1       -0.1499
     20 C          46.5888   12.8660  -27.5961 C.ar    1  UNL1        0.1484
     21 C          46.3180   14.1985  -28.0049 C.ar    1  UNL1        0.0611
     22 N          46.5289   15.3200  -27.1336 N.pl3   1  UNL1       -0.3559
     23 C          45.8740   14.4548  -29.3100 C.ar    1  UNL1        0.0112
     24 C          45.7152   13.4157  -30.2428 C.ar    1  UNL1       -0.0204
     25 C          46.0061   12.1085  -29.8423 C.ar    1  UNL1        0.0086
     26 C          46.4436   11.8241  -28.5457 C.ar    1  UNL1        0.0774
     27 CL         46.8426   10.1422  -28.2091 Cl      1  UNL1       -0.0808
     28 H          46.1874   16.2695  -27.4038 H       1  UNL1        0.1424
     29 H          47.1276   15.2676  -26.2834 H       1  UNL1        0.1424
     30 C          45.2962   13.6323  -31.6879 C.3     1  UNL1        0.0224
     31 C          44.8058   12.3911  -32.4202 C.3     1  UNL1        0.0047
     32 C          46.1356   13.0265  -32.8058 C.3     1  UNL1        0.0047
     33 O          50.3796   11.7074  -23.8055 O.3     1  UNL1       -0.4513
     34 C          49.3440   11.7223  -22.8656 C.ar    1  UNL1        0.1580
     35 C          48.6636   10.5316  -22.5937 C.ar    1  UNL1        0.0677
     36 C          47.6092   10.5110  -21.6791 C.ar    1  UNL1        0.1398
     37 F          46.9542    9.3455  -21.4504 F       1  UNL1       -0.2044
     38 C          47.2248   11.6897  -21.0172 C.ar    1  UNL1        0.0175
     39 C          47.9224   12.8815  -21.2746 C.ar    1  UNL1        0.0130
     40 C          48.9885   12.8988  -22.1814 C.ar    1  UNL1        0.0919
     41 CL         49.8787   14.3951  -22.4251 Cl      1  UNL1       -0.0791
     42 C          46.0274   11.6959  -20.1058 C.3     1  UNL1        0.1382
     43 C          46.4243   12.2319  -18.7689 C.2     1  UNL1        0.3234
     44 O          45.6590   13.0309  -18.1634 O.2     1  UNL1       -0.2497
     45 O          47.6137   11.7905  -18.1787 O.3     1  UNL1       -0.4215
     46 C          48.4517   12.6225  -17.3755 C.3     1  UNL1        0.3207
     47 O          49.4502   13.2229  -18.1971 O.3     1  UNL1       -0.3070
     48 C          50.6332   12.4469  -18.3210 C.3     1  UNL1        0.2456
     49 C          51.3710   12.3083  -16.9549 C.3     1  UNL1        0.1781
     50 O          52.3098   13.3477  -16.8340 O.3     1  UNL1       -0.3790
     51 C          50.3903   12.3701  -15.7626 C.3     1  UNL1        0.1733
     52 O          50.9142   11.6287  -14.6902 O.3     1  UNL1       -0.3793
     53 C          49.0169   11.8166  -16.1710 C.3     1  UNL1        0.2106
     54 O          48.1186   11.8306  -15.0886 O.3     1  UNL1       -0.3766
     55 H          52.9226   13.0996  -16.0928 H       1  UNL1        0.2106
     56 H          50.4857   11.9720  -13.8631 H       1  UNL1        0.2105
     57 H          48.0439   12.7677  -14.7688 H       1  UNL1        0.2107
     58 C          50.3682   11.1456  -19.0502 C.2     1  UNL1        0.3439
     59 O          50.7128   10.9818  -20.2518 O.2     1  UNL1       -0.2475
     60 O          49.7136   10.1168  -18.3800 O.3     1  UNL1       -0.4785
     61 H          49.5225    9.2351  -18.8408 H       1  UNL1        0.2951
@<TRIPOS>BOND
     1    11    12    1
     2    12    13    1
     3    12    14    1
     4    12     7    1
     5     7     8   am
     6     8     9    2
     7     8     1    1
     8     1     2   ar
     9     2     3   ar
    10     3     4   ar
    11     4    33    1
    12    33    34    1
    13    34    35   ar
    14    35    36   ar
    15    36    37    1
    16    36    38   ar
    17    38    42    1
    18    42    43    1
    19    43    44    2
    20    43    45    1
    21    45    46    1
    22    46    47    1
    23    47    48    1
    24    48    58    1
    25    58    59    2
    26    58    60    1
    27    48    49    1
    28    49    50    1
    29    49    51    1
    30    51    52    1
    31    51    53    1
    32    53    54    1
    33    38    39   ar
    34    39    40   ar
    35    40    41    1
    36     4     5   ar
    37     5    15    1
    38    15    17    1
    39    17    18    2
    40    17    19    2
    41    17    20    1
    42    20    21   ar
    43    21    22    1
    44    21    23   ar
    45    23    24   ar
    46    24    30    1
    47    30    31    1
    48    31    32    1
    49    24    25   ar
    50    25    26   ar
    51    26    27    1
    52     5     6   ar
    53     6     1   ar
    54    40    34   ar
    55    26    20   ar
    56    53    46    1
    57    32    30    1
    58     7    10    1
    59    60    61    1
    60    50    55    1
    61    52    56    1
    62    54    57    1
    63    15    16    1
    64    22    28    1
    65    22    29    1
@<TRIPOS>MOLECULE
*****
 61 65 0 0 0
SMALL
GASTEIGER

@<TRIPOS>ATOM
      1 C          51.4319   10.8355  -26.9482 C.ar    1  UNL1        0.0548
      2 C          52.6700   11.2990  -26.4737 C.ar    1  UNL1        0.0077
      3 C          52.7316   12.3773  -25.5885 C.ar    1  UNL1        0.0390
      4 C          51.5540   13.0152  -25.1562 C.ar    1  UNL1        0.1598
      5 C          50.3150   12.5627  -25.6366 C.ar    1  UNL1        0.0993
      6 C          50.2589   11.4850  -26.5305 C.ar    1  UNL1        0.0235
      7 N          50.1245    9.4126  -28.6012 N.am    1  UNL1       -0.3040
      8 C          51.3552    9.7128  -27.9134 C.2     1  UNL1        0.2458
      9 O          52.3897    9.0286  -28.1392 O.2     1  UNL1       -0.2701
     10 H          49.3748   10.1405  -28.5782 H       1  UNL1        0.1496
     11 C          51.0860    7.7525  -30.1662 C.3     1  UNL1        0.0196
     12 C          49.8535    8.1604  -29.3352 C.3     1  UNL1        0.0572
     13 C          49.5557    7.0375  -28.3199 C.3     1  UNL1        0.0196
     14 C          48.6240    8.3316  -30.2487 C.3     1  UNL1        0.0196
     15 N          49.1164   13.2659  -25.2988 N.pl3   1  UNL1       -0.2120
     16 H          49.1128   14.3091  -25.3446 H       1  UNL1        0.1738
     17 S          47.5991   12.4507  -25.4684 S.O2    1  UNL1        0.0757
     18 O          47.7842   10.9887  -25.1785 O.2     1  UNL1       -0.1499
     19 O          46.6174   12.9892  -24.4654 O.2     1  UNL1       -0.1499
     20 C          47.0000   12.7633  -27.1192 C.ar    1  UNL1        0.1484
     21 C          46.8395   11.6855  -28.0294 C.ar    1  UNL1        0.0611
     22 N          47.1466   10.3306  -27.6670 N.pl3   1  UNL1       -0.3559
     23 C          46.3236   11.9218  -29.3117 C.ar    1  UNL1        0.0112
     24 C          45.9308   13.2101  -29.7129 C.ar    1  UNL1       -0.0204
     25 C          46.0687   14.2636  -28.8045 C.ar    1  UNL1        0.0086
     26 C          46.5864   14.0572  -27.5228 C.ar    1  UNL1        0.0774
     27 CL         46.6304   15.4640  -26.4643 Cl      1  UNL1       -0.0808
     28 H          47.1592    9.5801  -28.3934 H       1  UNL1        0.1424
     29 H          47.2369   10.0192  -26.6776 H       1  UNL1        0.1424
     30 C          45.3094   13.5230  -31.0645 C.3     1  UNL1        0.0224
     31 C          44.8684   12.3142  -31.8777 C.3     1  UNL1        0.0047
     32 C          46.0604   13.1452  -32.3351 C.3     1  UNL1        0.0047
     33 O          51.5803   14.1320  -24.3042 O.3     1  UNL1       -0.4513
     34 C          51.6214   14.0663  -22.9077 C.ar    1  UNL1        0.1580
     35 C          52.7663   13.5535  -22.2906 C.ar    1  UNL1        0.0677
     36 C          52.8360   13.4502  -20.9003 C.ar    1  UNL1        0.1398
     37 F          53.9516   12.9301  -20.3304 F       1  UNL1       -0.2044
     38 C          51.7545   13.8676  -20.1056 C.ar    1  UNL1        0.0175
     39 C          50.6127   14.4026  -20.7247 C.ar    1  UNL1        0.0130
     40 C          50.5488   14.5187  -22.1181 C.ar    1  UNL1        0.0919
     41 CL         49.1301   15.2553  -22.8499 Cl      1  UNL1       -0.0791
     42 C          51.7830   13.6678  -18.6144 C.3     1  UNL1        0.1382
     43 C          51.0803   12.3949  -18.2709 C.2     1  UNL1        0.3234
     44 O          51.0814   11.9822  -17.0791 O.2     1  UNL1       -0.2497
     45 O          50.3769   11.7094  -19.2674 O.3     1  UNL1       -0.4215
     46 C          49.0924   11.1196  -19.0625 C.3     1  UNL1        0.3207
     47 O          48.9857    9.9331  -19.8456 O.3     1  UNL1       -0.3070
     48 C          48.4836   10.1541  -21.1556 C.3     1  UNL1        0.2456
     49 C          47.0100   10.6612  -21.1243 C.3     1  UNL1        0.1781
     50 O          46.1438    9.5564  -21.1993 O.3     1  UNL1       -0.3790
     51 C          46.7032   11.4589  -19.8371 C.3     1  UNL1        0.1733
     52 O          45.6959   12.4016  -20.1027 O.3     1  UNL1       -0.3793
     53 C          47.9706   12.1634  -19.3303 C.3     1  UNL1        0.2106
     54 O          47.7048   12.9252  -18.1779 O.3     1  UNL1       -0.3766
     55 H          45.2432    9.9092  -21.4249 H       1  UNL1        0.2106
     56 H          45.2715   12.6258  -19.2337 H       1  UNL1        0.2105
     57 H          47.3379   12.3128  -17.4878 H       1  UNL1        0.2107
     58 C          49.4399   10.9898  -21.9817 C.2     1  UNL1        0.3439
     59 O          50.6790   10.7578  -21.9900 O.2     1  UNL1       -0.2475
     60 O          48.9369   12.0475  -22.7330 O.3     1  UNL1       -0.4785
     61 H          49.5512   12.6240  -23.2954 H       1  UNL1        0.2951
@<TRIPOS>BOND
     1    11    12    1
     2    12    13    1
     3    12    14    1
     4    12     7    1
     5     7     8   am
     6     8     9    2
     7     8     1    1
     8     1     2   ar
     9     2     3   ar
    10     3     4   ar
    11     4    33    1
    12    33    34    1
    13    34    35   ar
    14    35    36   ar
    15    36    37    1
    16    36    38   ar
    17    38    42    1
    18    42    43    1
    19    43    44    2
    20    43    45    1
    21    45    46    1
    22    46    47    1
    23    47    48    1
    24    48    58    1
    25    58    59    2
    26    58    60    1
    27    48    49    1
    28    49    50    1
    29    49    51    1
    30    51    52    1
    31    51    53    1
    32    53    54    1
    33    38    39   ar
    34    39    40   ar
    35    40    41    1
    36     4     5   ar
    37     5    15    1
    38    15    17    1
    39    17    18    2
    40    17    19    2
    41    17    20    1
    42    20    21   ar
    43    21    22    1
    44    21    23   ar
    45    23    24   ar
    46    24    30    1
    47    30    31    1
    48    31    32    1
    49    24    25   ar
    50    25    26   ar
    51    26    27    1
    52     5     6   ar
    53     6     1   ar
    54    40    34   ar
    55    26    20   ar
    56    53    46    1
    57    32    30    1
    58     7    10    1
    59    60    61    1
    60    50    55    1
    61    52    56    1
    62    54    57    1
    63    15    16    1
    64    22    28    1
    65    22    29    1
@<TRIPOS>MOLECULE
*****
 61 65 0 0 0
SMALL
GASTEIGER

@<TRIPOS>ATOM
      1 C          49.0163   10.8443  -22.5500 C.ar    1  UNL1        0.0548
      2 C          49.7376    9.8514  -23.2333 C.ar    1  UNL1        0.0077
      3 C          49.9261    9.9355  -24.6144 C.ar    1  UNL1        0.0390
      4 C          49.3982   11.0175  -25.3431 C.ar    1  UNL1        0.1598
      5 C          48.6669   12.0064  -24.6663 C.ar    1  UNL1        0.0993
      6 C          48.4742   11.9137  -23.2815 C.ar    1  UNL1        0.0235
      7 N          48.5330   11.9318  -20.3028 N.am    1  UNL1       -0.3040
      8 C          48.7815   10.7497  -21.0893 C.2     1  UNL1        0.2458
      9 O          48.7861    9.6142  -20.5414 O.2     1  UNL1       -0.2701
     10 H          48.2921   12.8075  -20.8200 H       1  UNL1        0.1496
     11 C          48.5703   13.4556  -18.3518 C.3     1  UNL1        0.0196
     12 C          48.5888   11.9898  -18.8284 C.3     1  UNL1        0.0572
     13 C          47.3509   11.2727  -18.2504 C.3     1  UNL1        0.0196
     14 C          49.8528   11.2745  -18.3128 C.3     1  UNL1        0.0196
     15 N          48.0278   13.0531  -25.4019 N.pl3   1  UNL1       -0.2120
     16 H          48.6148   13.6987  -25.9756 H       1  UNL1        0.1738
     17 S          46.3715   12.8532  -25.8626 S.O2    1  UNL1        0.0757
     18 O          45.7893   11.6783  -25.1302 O.2     1  UNL1       -0.1499
     19 O          45.5824   14.0693  -25.4650 O.2     1  UNL1       -0.1499
     20 C          46.3237   12.6624  -27.6354 C.ar    1  UNL1        0.1484
     21 C          46.4714   11.3735  -28.2125 C.ar    1  UNL1        0.0611
     22 N          46.6617   10.1976  -27.4109 N.pl3   1  UNL1       -0.3559
     23 C          46.3863   11.2140  -29.6030 C.ar    1  UNL1        0.0112
     24 C          46.1277   12.3074  -30.4472 C.ar    1  UNL1       -0.0204
     25 C          45.9594   13.5702  -29.8718 C.ar    1  UNL1        0.0086
     26 C          46.0460   13.7584  -28.4896 C.ar    1  UNL1        0.0774
     27 CL         45.7375   15.3906  -27.9046 Cl      1  UNL1       -0.0808
     28 H          46.9118    9.2881  -27.8596 H       1  UNL1        0.1424
     29 H          46.4368   10.1665  -26.3948 H       1  UNL1        0.1424
     30 C          45.9638   12.1931  -31.9541 C.3     1  UNL1        0.0224
     31 C          45.8410   13.5136  -32.7012 C.3     1  UNL1        0.0047
     32 C          44.6370   12.5868  -32.5912 C.3     1  UNL1        0.0047
     33 O          49.5272   11.1105  -26.7391 O.3     1  UNL1       -0.4513
     34 C          50.2417   10.2081  -27.5337 C.ar    1  UNL1        0.1580
     35 C          49.5390    9.2197  -28.2293 C.ar    1  UNL1        0.0677
     36 C          50.2186    8.2866  -29.0141 C.ar    1  UNL1        0.1398
     37 F          49.5121    7.3266  -29.6616 F       1  UNL1       -0.2044
     38 C          51.6194    8.3362  -29.1169 C.ar    1  UNL1        0.0175
     39 C          52.3236    9.3424  -28.4350 C.ar    1  UNL1        0.0130
     40 C          51.6406   10.2862  -27.6593 C.ar    1  UNL1        0.0919
     41 CL         52.5522   11.5694  -26.8763 Cl      1  UNL1       -0.0791
     42 C          52.3653    7.2753  -29.8802 C.3     1  UNL1        0.1382
     43 C          52.9535    7.8745  -31.1161 C.2     1  UNL1        0.3234
     44 O          52.1927    8.3118  -32.0219 O.2     1  UNL1       -0.2497
     45 O          54.3431    7.9982  -31.2238 O.3     1  UNL1       -0.4215
     46 C          55.2414    6.8902  -31.1527 C.3     1  UNL1        0.3207
     47 O          55.6462    6.6947  -29.7997 O.3     1  UNL1       -0.3070
     48 C          56.8028    7.4337  -29.4349 C.3     1  UNL1        0.2456
     49 C          58.0583    6.9567  -30.2260 C.3     1  UNL1        0.1781
     50 O          58.7134    5.9570  -29.4858 O.3     1  UNL1       -0.3790
     51 C          57.6835    6.3946  -31.6156 C.3     1  UNL1        0.1733
     52 O          58.7561    6.5905  -32.5016 O.3     1  UNL1       -0.3793
     53 C          56.4200    7.0865  -32.1488 C.3     1  UNL1        0.2106
     54 O          56.0817    6.6142  -33.4299 O.3     1  UNL1       -0.3766
     55 H          59.6190    5.8515  -29.8798 H       1  UNL1        0.2106
     56 H          58.6535    5.9271  -33.2330 H       1  UNL1        0.2105
     57 H          55.9495    5.6322  -33.3658 H       1  UNL1        0.2107
     58 C          56.5412    8.9255  -29.4713 C.2     1  UNL1        0.3439
     59 O          57.4689    9.7520  -29.6853 O.2     1  UNL1       -0.2475
     60 O          55.2495    9.3906  -29.2452 O.3     1  UNL1       -0.4785
     61 H          55.0434   10.3823  -29.2633 H       1  UNL1        0.2951
@<TRIPOS>BOND
     1    11    12    1
     2    12    13    1
     3    12    14    1
     4    12     7    1
     5     7     8   am
     6     8     9    2
     7     8     1    1
     8     1     2   ar
     9     2     3   ar
    10     3     4   ar
    11     4    33    1
    12    33    34    1
    13    34    35   ar
    14    35    36   ar
    15    36    37    1
    16    36    38   ar
    17    38    42    1
    18    42    43    1
    19    43    44    2
    20    43    45    1
    21    45    46    1
    22    46    47    1
    23    47    48    1
    24    48    58    1
    25    58    59    2
    26    58    60    1
    27    48    49    1
    28    49    50    1
    29    49    51    1
    30    51    52    1
    31    51    53    1
    32    53    54    1
    33    38    39   ar
    34    39    40   ar
    35    40    41    1
    36     4     5   ar
    37     5    15    1
    38    15    17    1
    39    17    18    2
    40    17    19    2
    41    17    20    1
    42    20    21   ar
    43    21    22    1
    44    21    23   ar
    45    23    24   ar
    46    24    30    1
    47    30    31    1
    48    31    32    1
    49    24    25   ar
    50    25    26   ar
    51    26    27    1
    52     5     6   ar
    53     6     1   ar
    54    40    34   ar
    55    26    20   ar
    56    53    46    1
    57    32    30    1
    58     7    10    1
    59    60    61    1
    60    50    55    1
    61    52    56    1
    62    54    57    1
    63    15    16    1
    64    22    28    1
    65    22    29    1
@<TRIPOS>MOLECULE
*****
 61 65 0 0 0
SMALL
GASTEIGER

@<TRIPOS>ATOM
      1 C          50.8820    8.0226  -30.0180 C.ar    1  UNL1        0.0548
      2 C          49.6857    7.8951  -30.7430 C.ar    1  UNL1        0.0077
      3 C          48.4950    8.4292  -30.2461 C.ar    1  UNL1        0.0390
      4 C          48.4751    9.1055  -29.0121 C.ar    1  UNL1        0.1598
      5 C          49.6660    9.2255  -28.2785 C.ar    1  UNL1        0.0993
      6 C          50.8569    8.6814  -28.7779 C.ar    1  UNL1        0.0235
      7 N          53.3907    7.6538  -29.8270 N.am    1  UNL1       -0.3040
      8 C          52.1460    7.4318  -30.5191 C.2     1  UNL1        0.2458
      9 O          52.1172    6.7150  -31.5558 O.2     1  UNL1       -0.2701
     10 H          53.3354    8.0345  -28.8552 H       1  UNL1        0.1496
     11 C          55.5454    8.6808  -30.4844 C.3     1  UNL1        0.0196
     12 C          54.7280    7.3775  -30.3889 C.3     1  UNL1        0.0572
     13 C          55.4730    6.4010  -29.4551 C.3     1  UNL1        0.0196
     14 C          54.5992    6.7227  -31.7781 C.3     1  UNL1        0.0196
     15 N          49.6467    9.8093  -26.9732 N.pl3   1  UNL1       -0.2120
     16 H          48.8533    9.5865  -26.3318 H       1  UNL1        0.1738
     17 S          51.1466   10.2903  -26.2559 S.O2    1  UNL1        0.0757
     18 O          52.0551    9.0986  -26.1550 O.2     1  UNL1       -0.1499
     19 O          51.8275   11.3044  -27.1321 O.2     1  UNL1       -0.1499
     20 C          50.7772   11.0209  -24.6711 C.ar    1  UNL1        0.1484
     21 C          50.7983   12.4327  -24.5209 C.ar    1  UNL1        0.0611
     22 N          51.1114   13.3102  -25.6133 N.pl3   1  UNL1       -0.3559
     23 C          50.4617   13.0116  -23.2889 C.ar    1  UNL1        0.0112
     24 C          50.0724   12.2206  -22.1944 C.ar    1  UNL1       -0.0204
     25 C          50.0303   10.8326  -22.3549 C.ar    1  UNL1        0.0086
     26 C          50.3675   10.2292  -23.5696 C.ar    1  UNL1        0.0774
     27 CL         50.1951    8.4782  -23.6442 Cl      1  UNL1       -0.0808
     28 H          51.2623   14.3298  -25.4444 H       1  UNL1        0.1424
     29 H          51.0728   13.0061  -26.6084 H       1  UNL1        0.1424
     30 C          49.6379   12.7875  -20.8525 C.3     1  UNL1        0.0224
     31 C          49.9635   14.2572  -20.6265 C.3     1  UNL1        0.0047
     32 C          50.6983   13.1843  -19.8329 C.3     1  UNL1        0.0047
     33 O          47.2878    9.6138  -28.4590 O.3     1  UNL1       -0.4513
     34 C          46.8858   10.9515  -28.5309 C.ar    1  UNL1        0.1580
     35 C          46.4544   11.4604  -29.7595 C.ar    1  UNL1        0.0677
     36 C          46.0673   12.7965  -29.8765 C.ar    1  UNL1        0.1398
     37 F          45.6724   13.2676  -31.0856 F       1  UNL1       -0.2044
     38 C          46.1026   13.6432  -28.7553 C.ar    1  UNL1        0.0175
     39 C          46.5159   13.1263  -27.5162 C.ar    1  UNL1        0.0130
     40 C          46.8907   11.7831  -27.3964 C.ar    1  UNL1        0.0919
     41 CL         47.3371   11.1584  -25.8148 Cl      1  UNL1       -0.0791
     42 C          45.7818   15.1067  -28.8953 C.3     1  UNL1        0.1382
     43 C          45.7237   15.7337  -27.5405 C.2     1  UNL1        0.3234
     44 O          44.9132   15.2916  -26.6813 O.2     1  UNL1       -0.2497
     45 O          46.6148   16.7649  -27.2232 O.3     1  UNL1       -0.4215
     46 C          48.0339   16.6055  -27.2127 C.3     1  UNL1        0.3207
     47 O          48.3776   15.4741  -26.4161 O.3     1  UNL1       -0.3070
     48 C          48.5750   15.7785  -25.0430 C.3     1  UNL1        0.2456
     49 C          49.8058   16.7123  -24.8363 C.3     1  UNL1        0.1781
     50 O          50.9477   15.9227  -24.6149 O.3     1  UNL1       -0.3790
     51 C          50.0492   17.6229  -26.0606 C.3     1  UNL1        0.1733
     52 O          50.6615   18.8152  -25.6394 O.3     1  UNL1       -0.3793
     53 C          48.7222   17.9288  -26.7712 C.3     1  UNL1        0.2106
     54 O          48.9171   18.7866  -27.8689 O.3     1  UNL1       -0.3766
     55 H          51.6482   16.5232  -24.2475 H       1  UNL1        0.2106
     56 H          51.1267   19.1973  -26.4288 H       1  UNL1        0.2105
     57 H          49.5586   18.3474  -28.4867 H       1  UNL1        0.2107
     58 C          47.2903   16.2440  -24.3886 C.2     1  UNL1        0.3439
     59 O          47.1778   17.4049  -23.9101 O.2     1  UNL1       -0.2475
     60 O          46.2187   15.3609  -24.3001 O.3     1  UNL1       -0.4785
     61 H          45.3468   15.6430  -23.8684 H       1  UNL1        0.2951
@<TRIPOS>BOND
     1    11    12    1
     2    12    13    1
     3    12    14    1
     4    12     7    1
     5     7     8   am
     6     8     9    2
     7     8     1    1
     8     1     2   ar
     9     2     3   ar
    10     3     4   ar
    11     4    33    1
    12    33    34    1
    13    34    35   ar
    14    35    36   ar
    15    36    37    1
    16    36    38   ar
    17    38    42    1
    18    42    43    1
    19    43    44    2
    20    43    45    1
    21    45    46    1
    22    46    47    1
    23    47    48    1
    24    48    58    1
    25    58    59    2
    26    58    60    1
    27    48    49    1
    28    49    50    1
    29    49    51    1
    30    51    52    1
    31    51    53    1
    32    53    54    1
    33    38    39   ar
    34    39    40   ar
    35    40    41    1
    36     4     5   ar
    37     5    15    1
    38    15    17    1
    39    17    18    2
    40    17    19    2
    41    17    20    1
    42    20    21   ar
    43    21    22    1
    44    21    23   ar
    45    23    24   ar
    46    24    30    1
    47    30    31    1
    48    31    32    1
    49    24    25   ar
    50    25    26   ar
    51    26    27    1
    52     5     6   ar
    53     6     1   ar
    54    40    34   ar
    55    26    20   ar
    56    53    46    1
    57    32    30    1
    58     7    10    1
    59    60    61    1
    60    50    55    1
    61    52    56    1
    62    54    57    1
    63    15    16    1
    64    22    28    1
    65    22    29    1
@<TRIPOS>MOLECULE
*****
 61 65 0 0 0
SMALL
GASTEIGER

@<TRIPOS>ATOM
      1 C          49.9762   15.0557  -25.1014 C.ar    1  UNL1        0.0548
      2 C          50.3263   16.0723  -24.1975 C.ar    1  UNL1        0.0077
      3 C          51.1724   15.8025  -23.1198 C.ar    1  UNL1        0.0390
      4 C          51.6893   14.5084  -22.9235 C.ar    1  UNL1        0.1598
      5 C          51.3331   13.4865  -23.8178 C.ar    1  UNL1        0.0993
      6 C          50.4779   13.7606  -24.8934 C.ar    1  UNL1        0.0235
      7 N          47.6256   15.3355  -26.0303 N.am    1  UNL1       -0.3040
      8 C          49.0531   15.3217  -26.2305 C.2     1  UNL1        0.2458
      9 O          49.5344   15.5529  -27.3725 O.2     1  UNL1       -0.2701
     10 H          47.2823   15.3885  -25.0446 H       1  UNL1        0.1496
     11 C          46.6973   13.9330  -27.8471 C.3     1  UNL1        0.0196
     12 C          46.6227   15.2863  -27.1128 C.3     1  UNL1        0.0572
     13 C          45.2144   15.4322  -26.4997 C.3     1  UNL1        0.0196
     14 C          46.8471   16.4461  -28.1027 C.3     1  UNL1        0.0196
     15 N          51.7559   12.1424  -23.5737 N.pl3   1  UNL1       -0.2120
     16 H          51.1340   11.5091  -23.0236 H       1  UNL1        0.1738
     17 S          52.8745   11.4106  -24.6732 S.O2    1  UNL1        0.0757
     18 O          53.6881   12.4814  -25.3420 O.2     1  UNL1       -0.1499
     19 O          53.8263   10.5261  -23.9173 O.2     1  UNL1       -0.1499
     20 C          51.9330   10.4283  -25.8267 C.ar    1  UNL1        0.1484
     21 C          52.1439   10.5807  -27.2226 C.ar    1  UNL1        0.0611
     22 N          53.1013   11.5111  -27.7509 N.pl3   1  UNL1       -0.3559
     23 C          51.4398    9.7761  -28.1298 C.ar    1  UNL1        0.0112
     24 C          50.5407    8.7919  -27.6851 C.ar    1  UNL1       -0.0204
     25 C          50.3547    8.6298  -26.3092 C.ar    1  UNL1        0.0086
     26 C          51.0382    9.4229  -25.3833 C.ar    1  UNL1        0.0774
     27 CL         50.7588    9.0535  -23.6842 Cl      1  UNL1       -0.0808
     28 H          53.1347   11.7086  -28.7761 H       1  UNL1        0.1424
     29 H          53.8679   11.9177  -27.1755 H       1  UNL1        0.1424
     30 C          49.7927    7.8477  -28.6124 C.3     1  UNL1        0.0224
     31 C          50.2831    7.8204  -30.0532 C.3     1  UNL1        0.0047
     32 C          48.9250    8.4265  -29.7230 C.3     1  UNL1        0.0047
     33 O          52.5044   14.1894  -21.8245 O.3     1  UNL1       -0.4513
     34 C          52.0308   13.7512  -20.5836 C.ar    1  UNL1        0.1580
     35 C          50.7114   14.0429  -20.2247 C.ar    1  UNL1        0.0677
     36 C          50.2093   13.6428  -18.9852 C.ar    1  UNL1        0.1398
     37 F          48.9316   13.9573  -18.6559 F       1  UNL1       -0.2044
     38 C          51.0266   12.9359  -18.0864 C.ar    1  UNL1        0.0175
     39 C          52.3456   12.6244  -18.4559 C.ar    1  UNL1        0.0130
     40 C          52.8443   13.0137  -19.7044 C.ar    1  UNL1        0.0919
     41 CL         54.4778   12.5461  -20.1555 Cl      1  UNL1       -0.0791
     42 C          50.5241   12.5884  -16.7113 C.3     1  UNL1        0.1382
     43 C          49.2538   11.8107  -16.8292 C.2     1  UNL1        0.3234
     44 O          48.2922   12.0627  -16.0530 O.2     1  UNL1       -0.2497
     45 O          49.1272   10.8536  -17.8420 O.3     1  UNL1       -0.4215
     46 C          47.8999   10.5795  -18.5190 C.3     1  UNL1        0.3207
     47 O          48.0704    9.4475  -19.3687 O.3     1  UNL1       -0.3070
     48 C          48.5181    9.7745  -20.6763 C.3     1  UNL1        0.2456
     49 C          47.4551   10.6105  -21.4514 C.3     1  UNL1        0.1781
     50 O          46.6246    9.7371  -22.1752 O.3     1  UNL1       -0.3790
     51 C          46.5867   11.4623  -20.4988 C.3     1  UNL1        0.1733
     52 O          46.1456   12.6124  -21.1745 O.3     1  UNL1       -0.3793
     53 C          47.3906   11.8546  -19.2501 C.3     1  UNL1        0.2106
     54 O          46.6288   12.6614  -18.3855 O.3     1  UNL1       -0.3766
     55 H          46.1314   10.2889  -22.8376 H       1  UNL1        0.2106
     56 H          45.3326   12.9323  -20.7030 H       1  UNL1        0.2105
     57 H          45.8122   12.1537  -18.1380 H       1  UNL1        0.2107
     58 C          49.9144   10.3619  -20.6529 C.2     1  UNL1        0.3439
     59 O          50.2792   11.2271  -21.4942 O.2     1  UNL1       -0.2475
     60 O          50.8170    9.9206  -19.6903 O.3     1  UNL1       -0.4785
     61 H          51.7575   10.2947  -19.6492 H       1  UNL1        0.2951
@<TRIPOS>BOND
     1    11    12    1
     2    12    13    1
     3    12    14    1
     4    12     7    1
     5     7     8   am
     6     8     9    2
     7     8     1    1
     8     1     2   ar
     9     2     3   ar
    10     3     4   ar
    11     4    33    1
    12    33    34    1
    13    34    35   ar
    14    35    36   ar
    15    36    37    1
    16    36    38   ar
    17    38    42    1
    18    42    43    1
    19    43    44    2
    20    43    45    1
    21    45    46    1
    22    46    47    1
    23    47    48    1
    24    48    58    1
    25    58    59    2
    26    58    60    1
    27    48    49    1
    28    49    50    1
    29    49    51    1
    30    51    52    1
    31    51    53    1
    32    53    54    1
    33    38    39   ar
    34    39    40   ar
    35    40    41    1
    36     4     5   ar
    37     5    15    1
    38    15    17    1
    39    17    18    2
    40    17    19    2
    41    17    20    1
    42    20    21   ar
    43    21    22    1
    44    21    23   ar
    45    23    24   ar
    46    24    30    1
    47    30    31    1
    48    31    32    1
    49    24    25   ar
    50    25    26   ar
    51    26    27    1
    52     5     6   ar
    53     6     1   ar
    54    40    34   ar
    55    26    20   ar
    56    53    46    1
    57    32    30    1
    58     7    10    1
    59    60    61    1
    60    50    55    1
    61    52    56    1
    62    54    57    1
    63    15    16    1
    64    22    28    1
    65    22    29    1
@<TRIPOS>MOLECULE
*****
 61 65 0 0 0
SMALL
GASTEIGER

@<TRIPOS>ATOM
      1 C          50.5045   12.7577  -18.2694 C.ar    1  UNL1        0.0548
      2 C          51.8586   12.8071  -18.6395 C.ar    1  UNL1        0.0077
      3 C          52.2392   13.3578  -19.8650 C.ar    1  UNL1        0.0390
      4 C          51.2723   13.8739  -20.7477 C.ar    1  UNL1        0.1598
      5 C          49.9167   13.8165  -20.3871 C.ar    1  UNL1        0.0993
      6 C          49.5393   13.2563  -19.1594 C.ar    1  UNL1        0.0235
      7 N          49.8246   12.9644  -15.8278 N.am    1  UNL1       -0.3040
      8 C          50.0850   12.1463  -16.9857 C.2     1  UNL1        0.2458
      9 O          49.9423   10.8953  -16.9219 O.2     1  UNL1       -0.2701
     10 H          49.7115   13.9915  -15.9846 H       1  UNL1        0.1496
     11 C          51.0523   11.8897  -13.9657 C.3     1  UNL1        0.0196
     12 C          49.7017   12.4556  -14.4472 C.3     1  UNL1        0.0572
     13 C          49.3003   13.6192  -13.5170 C.3     1  UNL1        0.0196
     14 C          48.6091   11.3712  -14.3724 C.3     1  UNL1        0.0196
     15 N          48.9111   14.2322  -21.3150 N.pl3   1  UNL1       -0.2120
     16 H          49.0277   15.1432  -21.8120 H       1  UNL1        0.1738
     17 S          47.9312   13.0244  -22.0744 S.O2    1  UNL1        0.0757
     18 O          48.6545   11.7084  -22.0497 O.2     1  UNL1       -0.1499
     19 O          46.6510   12.8507  -21.3058 O.2     1  UNL1       -0.1499
     20 C          47.5650   13.5872  -23.7270 C.ar    1  UNL1        0.1484
     21 C          47.5055   12.6538  -24.7952 C.ar    1  UNL1        0.0611
     22 N          47.7330   11.2505  -24.5939 N.pl3   1  UNL1       -0.3559
     23 C          47.1708   13.0864  -26.0864 C.ar    1  UNL1        0.0112
     24 C          46.8621   14.4326  -26.3465 C.ar    1  UNL1       -0.0204
     25 C          46.8991   15.3431  -25.2864 C.ar    1  UNL1        0.0086
     26 C          47.2362   14.9400  -23.9913 C.ar    1  UNL1        0.0774
     27 CL         47.1675   16.1830  -22.7457 Cl      1  UNL1       -0.0808
     28 H          47.8271   10.6085  -25.4124 H       1  UNL1        0.1424
     29 H          47.6836   10.8012  -23.6559 H       1  UNL1        0.1424
     30 C          46.4338   14.9549  -27.7083 C.3     1  UNL1        0.0224
     31 C          46.6284   16.4487  -27.9271 C.3     1  UNL1        0.0047
     32 C          45.2227   15.8740  -27.8064 C.3     1  UNL1        0.0047
     33 O          51.6137   14.3919  -22.0083 O.3     1  UNL1       -0.4513
     34 C          51.6280   13.6517  -23.1950 C.ar    1  UNL1        0.1580
     35 C          52.1547   12.3568  -23.1752 C.ar    1  UNL1        0.0677
     36 C          52.2077   11.5954  -24.3440 C.ar    1  UNL1        0.1398
     37 F          52.7425   10.3497  -24.2987 F       1  UNL1       -0.2044
     38 C          51.7252   12.1235  -25.5538 C.ar    1  UNL1        0.0175
     39 C          51.1765   13.4166  -25.5692 C.ar    1  UNL1        0.0130
     40 C          51.1110   14.1744  -24.3942 C.ar    1  UNL1        0.0919
     41 CL         50.3561   15.7613  -24.4420 Cl      1  UNL1       -0.0791
     42 C          51.8693   11.3476  -26.8351 C.3     1  UNL1        0.1382
     43 C          50.7774   10.3320  -26.9255 C.2     1  UNL1        0.3234
     44 O          49.7146   10.4963  -26.2666 O.2     1  UNL1       -0.2497
     45 O          50.9249    9.2415  -27.7898 O.3     1  UNL1       -0.4215
     46 C          49.8346    8.4308  -28.2298 C.3     1  UNL1        0.3207
     47 O          50.3371    7.1996  -28.7439 O.3     1  UNL1       -0.3070
     48 C          50.6416    7.2391  -30.1305 C.3     1  UNL1        0.2456
     49 C          49.3599    7.4559  -30.9906 C.3     1  UNL1        0.1781
     50 O          48.8326    6.2033  -31.3505 O.3     1  UNL1       -0.3790
     51 C          48.2830    8.2582  -30.2264 C.3     1  UNL1        0.1733
     52 O          47.4957    8.9726  -31.1449 O.3     1  UNL1       -0.3793
     53 C          48.9426    9.2221  -29.2288 C.3     1  UNL1        0.2106
     54 O          47.9799    9.9887  -28.5473 O.3     1  UNL1       -0.3766
     55 H          48.1824    6.3628  -32.0842 H       1  UNL1        0.2106
     56 H          46.6303    9.1647  -30.6979 H       1  UNL1        0.2105
     57 H          47.3659    9.3613  -28.0832 H       1  UNL1        0.2107
     58 C          51.7854    8.1896  -30.4196 C.2     1  UNL1        0.3439
     59 O          51.8858    8.7816  -31.5282 O.2     1  UNL1       -0.2475
     60 O          52.7545    8.3974  -29.4430 O.3     1  UNL1       -0.4785
     61 H          53.5309    9.0270  -29.6067 H       1  UNL1        0.2951
@<TRIPOS>BOND
     1    11    12    1
     2    12    13    1
     3    12    14    1
     4    12     7    1
     5     7     8   am
     6     8     9    2
     7     8     1    1
     8     1     2   ar
     9     2     3   ar
    10     3     4   ar
    11     4    33    1
    12    33    34    1
    13    34    35   ar
    14    35    36   ar
    15    36    37    1
    16    36    38   ar
    17    38    42    1
    18    42    43    1
    19    43    44    2
    20    43    45    1
    21    45    46    1
    22    46    47    1
    23    47    48    1
    24    48    58    1
    25    58    59    2
    26    58    60    1
    27    48    49    1
    28    49    50    1
    29    49    51    1
    30    51    52    1
    31    51    53    1
    32    53    54    1
    33    38    39   ar
    34    39    40   ar
    35    40    41    1
    36     4     5   ar
    37     5    15    1
    38    15    17    1
    39    17    18    2
    40    17    19    2
    41    17    20    1
    42    20    21   ar
    43    21    22    1
    44    21    23   ar
    45    23    24   ar
    46    24    30    1
    47    30    31    1
    48    31    32    1
    49    24    25   ar
    50    25    26   ar
    51    26    27    1
    52     5     6   ar
    53     6     1   ar
    54    40    34   ar
    55    26    20   ar
    56    53    46    1
    57    32    30    1
    58     7    10    1
    59    60    61    1
    60    50    55    1
    61    52    56    1
    62    54    57    1
    63    15    16    1
    64    22    28    1
    65    22    29    1
@<TRIPOS>MOLECULE
*****
 61 65 0 0 0
SMALL
GASTEIGER

@<TRIPOS>ATOM
      1 C          48.1818   12.5639  -18.5751 C.ar    1  UNL1        0.0548
      2 C          47.4674   11.3727  -18.7840 C.ar    1  UNL1        0.0077
      3 C          47.3735   10.8169  -20.0616 C.ar    1  UNL1        0.0390
      4 C          47.9949   11.4402  -21.1596 C.ar    1  UNL1        0.1598
      5 C          48.7006   12.6369  -20.9577 C.ar    1  UNL1        0.0993
      6 C          48.7857   13.1946  -19.6750 C.ar    1  UNL1        0.0235
      7 N          49.2604   12.7580  -16.2805 N.am    1  UNL1       -0.3040
      8 C          48.2616   13.1813  -17.2296 C.2     1  UNL1        0.2458
      9 O          47.4502   14.0980  -16.9283 O.2     1  UNL1       -0.2701
     10 H          50.0557   12.1873  -16.6468 H       1  UNL1        0.1496
     11 C          48.4015   14.3443  -14.5847 C.3     1  UNL1        0.0196
     12 C          49.2415   13.0770  -14.8389 C.3     1  UNL1        0.0572
     13 C          48.5978   11.9026  -14.0730 C.3     1  UNL1        0.0196
     14 C          50.6781   13.2725  -14.3158 C.3     1  UNL1        0.0196
     15 N          49.2438   13.3447  -22.0753 N.pl3   1  UNL1       -0.2120
     16 H          48.8004   14.2437  -22.3680 H       1  UNL1        0.1738
     17 S          50.9081   13.1016  -22.4834 S.O2    1  UNL1        0.0757
     18 O          51.5125   14.4089  -22.9092 O.2     1  UNL1       -0.1499
     19 O          51.6644   12.6271  -21.2741 O.2     1  UNL1       -0.1499
     20 C          50.9748   11.8553  -23.7577 C.ar    1  UNL1        0.1484
     21 C          50.7696   10.4906  -23.4240 C.ar    1  UNL1        0.0611
     22 N          50.5065   10.0672  -22.0775 N.pl3   1  UNL1       -0.3559
     23 C          50.7739    9.5144  -24.4306 C.ar    1  UNL1        0.0112
     24 C          50.9508    9.8612  -25.7810 C.ar    1  UNL1       -0.0204
     25 C          51.1287   11.2089  -26.1066 C.ar    1  UNL1        0.0086
     26 C          51.1356   12.2014  -25.1225 C.ar    1  UNL1        0.0774
     27 CL         51.2947   13.8608  -25.6903 Cl      1  UNL1       -0.0808
     28 H          50.5037    9.0512  -21.8350 H       1  UNL1        0.1424
     29 H          50.1861   10.7219  -21.3340 H       1  UNL1        0.1424
     30 C          50.9059    8.8608  -26.9246 C.3     1  UNL1        0.0224
     31 C          51.3508    9.3946  -28.2790 C.3     1  UNL1        0.0047
     32 C          49.8861    9.0504  -28.0406 C.3     1  UNL1        0.0047
     33 O          47.8820   10.9358  -22.4660 O.3     1  UNL1       -0.4513
     34 C          47.2234   11.5851  -23.5152 C.ar    1  UNL1        0.1580
     35 C          47.7064   11.4229  -24.8172 C.ar    1  UNL1        0.0677
     36 C          47.0903   12.0732  -25.8877 C.ar    1  UNL1        0.1398
     37 F          47.5931   11.9132  -27.1372 F       1  UNL1       -0.2044
     38 C          45.9718   12.8950  -25.6662 C.ar    1  UNL1        0.0175
     39 C          45.4736   13.0409  -24.3609 C.ar    1  UNL1        0.0130
     40 C          46.0833   12.3777  -23.2897 C.ar    1  UNL1        0.0919
     41 CL         45.3890   12.5328  -21.6821 Cl      1  UNL1       -0.0791
     42 C          45.3640   13.6763  -26.7996 C.3     1  UNL1        0.1382
     43 C          46.3512   14.6829  -27.2937 C.2     1  UNL1        0.3234
     44 O          46.2691   15.1103  -28.4775 O.2     1  UNL1       -0.2497
     45 O          47.3175   15.1844  -26.4147 O.3     1  UNL1       -0.4215
     46 C          48.4784   15.8979  -26.8426 C.3     1  UNL1        0.3207
     47 O          49.4938   15.7906  -25.8476 O.3     1  UNL1       -0.3070
     48 C          49.4410   16.8122  -24.8623 C.3     1  UNL1        0.2456
     49 C          49.7306   18.2146  -25.4778 C.3     1  UNL1        0.1781
     50 O          51.1081   18.4797  -25.3855 O.3     1  UNL1       -0.3790
     51 C          49.2976   18.2936  -26.9588 C.3     1  UNL1        0.1733
     52 O          48.9554   19.6193  -27.2737 O.3     1  UNL1       -0.3793
     53 C          48.1048   17.3608  -27.2172 C.3     1  UNL1        0.2106
     54 O          47.6716   17.4445  -28.5529 O.3     1  UNL1       -0.3766
     55 H          51.2275   19.4520  -25.5492 H       1  UNL1        0.2106
     56 H          49.0424   19.7158  -28.2579 H       1  UNL1        0.2105
     57 H          48.4401   17.2094  -29.1362 H       1  UNL1        0.2107
     58 C          48.1774   16.7163  -24.0321 C.2     1  UNL1        0.3439
     59 O          47.4694   17.7311  -23.7904 O.2     1  UNL1       -0.2475
     60 O          47.8030   15.4813  -23.5117 O.3     1  UNL1       -0.4785
     61 H          46.9634   15.3855  -22.9531 H       1  UNL1        0.2951
@<TRIPOS>BOND
     1    11    12    1
     2    12    13    1
     3    12    14    1
     4    12     7    1
     5     7     8   am
     6     8     9    2
     7     8     1    1
     8     1     2   ar
     9     2     3   ar
    10     3     4   ar
    11     4    33    1
    12    33    34    1
    13    34    35   ar
    14    35    36   ar
    15    36    37    1
    16    36    38   ar
    17    38    42    1
    18    42    43    1
    19    43    44    2
    20    43    45    1
    21    45    46    1
    22    46    47    1
    23    47    48    1
    24    48    58    1
    25    58    59    2
    26    58    60    1
    27    48    49    1
    28    49    50    1
    29    49    51    1
    30    51    52    1
    31    51    53    1
    32    53    54    1
    33    38    39   ar
    34    39    40   ar
    35    40    41    1
    36     4     5   ar
    37     5    15    1
    38    15    17    1
    39    17    18    2
    40    17    19    2
    41    17    20    1
    42    20    21   ar
    43    21    22    1
    44    21    23   ar
    45    23    24   ar
    46    24    30    1
    47    30    31    1
    48    31    32    1
    49    24    25   ar
    50    25    26   ar
    51    26    27    1
    52     5     6   ar
    53     6     1   ar
    54    40    34   ar
    55    26    20   ar
    56    53    46    1
    57    32    30    1
    58     7    10    1
    59    60    61    1
    60    50    55    1
    61    52    56    1
    62    54    57    1
    63    15    16    1
    64    22    28    1
    65    22    29    1
