@<TRIPOS>MOLECULE
*****
 52 57 0 0 0
SMALL
GASTEIGER

@<TRIPOS>ATOM
      1 O         -60.5684  -45.7932  -26.7691 O.2     1  UNL1       -0.2701
      2 C         -61.7403  -45.3779  -26.5558 C.2     1  UNL1        0.2483
      3 N         -62.7920  -45.6782  -27.4893 N.am    1  UNL1       -0.2945
      4 H         -63.7536  -45.3253  -27.2830 H       1  UNL1        0.1501
      5 C         -61.9938  -44.5140  -25.3857 C.ar    1  UNL1        0.0806
      6 C         -61.6586  -44.9802  -24.1046 C.ar    1  UNL1        0.0061
      7 C         -61.8422  -44.1726  -22.9714 C.ar    1  UNL1        0.0206
      8 C         -62.3958  -42.8831  -23.1270 C.ar    1  UNL1        0.0485
      9 C         -62.7480  -42.4267  -24.4032 C.ar    1  UNL1        0.0440
     10 C         -62.5505  -43.2317  -25.5270 C.ar    1  UNL1        0.1457
     11 F         -62.9433  -42.7712  -26.7416 F       1  UNL1       -0.2040
     12 N         -62.5982  -42.0182  -22.0023 N.pl3   1  UNL1       -0.3042
     13 C         -63.9318  -41.9253  -21.4007 C.3     1  UNL1        0.1123
     14 C         -63.9287  -41.0111  -20.1705 C.3     1  UNL1        0.1136
     15 N         -63.2256  -39.7498  -20.4594 N.pl3   1  UNL1       -0.2897
     16 C         -61.9813  -39.7682  -21.2508 C.3     1  UNL1        0.1136
     17 C         -61.4918  -41.1954  -21.5088 C.3     1  UNL1        0.1123
     18 C         -63.6669  -38.5261  -19.8275 C.ar    1  UNL1        0.1318
     19 C         -64.7402  -38.5161  -18.9190 C.ar    1  UNL1        0.0343
     20 C         -65.1378  -37.3139  -18.3317 C.ar    1  UNL1        0.0083
     21 C         -64.4840  -36.1169  -18.6575 C.ar    1  UNL1        0.0906
     22 C         -63.3991  -36.1714  -19.5451 C.ar    1  UNL1        0.1041
     23 N         -63.0288  -37.3537  -20.1034 N.ar    1  UNL1       -0.2292
     24 C         -64.8711  -34.8212  -17.9914 C.3     1  UNL1        0.4200
     25 F         -65.1403  -35.0241  -16.6489 F       1  UNL1       -0.1658
     26 F         -63.8305  -33.9192  -18.1111 F       1  UNL1       -0.1658
     27 F         -66.0021  -34.2866  -18.5839 F       1  UNL1       -0.1658
     28 C         -61.4598  -44.7251  -21.6200 C.3     1  UNL1        0.1648
     29 O         -62.5993  -45.1820  -20.9446 O.3     1  UNL1       -0.3772
     30 H         -63.0801  -44.3757  -20.6223 H       1  UNL1        0.2109
     31 C         -62.5075  -46.0865  -28.8707 C.3     1  UNL1        0.1535
     32 C         -63.5791  -47.0197  -29.3681 C.2     1  UNL1        0.2443
     33 O         -63.7476  -48.1357  -28.8041 O.2     1  UNL1       -0.2730
     34 N         -64.4675  -46.5938  -30.4137 N.am    1  UNL1       -0.2825
     35 H         -64.5143  -45.5713  -30.6263 H       1  UNL1        0.1549
     36 C         -65.3743  -47.4687  -31.1065 C.ar    1  UNL1        0.0535
     37 C         -65.9085  -48.6132  -30.4900 C.ar    1  UNL1        0.0353
     38 C         -66.7664  -49.4473  -31.2117 C.ar    1  UNL1        0.1002
     39 N         -67.0699  -49.1601  -32.5050 N.ar    1  UNL1       -0.2422
     40 C         -66.5535  -48.0705  -33.1321 C.ar    1  UNL1        0.1002
     41 C         -65.6907  -47.2111  -32.4475 C.ar    1  UNL1        0.0353
     42 C         -62.4155  -44.8527  -29.7873 C.3     1  UNL1        0.0569
     43 C         -61.0606  -44.7422  -30.4276 C.ar    1  UNL1       -0.0017
     44 C         -59.8707  -45.2708  -29.9336 C.ar    1  UNL1        0.0681
     45 N         -58.8765  -45.1253  -30.8387 N.ar    1  UNL1       -0.3523
     46 C         -59.4306  -44.5219  -31.9044 C.ar    1  UNL1        0.0563
     47 C         -58.8106  -44.2065  -33.1124 C.ar    1  UNL1        0.0170
     48 C         -59.5953  -43.6151  -34.1192 C.ar    1  UNL1        0.0015
     49 C         -60.9681  -43.3623  -33.9012 C.ar    1  UNL1        0.0001
     50 C         -61.5687  -43.6979  -32.6743 C.ar    1  UNL1        0.0012
     51 C         -60.7629  -44.2740  -31.6922 C.ar    1  UNL1        0.0131
     52 H         -57.8896  -45.4523  -30.7408 H       1  UNL1        0.1660
@<TRIPOS>BOND
     1     1     2    2
     2     2     3   am
     3     3    31    1
     4    31    42    1
     5    42    43    1
     6    43    44   ar
     7    44    45   ar
     8    45    46   ar
     9    46    47   ar
    10    47    48   ar
    11    48    49   ar
    12    49    50   ar
    13    50    51   ar
    14    31    32    1
    15    32    33    2
    16    32    34   am
    17    34    36    1
    18    36    37   ar
    19    37    38   ar
    20    38    39   ar
    21    39    40   ar
    22    40    41   ar
    23     2     5    1
    24     5     6   ar
    25     6     7   ar
    26     7    28    1
    27    28    29    1
    28     7     8   ar
    29     8    12    1
    30    12    13    1
    31    13    14    1
    32    14    15    1
    33    15    18    1
    34    18    19   ar
    35    19    20   ar
    36    20    21   ar
    37    21    24    1
    38    24    25    1
    39    24    26    1
    40    24    27    1
    41    21    22   ar
    42    22    23   ar
    43    15    16    1
    44    16    17    1
    45     8     9   ar
    46     9    10   ar
    47    10    11    1
    48    51    43   ar
    49    41    36   ar
    50    10     5   ar
    51    51    46   ar
    52    17    12    1
    53    23    18   ar
    54     3     4    1
    55    45    52    1
    56    34    35    1
    57    29    30    1
@<TRIPOS>MOLECULE
*****
 52 57 0 0 0
SMALL
GASTEIGER

@<TRIPOS>ATOM
      1 O         -60.7930  -47.6746  -24.9762 O.2     1  UNL1       -0.2701
      2 C         -61.6394  -46.7641  -25.1905 C.2     1  UNL1        0.2483
      3 N         -62.3428  -46.7152  -26.4436 N.am    1  UNL1       -0.2945
      4 H         -63.0420  -45.9526  -26.5901 H       1  UNL1        0.1501
      5 C         -61.8317  -45.7095  -24.1753 C.ar    1  UNL1        0.0806
      6 C         -62.2132  -44.4230  -24.5880 C.ar    1  UNL1        0.0061
      7 C         -62.4496  -43.4047  -23.6515 C.ar    1  UNL1        0.0206
      8 C         -62.2749  -43.6786  -22.2774 C.ar    1  UNL1        0.0485
      9 C         -61.8753  -44.9568  -21.8683 C.ar    1  UNL1        0.0440
     10 C         -61.6543  -45.9680  -22.8058 C.ar    1  UNL1        0.1457
     11 F         -61.2271  -47.1815  -22.3740 F       1  UNL1       -0.2040
     12 N         -62.5087  -42.6746  -21.2818 N.pl3   1  UNL1       -0.3042
     13 C         -63.8678  -42.4764  -20.7695 C.3     1  UNL1        0.1123
     14 C         -63.9004  -41.4148  -19.6643 C.3     1  UNL1        0.1136
     15 N         -63.1469  -40.2163  -20.0697 N.pl3   1  UNL1       -0.2897
     16 C         -61.8651  -40.3625  -20.7842 C.3     1  UNL1        0.1136
     17 C         -61.4051  -41.8215  -20.8356 C.3     1  UNL1        0.1123
     18 C         -63.5836  -38.9130  -19.6199 C.ar    1  UNL1        0.1318
     19 C         -64.5727  -38.7727  -18.6303 C.ar    1  UNL1        0.0343
     20 C         -64.9689  -37.4973  -18.2247 C.ar    1  UNL1        0.0083
     21 C         -64.3985  -36.3588  -18.8119 C.ar    1  UNL1        0.0906
     22 C         -63.3941  -36.5389  -19.7746 C.ar    1  UNL1        0.1041
     23 N         -63.0233  -37.7905  -20.1526 N.ar    1  UNL1       -0.2292
     24 C         -64.7814  -34.9773  -18.3462 C.3     1  UNL1        0.4200
     25 F         -65.3923  -35.0326  -17.1054 F       1  UNL1       -0.1658
     26 F         -63.6446  -34.1963  -18.2545 F       1  UNL1       -0.1658
     27 F         -65.6625  -34.3886  -19.2368 F       1  UNL1       -0.1658
     28 C         -62.8616  -42.0422  -24.1532 C.3     1  UNL1        0.1648
     29 O         -62.6624  -41.9564  -25.5375 O.3     1  UNL1       -0.3772
     30 H         -61.6851  -41.8545  -25.6775 H       1  UNL1        0.2109
     31 C         -61.8466  -47.4108  -27.6376 C.3     1  UNL1        0.1535
     32 C         -62.9544  -47.5703  -28.6445 C.2     1  UNL1        0.2443
     33 O         -63.4051  -48.7203  -28.9014 O.2     1  UNL1       -0.2730
     34 N         -63.5592  -46.4064  -29.2308 N.am    1  UNL1       -0.2825
     35 H         -63.3951  -45.4853  -28.7643 H       1  UNL1        0.1549
     36 C         -64.4628  -46.4445  -30.3487 C.ar    1  UNL1        0.0535
     37 C         -64.9611  -47.6587  -30.8514 C.ar    1  UNL1        0.0353
     38 C         -65.8172  -47.6474  -31.9556 C.ar    1  UNL1        0.1002
     39 N         -66.1535  -46.4708  -32.5469 N.ar    1  UNL1       -0.2422
     40 C         -65.6720  -45.2833  -32.0936 C.ar    1  UNL1        0.1002
     41 C         -64.8123  -45.2498  -30.9930 C.ar    1  UNL1        0.0353
     42 C         -60.6733  -46.6342  -28.2629 C.3     1  UNL1        0.0569
     43 C         -60.9447  -45.1565  -28.2928 C.ar    1  UNL1       -0.0017
     44 C         -60.7884  -44.2688  -27.2313 C.ar    1  UNL1        0.0681
     45 N         -60.9649  -42.9950  -27.6497 N.ar    1  UNL1       -0.3523
     46 C         -61.2180  -43.0694  -28.9677 C.ar    1  UNL1        0.0563
     47 C         -61.4187  -42.0085  -29.8495 C.ar    1  UNL1        0.0170
     48 C         -61.6224  -42.3125  -31.2079 C.ar    1  UNL1        0.0015
     49 C         -61.6133  -43.6541  -31.6506 C.ar    1  UNL1        0.0001
     50 C         -61.4012  -44.7042  -30.7389 C.ar    1  UNL1        0.0012
     51 C         -61.2117  -44.3720  -29.3975 C.ar    1  UNL1        0.0131
     52 H         -60.8817  -42.1300  -27.0708 H       1  UNL1        0.1660
@<TRIPOS>BOND
     1     1     2    2
     2     2     3   am
     3     3    31    1
     4    31    42    1
     5    42    43    1
     6    43    44   ar
     7    44    45   ar
     8    45    46   ar
     9    46    47   ar
    10    47    48   ar
    11    48    49   ar
    12    49    50   ar
    13    50    51   ar
    14    31    32    1
    15    32    33    2
    16    32    34   am
    17    34    36    1
    18    36    37   ar
    19    37    38   ar
    20    38    39   ar
    21    39    40   ar
    22    40    41   ar
    23     2     5    1
    24     5     6   ar
    25     6     7   ar
    26     7    28    1
    27    28    29    1
    28     7     8   ar
    29     8    12    1
    30    12    13    1
    31    13    14    1
    32    14    15    1
    33    15    18    1
    34    18    19   ar
    35    19    20   ar
    36    20    21   ar
    37    21    24    1
    38    24    25    1
    39    24    26    1
    40    24    27    1
    41    21    22   ar
    42    22    23   ar
    43    15    16    1
    44    16    17    1
    45     8     9   ar
    46     9    10   ar
    47    10    11    1
    48    51    43   ar
    49    41    36   ar
    50    10     5   ar
    51    51    46   ar
    52    17    12    1
    53    23    18   ar
    54     3     4    1
    55    45    52    1
    56    34    35    1
    57    29    30    1
@<TRIPOS>MOLECULE
*****
 52 57 0 0 0
SMALL
GASTEIGER

@<TRIPOS>ATOM
      1 O         -61.1547  -42.1137  -19.4546 O.2     1  UNL1       -0.2701
      2 C         -61.9537  -41.6531  -20.3154 C.2     1  UNL1        0.2483
      3 N         -62.9701  -40.7139  -19.9249 N.am    1  UNL1       -0.2945
      4 H         -63.6138  -40.3456  -20.6610 H       1  UNL1        0.1501
      5 C         -61.8826  -42.1550  -21.7020 C.ar    1  UNL1        0.0806
      6 C         -61.0660  -43.2602  -21.9893 C.ar    1  UNL1        0.0061
      7 C         -61.0052  -43.7956  -23.2854 C.ar    1  UNL1        0.0206
      8 C         -61.7598  -43.1931  -24.3155 C.ar    1  UNL1        0.0485
      9 C         -62.5587  -42.0786  -24.0318 C.ar    1  UNL1        0.0440
     10 C         -62.6233  -41.5598  -22.7369 C.ar    1  UNL1        0.1457
     11 F         -63.3755  -40.4533  -22.5098 F       1  UNL1       -0.2040
     12 N         -61.7359  -43.7051  -25.6539 N.pl3   1  UNL1       -0.3042
     13 C         -60.5070  -44.3203  -26.1639 C.3     1  UNL1        0.1123
     14 C         -60.7025  -44.8704  -27.5811 C.3     1  UNL1        0.1136
     15 N         -61.3702  -43.8769  -28.4389 N.pl3   1  UNL1       -0.2897
     16 C         -62.4837  -43.0733  -27.9010 C.3     1  UNL1        0.1136
     17 C         -62.9128  -43.5529  -26.5121 C.3     1  UNL1        0.1123
     18 C         -61.0416  -43.8134  -29.8459 C.ar    1  UNL1        0.1318
     19 C         -61.8279  -43.0769  -30.7496 C.ar    1  UNL1        0.0343
     20 C         -61.4790  -43.0422  -32.1006 C.ar    1  UNL1        0.0083
     21 C         -60.3608  -43.7520  -32.5613 C.ar    1  UNL1        0.0906
     22 C         -59.5844  -44.4511  -31.6252 C.ar    1  UNL1        0.1041
     23 N         -59.9425  -44.4693  -30.3144 N.ar    1  UNL1       -0.2292
     24 C         -59.9451  -43.6807  -34.0085 C.3     1  UNL1        0.4200
     25 F         -61.0533  -43.5590  -34.8290 F       1  UNL1       -0.1658
     26 F         -59.1250  -42.5835  -34.1931 F       1  UNL1       -0.1658
     27 F         -59.2579  -44.8247  -34.3759 F       1  UNL1       -0.1658
     28 C         -60.1131  -44.9872  -23.5344 C.3     1  UNL1        0.1648
     29 O         -58.8249  -44.7377  -23.0431 O.3     1  UNL1       -0.3772
     30 H         -58.3919  -44.1168  -23.6851 H       1  UNL1        0.2109
     31 C         -63.3948  -40.5697  -18.5268 C.3     1  UNL1        0.1535
     32 C         -64.0666  -39.2380  -18.3222 C.2     1  UNL1        0.2443
     33 O         -64.9905  -39.1281  -17.4700 O.2     1  UNL1       -0.2730
     34 N         -63.5852  -38.0804  -19.0237 N.am    1  UNL1       -0.2825
     35 H         -62.6357  -38.1342  -19.4579 H       1  UNL1        0.1549
     36 C         -64.2774  -36.8209  -19.0703 C.ar    1  UNL1        0.0535
     37 C         -63.7380  -35.6623  -18.4855 C.ar    1  UNL1        0.0353
     38 C         -64.4590  -34.4664  -18.5343 C.ar    1  UNL1        0.1002
     39 N         -65.6796  -34.4289  -19.1310 N.ar    1  UNL1       -0.2422
     40 C         -66.2337  -35.5378  -19.6883 C.ar    1  UNL1        0.1002
     41 C         -65.5471  -36.7540  -19.6604 C.ar    1  UNL1        0.0353
     42 C         -64.3536  -41.7096  -18.1366 C.3     1  UNL1        0.0569
     43 C         -65.0254  -42.3016  -19.3434 C.ar    1  UNL1       -0.0017
     44 C         -65.2330  -43.6566  -19.5885 C.ar    1  UNL1        0.0681
     45 N         -66.0075  -43.8260  -20.6841 N.ar    1  UNL1       -0.3523
     46 C         -66.3014  -42.5907  -21.1251 C.ar    1  UNL1        0.0563
     47 C         -67.1176  -42.2517  -22.2031 C.ar    1  UNL1        0.0170
     48 C         -67.3300  -40.8854  -22.4624 C.ar    1  UNL1        0.0015
     49 C         -66.7350  -39.9001  -21.6432 C.ar    1  UNL1        0.0001
     50 C         -65.9216  -40.2719  -20.5575 C.ar    1  UNL1        0.0012
     51 C         -65.7219  -41.6338  -20.3313 C.ar    1  UNL1        0.0131
     52 H         -66.3395  -44.7333  -21.0803 H       1  UNL1        0.1660
@<TRIPOS>BOND
     1     1     2    2
     2     2     3   am
     3     3    31    1
     4    31    42    1
     5    42    43    1
     6    43    44   ar
     7    44    45   ar
     8    45    46   ar
     9    46    47   ar
    10    47    48   ar
    11    48    49   ar
    12    49    50   ar
    13    50    51   ar
    14    31    32    1
    15    32    33    2
    16    32    34   am
    17    34    36    1
    18    36    37   ar
    19    37    38   ar
    20    38    39   ar
    21    39    40   ar
    22    40    41   ar
    23     2     5    1
    24     5     6   ar
    25     6     7   ar
    26     7    28    1
    27    28    29    1
    28     7     8   ar
    29     8    12    1
    30    12    13    1
    31    13    14    1
    32    14    15    1
    33    15    18    1
    34    18    19   ar
    35    19    20   ar
    36    20    21   ar
    37    21    24    1
    38    24    25    1
    39    24    26    1
    40    24    27    1
    41    21    22   ar
    42    22    23   ar
    43    15    16    1
    44    16    17    1
    45     8     9   ar
    46     9    10   ar
    47    10    11    1
    48    51    43   ar
    49    41    36   ar
    50    10     5   ar
    51    51    46   ar
    52    17    12    1
    53    23    18   ar
    54     3     4    1
    55    45    52    1
    56    34    35    1
    57    29    30    1
@<TRIPOS>MOLECULE
*****
 52 57 0 0 0
SMALL
GASTEIGER

@<TRIPOS>ATOM
      1 O         -60.2699  -46.3924  -26.2346 O.2     1  UNL1       -0.2701
      2 C         -61.4196  -45.8908  -26.1011 C.2     1  UNL1        0.2483
      3 N         -62.4454  -46.1734  -27.0684 N.am    1  UNL1       -0.2945
      4 H         -63.3894  -45.7480  -26.9283 H       1  UNL1        0.1501
      5 C         -61.6674  -44.9488  -24.9916 C.ar    1  UNL1        0.0806
      6 C         -61.1195  -45.2197  -23.7278 C.ar    1  UNL1        0.0061
      7 C         -61.2942  -44.3273  -22.6586 C.ar    1  UNL1        0.0206
      8 C         -62.0544  -43.1543  -22.8578 C.ar    1  UNL1        0.0485
      9 C         -62.6170  -42.8950  -24.1137 C.ar    1  UNL1        0.0440
     10 C         -62.4279  -43.7819  -25.1756 C.ar    1  UNL1        0.1457
     11 F         -63.0240  -43.5175  -26.3658 F       1  UNL1       -0.2040
     12 N         -62.2575  -42.2092  -21.7998 N.pl3   1  UNL1       -0.3042
     13 C         -63.5410  -42.1910  -21.0917 C.3     1  UNL1        0.1123
     14 C         -63.5372  -41.1665  -19.9517 C.3     1  UNL1        0.1136
     15 N         -62.9982  -39.8757  -20.4121 N.pl3   1  UNL1       -0.2897
     16 C         -61.8264  -39.8471  -21.3070 C.3     1  UNL1        0.1136
     17 C         -61.2094  -41.2371  -21.4815 C.3     1  UNL1        0.1123
     18 C         -63.5158  -38.6463  -19.8531 C.ar    1  UNL1        0.1318
     19 C         -64.5950  -38.6484  -18.9516 C.ar    1  UNL1        0.0343
     20 C         -65.0673  -37.4405  -18.4357 C.ar    1  UNL1        0.0083
     21 C         -64.4825  -36.2273  -18.8263 C.ar    1  UNL1        0.0906
     22 C         -63.3893  -36.2677  -19.7045 C.ar    1  UNL1        0.1041
     23 N         -62.9456  -37.4558  -20.1927 N.ar    1  UNL1       -0.2292
     24 C         -64.9505  -34.9211  -18.2371 C.3     1  UNL1        0.4200
     25 F         -63.9455  -33.9711  -18.2966 F       1  UNL1       -0.1658
     26 F         -66.0438  -34.4658  -18.9500 F       1  UNL1       -0.1658
     27 F         -65.3129  -35.0856  -16.9114 F       1  UNL1       -0.1658
     28 C         -60.6785  -44.6688  -21.3237 C.3     1  UNL1        0.1648
     29 O         -60.5973  -46.0592  -21.1704 O.3     1  UNL1       -0.3772
     30 H         -61.5167  -46.3768  -20.9727 H       1  UNL1        0.2109
     31 C         -62.1263  -46.6751  -28.4109 C.3     1  UNL1        0.1535
     32 C         -63.2663  -46.3973  -29.3542 C.2     1  UNL1        0.2443
     33 O         -63.5691  -47.2470  -30.2364 O.2     1  UNL1       -0.2730
     34 N         -64.0650  -45.2158  -29.1805 N.am    1  UNL1       -0.2825
     35 H         -63.9995  -44.7143  -28.2656 H       1  UNL1        0.1549
     36 C         -65.0275  -44.7458  -30.1398 C.ar    1  UNL1        0.0535
     37 C         -65.0940  -45.2797  -31.4382 C.ar    1  UNL1        0.0353
     38 C         -66.0298  -44.7735  -32.3439 C.ar    1  UNL1        0.1002
     39 N         -66.8596  -43.7623  -31.9749 N.ar    1  UNL1       -0.2422
     40 C         -66.8051  -43.2145  -30.7322 C.ar    1  UNL1        0.1002
     41 C         -65.8834  -43.6902  -29.7964 C.ar    1  UNL1        0.0353
     42 C         -60.8356  -46.0202  -28.9362 C.3     1  UNL1        0.0569
     43 C         -61.1320  -44.7850  -29.7390 C.ar    1  UNL1       -0.0017
     44 C         -61.6553  -44.7471  -31.0289 C.ar    1  UNL1        0.0681
     45 N         -61.9463  -43.4752  -31.3844 N.ar    1  UNL1       -0.3523
     46 C         -61.6238  -42.7115  -30.3262 C.ar    1  UNL1        0.0563
     47 C         -61.7921  -41.3337  -30.1976 C.ar    1  UNL1        0.0170
     48 C         -61.4282  -40.7384  -28.9759 C.ar    1  UNL1        0.0015
     49 C         -60.9176  -41.5257  -27.9198 C.ar    1  UNL1        0.0001
     50 C         -60.7654  -42.9154  -28.0757 C.ar    1  UNL1        0.0012
     51 C         -61.1257  -43.4752  -29.3015 C.ar    1  UNL1        0.0131
     52 H         -62.3715  -43.1596  -32.2844 H       1  UNL1        0.1660
@<TRIPOS>BOND
     1     1     2    2
     2     2     3   am
     3     3    31    1
     4    31    42    1
     5    42    43    1
     6    43    44   ar
     7    44    45   ar
     8    45    46   ar
     9    46    47   ar
    10    47    48   ar
    11    48    49   ar
    12    49    50   ar
    13    50    51   ar
    14    31    32    1
    15    32    33    2
    16    32    34   am
    17    34    36    1
    18    36    37   ar
    19    37    38   ar
    20    38    39   ar
    21    39    40   ar
    22    40    41   ar
    23     2     5    1
    24     5     6   ar
    25     6     7   ar
    26     7    28    1
    27    28    29    1
    28     7     8   ar
    29     8    12    1
    30    12    13    1
    31    13    14    1
    32    14    15    1
    33    15    18    1
    34    18    19   ar
    35    19    20   ar
    36    20    21   ar
    37    21    24    1
    38    24    25    1
    39    24    26    1
    40    24    27    1
    41    21    22   ar
    42    22    23   ar
    43    15    16    1
    44    16    17    1
    45     8     9   ar
    46     9    10   ar
    47    10    11    1
    48    51    43   ar
    49    41    36   ar
    50    10     5   ar
    51    51    46   ar
    52    17    12    1
    53    23    18   ar
    54     3     4    1
    55    45    52    1
    56    34    35    1
    57    29    30    1
@<TRIPOS>MOLECULE
*****
 52 57 0 0 0
SMALL
GASTEIGER

@<TRIPOS>ATOM
      1 O         -61.8135  -47.3260  -25.9305 O.2     1  UNL1       -0.2701
      2 C         -62.3417  -46.2034  -26.1587 C.2     1  UNL1        0.2483
      3 N         -62.7720  -45.8670  -27.4888 N.am    1  UNL1       -0.2945
      4 H         -63.2110  -44.9319  -27.6461 H       1  UNL1        0.1501
      5 C         -62.4319  -45.2167  -25.0641 C.ar    1  UNL1        0.0806
      6 C         -62.0987  -45.6100  -23.7583 C.ar    1  UNL1        0.0061
      7 C         -62.1283  -44.6911  -22.6977 C.ar    1  UNL1        0.0206
      8 C         -62.5241  -43.3596  -22.9509 C.ar    1  UNL1        0.0485
      9 C         -62.8752  -42.9735  -24.2503 C.ar    1  UNL1        0.0440
     10 C         -62.8310  -43.8908  -25.3023 C.ar    1  UNL1        0.1457
     11 F         -63.2190  -43.4901  -26.5394 F       1  UNL1       -0.2040
     12 N         -62.5657  -42.3825  -21.9033 N.pl3   1  UNL1       -0.3042
     13 C         -63.7365  -42.3251  -21.0231 C.3     1  UNL1        0.1123
     14 C         -63.5609  -41.2695  -19.9257 C.3     1  UNL1        0.1136
     15 N         -63.0776  -40.0003  -20.4952 N.pl3   1  UNL1       -0.2897
     16 C         -62.0430  -40.0145  -21.5461 C.3     1  UNL1        0.1136
     17 C         -61.4724  -41.4181  -21.7641 C.3     1  UNL1        0.1123
     18 C         -63.4975  -38.7482  -19.9058 C.ar    1  UNL1        0.1318
     19 C         -64.4868  -38.7033  -18.9074 C.ar    1  UNL1        0.0343
     20 C         -64.8665  -37.4747  -18.3649 C.ar    1  UNL1        0.0083
     21 C         -64.2793  -36.2867  -18.8237 C.ar    1  UNL1        0.0906
     22 C         -63.2753  -36.3743  -19.7995 C.ar    1  UNL1        0.1041
     23 N         -62.9208  -37.5819  -20.3120 N.ar    1  UNL1       -0.2292
     24 C         -64.6444  -34.9593  -18.2098 C.3     1  UNL1        0.4200
     25 F         -65.1672  -35.1361  -16.9404 F       1  UNL1       -0.1658
     26 F         -63.5127  -34.1701  -18.1253 F       1  UNL1       -0.1658
     27 F         -65.5916  -34.3086  -18.9814 F       1  UNL1       -0.1658
     28 C         -61.7558  -45.1697  -21.3157 C.3     1  UNL1        0.1648
     29 O         -60.5556  -45.8913  -21.3613 O.3     1  UNL1       -0.3772
     30 H         -60.7727  -46.7783  -21.7501 H       1  UNL1        0.2109
     31 C         -62.2681  -46.5803  -28.6691 C.3     1  UNL1        0.1535
     32 C         -63.3652  -47.4077  -29.2842 C.2     1  UNL1        0.2443
     33 O         -63.5382  -48.5983  -28.9044 O.2     1  UNL1       -0.2730
     34 N         -64.2703  -46.8073  -30.2246 N.am    1  UNL1       -0.2825
     35 H         -64.3059  -45.7634  -30.2675 H       1  UNL1        0.1549
     36 C         -65.2062  -47.5474  -31.0271 C.ar    1  UNL1        0.0535
     37 C         -65.5400  -47.1420  -32.3307 C.ar    1  UNL1        0.0353
     38 C         -66.4737  -47.8793  -33.0635 C.ar    1  UNL1        0.1002
     39 N         -67.0646  -48.9724  -32.5128 N.ar    1  UNL1       -0.2422
     40 C         -66.7747  -49.3768  -31.2480 C.ar    1  UNL1        0.1002
     41 C         -65.8478  -48.6674  -30.4805 C.ar    1  UNL1        0.0353
     42 C         -61.7161  -45.5830  -29.7042 C.3     1  UNL1        0.0569
     43 C         -61.9273  -44.1612  -29.2662 C.ar    1  UNL1       -0.0017
     44 C         -60.9684  -43.3208  -28.7064 C.ar    1  UNL1        0.0681
     45 N         -61.4543  -42.0649  -28.5823 N.ar    1  UNL1       -0.3523
     46 C         -62.7061  -42.1017  -29.0706 C.ar    1  UNL1        0.0563
     47 C         -63.5926  -41.0338  -29.2010 C.ar    1  UNL1        0.0170
     48 C         -64.8461  -41.2881  -29.7870 C.ar    1  UNL1        0.0015
     49 C         -65.1785  -42.5873  -30.2313 C.ar    1  UNL1        0.0001
     50 C         -64.2609  -43.6445  -30.0932 C.ar    1  UNL1        0.0012
     51 C         -63.0302  -43.3635  -29.4998 C.ar    1  UNL1        0.0131
     52 H         -60.9436  -41.2305  -28.2171 H       1  UNL1        0.1660
@<TRIPOS>BOND
     1     1     2    2
     2     2     3   am
     3     3    31    1
     4    31    42    1
     5    42    43    1
     6    43    44   ar
     7    44    45   ar
     8    45    46   ar
     9    46    47   ar
    10    47    48   ar
    11    48    49   ar
    12    49    50   ar
    13    50    51   ar
    14    31    32    1
    15    32    33    2
    16    32    34   am
    17    34    36    1
    18    36    37   ar
    19    37    38   ar
    20    38    39   ar
    21    39    40   ar
    22    40    41   ar
    23     2     5    1
    24     5     6   ar
    25     6     7   ar
    26     7    28    1
    27    28    29    1
    28     7     8   ar
    29     8    12    1
    30    12    13    1
    31    13    14    1
    32    14    15    1
    33    15    18    1
    34    18    19   ar
    35    19    20   ar
    36    20    21   ar
    37    21    24    1
    38    24    25    1
    39    24    26    1
    40    24    27    1
    41    21    22   ar
    42    22    23   ar
    43    15    16    1
    44    16    17    1
    45     8     9   ar
    46     9    10   ar
    47    10    11    1
    48    51    43   ar
    49    41    36   ar
    50    10     5   ar
    51    51    46   ar
    52    17    12    1
    53    23    18   ar
    54     3     4    1
    55    45    52    1
    56    34    35    1
    57    29    30    1
@<TRIPOS>MOLECULE
*****
 52 57 0 0 0
SMALL
GASTEIGER

@<TRIPOS>ATOM
      1 O         -63.0272  -44.7481  -27.5778 O.2     1  UNL1       -0.2701
      2 C         -62.0965  -44.5107  -26.7600 C.2     1  UNL1        0.2483
      3 N         -60.7946  -45.0861  -26.9637 N.am    1  UNL1       -0.2945
      4 H         -60.0422  -44.8670  -26.2725 H       1  UNL1        0.1501
      5 C         -62.3870  -43.7085  -25.5551 C.ar    1  UNL1        0.0806
      6 C         -62.0017  -44.1982  -24.2971 C.ar    1  UNL1        0.0061
      7 C         -62.2192  -43.4463  -23.1320 C.ar    1  UNL1        0.0206
      8 C         -62.8581  -42.1911  -23.2317 C.ar    1  UNL1        0.0485
      9 C         -63.2597  -41.7126  -24.4849 C.ar    1  UNL1        0.0440
     10 C         -63.0282  -42.4613  -25.6407 C.ar    1  UNL1        0.1457
     11 F         -63.4697  -41.9837  -26.8317 F       1  UNL1       -0.2040
     12 N         -63.0984  -41.3830  -22.0726 N.pl3   1  UNL1       -0.3042
     13 C         -64.4629  -41.2686  -21.5493 C.3     1  UNL1        0.1123
     14 C         -64.5030  -40.4258  -20.2697 C.3     1  UNL1        0.1136
     15 N         -63.7356  -39.1806  -20.4408 N.pl3   1  UNL1       -0.2897
     16 C         -62.4452  -39.2063  -21.1544 C.3     1  UNL1        0.1136
     17 C         -61.9949  -40.6359  -21.4652 C.3     1  UNL1        0.1123
     18 C         -64.1691  -37.9770  -19.7664 C.ar    1  UNL1        0.1318
     19 C         -65.5073  -37.5482  -19.8201 C.ar    1  UNL1        0.0343
     20 C         -65.8861  -36.3796  -19.1577 C.ar    1  UNL1        0.0083
     21 C         -64.9357  -35.6241  -18.4560 C.ar    1  UNL1        0.0906
     22 C         -63.6170  -36.0993  -18.4005 C.ar    1  UNL1        0.1041
     23 N         -63.2717  -37.2409  -19.0519 N.ar    1  UNL1       -0.2292
     24 C         -65.3427  -34.3883  -17.6948 C.3     1  UNL1        0.4200
     25 F         -66.6688  -34.0777  -17.9419 F       1  UNL1       -0.1658
     26 F         -65.1770  -34.6123  -16.3409 F       1  UNL1       -0.1658
     27 F         -64.5670  -33.3055  -18.0712 F       1  UNL1       -0.1658
     28 C         -61.7800  -44.0214  -21.8076 C.3     1  UNL1        0.1648
     29 O         -62.8974  -44.3837  -21.0436 O.3     1  UNL1       -0.3772
     30 H         -63.2875  -43.5405  -20.6943 H       1  UNL1        0.2109
     31 C         -60.5909  -46.2523  -27.8323 C.3     1  UNL1        0.1535
     32 C         -61.2032  -47.4782  -27.2087 C.2     1  UNL1        0.2443
     33 O         -61.6647  -48.3912  -27.9472 O.2     1  UNL1       -0.2730
     34 N         -61.1676  -47.6472  -25.7825 N.am    1  UNL1       -0.2825
     35 H         -60.5039  -47.0505  -25.2380 H       1  UNL1        0.1549
     36 C         -61.9030  -48.6585  -25.0724 C.ar    1  UNL1        0.0535
     37 C         -61.2614  -49.5731  -24.2197 C.ar    1  UNL1        0.0353
     38 C         -62.0148  -50.5543  -23.5701 C.ar    1  UNL1        0.1002
     39 N         -63.3564  -50.6313  -23.7736 N.ar    1  UNL1       -0.2422
     40 C         -64.0003  -49.7720  -24.6067 C.ar    1  UNL1        0.1002
     41 C         -63.2846  -48.7768  -25.2768 C.ar    1  UNL1        0.0353
     42 C         -61.2083  -46.0024  -29.2205 C.3     1  UNL1        0.0569
     43 C         -60.1846  -45.4914  -30.1946 C.ar    1  UNL1       -0.0017
     44 C         -58.8498  -45.8817  -30.2668 C.ar    1  UNL1        0.0681
     45 N         -58.2585  -45.3458  -31.3586 N.ar    1  UNL1       -0.3523
     46 C         -59.2108  -44.6316  -31.9831 C.ar    1  UNL1        0.0563
     47 C         -59.0915  -43.9356  -33.1850 C.ar    1  UNL1        0.0170
     48 C         -60.2365  -43.2906  -33.6873 C.ar    1  UNL1        0.0015
     49 C         -61.4625  -43.3614  -32.9890 C.ar    1  UNL1        0.0001
     50 C         -61.5550  -44.0773  -31.7817 C.ar    1  UNL1        0.0012
     51 C         -60.4008  -44.6982  -31.3041 C.ar    1  UNL1        0.0131
     52 H         -57.2726  -45.4917  -31.6702 H       1  UNL1        0.1660
@<TRIPOS>BOND
     1     1     2    2
     2     2     3   am
     3     3    31    1
     4    31    42    1
     5    42    43    1
     6    43    44   ar
     7    44    45   ar
     8    45    46   ar
     9    46    47   ar
    10    47    48   ar
    11    48    49   ar
    12    49    50   ar
    13    50    51   ar
    14    31    32    1
    15    32    33    2
    16    32    34   am
    17    34    36    1
    18    36    37   ar
    19    37    38   ar
    20    38    39   ar
    21    39    40   ar
    22    40    41   ar
    23     2     5    1
    24     5     6   ar
    25     6     7   ar
    26     7    28    1
    27    28    29    1
    28     7     8   ar
    29     8    12    1
    30    12    13    1
    31    13    14    1
    32    14    15    1
    33    15    18    1
    34    18    19   ar
    35    19    20   ar
    36    20    21   ar
    37    21    24    1
    38    24    25    1
    39    24    26    1
    40    24    27    1
    41    21    22   ar
    42    22    23   ar
    43    15    16    1
    44    16    17    1
    45     8     9   ar
    46     9    10   ar
    47    10    11    1
    48    51    43   ar
    49    41    36   ar
    50    10     5   ar
    51    51    46   ar
    52    17    12    1
    53    23    18   ar
    54     3     4    1
    55    45    52    1
    56    34    35    1
    57    29    30    1
@<TRIPOS>MOLECULE
*****
 52 57 0 0 0
SMALL
GASTEIGER

@<TRIPOS>ATOM
      1 O         -61.6024  -39.5321  -21.2927 O.2     1  UNL1       -0.2701
      2 C         -62.5792  -40.2858  -21.5556 C.2     1  UNL1        0.2483
      3 N         -63.6148  -40.4895  -20.5790 N.am    1  UNL1       -0.2945
      4 H         -64.4142  -41.1150  -20.8275 H       1  UNL1        0.1501
      5 C         -62.5976  -41.0158  -22.8387 C.ar    1  UNL1        0.0806
      6 C         -61.4358  -41.6773  -23.2671 C.ar    1  UNL1        0.0061
      7 C         -61.4251  -42.4194  -24.4584 C.ar    1  UNL1        0.0206
      8 C         -62.5963  -42.4763  -25.2449 C.ar    1  UNL1        0.0485
      9 C         -63.7487  -41.7998  -24.8265 C.ar    1  UNL1        0.0440
     10 C         -63.7547  -41.0739  -23.6335 C.ar    1  UNL1        0.1457
     11 F         -64.8774  -40.3970  -23.2826 F       1  UNL1       -0.2040
     12 N         -62.6380  -43.2246  -26.4666 N.pl3   1  UNL1       -0.3042
     13 C         -63.1102  -42.5715  -27.6911 C.3     1  UNL1        0.1123
     14 C         -63.0110  -43.5089  -28.8997 C.3     1  UNL1        0.1136
     15 N         -63.5684  -44.8338  -28.5794 N.pl3   1  UNL1       -0.2897
     16 C         -63.2962  -45.4463  -27.2658 C.3     1  UNL1        0.1136
     17 C         -62.2695  -44.6419  -26.4645 C.3     1  UNL1        0.1123
     18 C         -64.2368  -45.5951  -29.6116 C.ar    1  UNL1        0.1318
     19 C         -64.8848  -44.9610  -30.6866 C.ar    1  UNL1        0.0343
     20 C         -65.5207  -45.7309  -31.6618 C.ar    1  UNL1        0.0083
     21 C         -65.5310  -47.1297  -31.5637 C.ar    1  UNL1        0.0906
     22 C         -64.8490  -47.7268  -30.4931 C.ar    1  UNL1        0.1041
     23 N         -64.2353  -46.9569  -29.5563 N.ar    1  UNL1       -0.2292
     24 C         -66.1705  -47.9730  -32.6371 C.3     1  UNL1        0.4200
     25 F         -67.3546  -47.3996  -33.0674 F       1  UNL1       -0.1658
     26 F         -65.3047  -48.0780  -33.7096 F       1  UNL1       -0.1658
     27 F         -66.4522  -49.2410  -32.1587 F       1  UNL1       -0.1658
     28 C         -60.1485  -43.1132  -24.8668 C.3     1  UNL1        0.1648
     29 O         -60.0125  -44.3228  -24.1727 O.3     1  UNL1       -0.3772
     30 H         -59.7413  -44.0895  -23.2469 H       1  UNL1        0.2109
     31 C         -63.4032  -40.2022  -19.1548 C.3     1  UNL1        0.1535
     32 C         -64.1894  -38.9846  -18.7476 C.2     1  UNL1        0.2443
     33 O         -65.1429  -39.1007  -17.9296 O.2     1  UNL1       -0.2730
     34 N         -63.7869  -37.6864  -19.2132 N.am    1  UNL1       -0.2825
     35 H         -62.8244  -37.5882  -19.6092 H       1  UNL1        0.1549
     36 C         -64.5805  -36.4962  -19.0667 C.ar    1  UNL1        0.0535
     37 C         -64.1807  -35.4439  -18.2253 C.ar    1  UNL1        0.0353
     38 C         -64.9973  -34.3175  -18.0957 C.ar    1  UNL1        0.1002
     39 N         -66.1763  -34.2477  -18.7683 N.ar    1  UNL1       -0.2422
     40 C         -66.5966  -35.2581  -19.5743 C.ar    1  UNL1        0.1002
     41 C         -65.8112  -36.4027  -19.7310 C.ar    1  UNL1        0.0353
     42 C         -63.8194  -41.4103  -18.2956 C.3     1  UNL1        0.0569
     43 C         -64.1757  -42.5956  -19.1479 C.ar    1  UNL1       -0.0017
     44 C         -65.4611  -43.0543  -19.4246 C.ar    1  UNL1        0.0681
     45 N         -65.4230  -44.0384  -20.3514 N.ar    1  UNL1       -0.3523
     46 C         -64.1271  -44.1962  -20.6717 C.ar    1  UNL1        0.0563
     47 C         -63.5928  -45.0632  -21.6236 C.ar    1  UNL1        0.0170
     48 C         -62.2021  -45.0319  -21.8339 C.ar    1  UNL1        0.0015
     49 C         -61.3872  -44.1396  -21.1022 C.ar    1  UNL1        0.0001
     50 C         -61.9551  -43.2707  -20.1529 C.ar    1  UNL1        0.0012
     51 C         -63.3353  -43.3316  -19.9597 C.ar    1  UNL1        0.0131
     52 H         -66.2403  -44.5433  -20.7606 H       1  UNL1        0.1660
@<TRIPOS>BOND
     1     1     2    2
     2     2     3   am
     3     3    31    1
     4    31    42    1
     5    42    43    1
     6    43    44   ar
     7    44    45   ar
     8    45    46   ar
     9    46    47   ar
    10    47    48   ar
    11    48    49   ar
    12    49    50   ar
    13    50    51   ar
    14    31    32    1
    15    32    33    2
    16    32    34   am
    17    34    36    1
    18    36    37   ar
    19    37    38   ar
    20    38    39   ar
    21    39    40   ar
    22    40    41   ar
    23     2     5    1
    24     5     6   ar
    25     6     7   ar
    26     7    28    1
    27    28    29    1
    28     7     8   ar
    29     8    12    1
    30    12    13    1
    31    13    14    1
    32    14    15    1
    33    15    18    1
    34    18    19   ar
    35    19    20   ar
    36    20    21   ar
    37    21    24    1
    38    24    25    1
    39    24    26    1
    40    24    27    1
    41    21    22   ar
    42    22    23   ar
    43    15    16    1
    44    16    17    1
    45     8     9   ar
    46     9    10   ar
    47    10    11    1
    48    51    43   ar
    49    41    36   ar
    50    10     5   ar
    51    51    46   ar
    52    17    12    1
    53    23    18   ar
    54     3     4    1
    55    45    52    1
    56    34    35    1
    57    29    30    1
@<TRIPOS>MOLECULE
*****
 52 57 0 0 0
SMALL
GASTEIGER

@<TRIPOS>ATOM
      1 O         -61.1285  -47.1991  -25.3548 O.2     1  UNL1       -0.2701
      2 C         -62.2082  -46.8120  -24.8296 C.2     1  UNL1        0.2483
      3 N         -63.4474  -47.4555  -25.1728 N.am    1  UNL1       -0.2945
      4 H         -64.3247  -47.1165  -24.7174 H       1  UNL1        0.1501
      5 C         -62.1894  -45.6418  -23.9295 C.ar    1  UNL1        0.0806
      6 C         -62.6030  -44.3933  -24.4205 C.ar    1  UNL1        0.0061
      7 C         -62.6425  -43.2660  -23.5853 C.ar    1  UNL1        0.0206
      8 C         -62.2350  -43.3915  -22.2393 C.ar    1  UNL1        0.0485
      9 C         -61.8039  -44.6330  -21.7559 C.ar    1  UNL1        0.0440
     10 C         -61.7795  -45.7526  -22.5902 C.ar    1  UNL1        0.1457
     11 F         -61.3155  -46.9287  -22.0971 F       1  UNL1       -0.2040
     12 N         -62.2618  -42.2718  -21.3450 N.pl3   1  UNL1       -0.3042
     13 C         -63.2328  -42.2550  -20.2469 C.3     1  UNL1        0.1123
     14 C         -63.0560  -41.0160  -19.3620 C.3     1  UNL1        0.1136
     15 N         -62.9409  -39.7998  -20.1842 N.pl3   1  UNL1       -0.2897
     16 C         -62.1419  -39.8249  -21.4235 C.3     1  UNL1        0.1136
     17 C         -61.3663  -41.1359  -21.5743 C.3     1  UNL1        0.1123
     18 C         -63.4717  -38.5497  -19.6871 C.ar    1  UNL1        0.1318
     19 C         -64.5280  -38.5193  -18.7593 C.ar    1  UNL1        0.0343
     20 C         -65.0142  -37.2923  -18.3051 C.ar    1  UNL1        0.0083
     21 C         -64.4665  -36.0932  -18.7833 C.ar    1  UNL1        0.0906
     22 C         -63.3948  -36.1643  -19.6856 C.ar    1  UNL1        0.1041
     23 N         -62.9369  -37.3704  -20.1126 N.ar    1  UNL1       -0.2292
     24 C         -64.9489  -34.7636  -18.2620 C.3     1  UNL1        0.4200
     25 F         -65.4063  -34.8863  -16.9614 F       1  UNL1       -0.1658
     26 F         -63.9048  -33.8581  -18.2890 F       1  UNL1       -0.1658
     27 F         -65.9854  -34.2804  -19.0418 F       1  UNL1       -0.1658
     28 C         -63.0999  -41.9506  -24.1671 C.3     1  UNL1        0.1648
     29 O         -63.1563  -42.0339  -25.5647 O.3     1  UNL1       -0.3772
     30 H         -62.2189  -41.9986  -25.8889 H       1  UNL1        0.2109
     31 C         -63.5905  -48.2584  -26.3937 C.3     1  UNL1        0.1535
     32 C         -63.3316  -47.4079  -27.6087 C.2     1  UNL1        0.2443
     33 O         -62.2049  -47.4526  -28.1746 O.2     1  UNL1       -0.2730
     34 N         -64.3976  -46.6289  -28.1750 N.am    1  UNL1       -0.2825
     35 H         -65.3758  -46.8627  -27.8901 H       1  UNL1        0.1549
     36 C         -64.2120  -45.6266  -29.1892 C.ar    1  UNL1        0.0535
     37 C         -63.4225  -44.4863  -28.9616 C.ar    1  UNL1        0.0353
     38 C         -63.2917  -43.5269  -29.9690 C.ar    1  UNL1        0.1002
     39 N         -63.9354  -43.6898  -31.1549 N.ar    1  UNL1       -0.2422
     40 C         -64.7200  -44.7732  -31.3958 C.ar    1  UNL1        0.1002
     41 C         -64.8789  -45.7555  -30.4153 C.ar    1  UNL1        0.0353
     42 C         -62.6182  -49.4521  -26.3685 C.3     1  UNL1        0.0569
     43 C         -62.8058  -50.2892  -25.1348 C.ar    1  UNL1       -0.0017
     44 C         -63.9809  -50.9245  -24.7415 C.ar    1  UNL1        0.0681
     45 N         -63.7531  -51.7218  -23.6731 N.ar    1  UNL1       -0.3523
     46 C         -62.4428  -51.6058  -23.3966 C.ar    1  UNL1        0.0563
     47 C         -61.7264  -52.2786  -22.4080 C.ar    1  UNL1        0.0170
     48 C         -60.3422  -52.0416  -22.3231 C.ar    1  UNL1        0.0015
     49 C         -59.7113  -51.1538  -23.2228 C.ar    1  UNL1        0.0001
     50 C         -60.4586  -50.4941  -24.2153 C.ar    1  UNL1        0.0012
     51 C         -61.8303  -50.7420  -24.2684 C.ar    1  UNL1        0.0131
     52 H         -64.4488  -52.3319  -23.1891 H       1  UNL1        0.1660
@<TRIPOS>BOND
     1     1     2    2
     2     2     3   am
     3     3    31    1
     4    31    42    1
     5    42    43    1
     6    43    44   ar
     7    44    45   ar
     8    45    46   ar
     9    46    47   ar
    10    47    48   ar
    11    48    49   ar
    12    49    50   ar
    13    50    51   ar
    14    31    32    1
    15    32    33    2
    16    32    34   am
    17    34    36    1
    18    36    37   ar
    19    37    38   ar
    20    38    39   ar
    21    39    40   ar
    22    40    41   ar
    23     2     5    1
    24     5     6   ar
    25     6     7   ar
    26     7    28    1
    27    28    29    1
    28     7     8   ar
    29     8    12    1
    30    12    13    1
    31    13    14    1
    32    14    15    1
    33    15    18    1
    34    18    19   ar
    35    19    20   ar
    36    20    21   ar
    37    21    24    1
    38    24    25    1
    39    24    26    1
    40    24    27    1
    41    21    22   ar
    42    22    23   ar
    43    15    16    1
    44    16    17    1
    45     8     9   ar
    46     9    10   ar
    47    10    11    1
    48    51    43   ar
    49    41    36   ar
    50    10     5   ar
    51    51    46   ar
    52    17    12    1
    53    23    18   ar
    54     3     4    1
    55    45    52    1
    56    34    35    1
    57    29    30    1
