@<TRIPOS>MOLECULE
*****
 47 52 0 0 0
SMALL
GASTEIGER

@<TRIPOS>ATOM
      1 C         -63.1065  -49.7019  -24.2990 C.ar    1  UNL1        0.0401
      2 C         -64.1138  -50.6169  -24.6392 C.ar    1  UNL1        0.0172
      3 C         -64.0721  -51.9352  -24.1602 C.ar    1  UNL1        0.0699
      4 C         -62.9865  -52.3250  -23.3690 C.ar    1  UNL1        0.1149
      5 N         -62.0107  -51.4342  -23.0570 N.ar    1  UNL1       -0.2281
      6 C         -62.0352  -50.1470  -23.4950 C.ar    1  UNL1        0.1300
      7 N         -60.9540  -49.2765  -23.1396 N.pl3   1  UNL1       -0.2934
      8 C         -60.7317  -48.9182  -21.7348 C.3     1  UNL1        0.0923
      9 C         -60.7201  -47.3909  -21.5544 C.3     1  UNL1        0.0252
     10 C         -60.0888  -46.6223  -22.7497 C.3     1  UNL1        0.0472
     11 C         -59.2566  -47.5485  -23.6592 C.3     1  UNL1        0.0252
     12 C         -60.1392  -48.6786  -24.2029 C.3     1  UNL1        0.0923
     13 C         -59.2445  -45.4325  -22.2518 C.3     1  UNL1        0.2054
     14 O         -59.4080  -44.2905  -23.0951 O.3     1  UNL1       -0.4755
     15 C         -60.4200  -43.3234  -22.9771 C.ar    1  UNL1        0.1388
     16 C         -61.4333  -43.3130  -23.9413 C.ar    1  UNL1        0.0369
     17 C         -62.4668  -42.3775  -23.8743 C.ar    1  UNL1        0.0033
     18 C         -62.4977  -41.4384  -22.8417 C.ar    1  UNL1        0.0066
     19 C         -61.4883  -41.4245  -21.8633 C.ar    1  UNL1        0.0785
     20 C         -60.4487  -42.3695  -21.9393 C.ar    1  UNL1        0.0433
     21 C         -61.5163  -40.4302  -20.7672 C.2     1  UNL1        0.3381
     22 O         -61.5376  -39.1961  -21.0248 O.2     1  UNL1       -0.2451
     23 O         -61.5203  -40.8487  -19.4388 O.3     1  UNL1       -0.4771
     24 H         -61.5400  -40.1762  -18.6815 H       1  UNL1        0.2954
     25 N         -65.0844  -52.8967  -24.5046 N.am    1  UNL1       -0.2767
     26 C         -65.6973  -53.7827  -23.5561 C.2     1  UNL1        0.2839
     27 O         -65.0782  -54.1091  -22.5078 O.2     1  UNL1       -0.2665
     28 H         -65.3062  -53.0366  -25.5156 H       1  UNL1        0.1553
     29 C         -67.0134  -54.3904  -23.8203 C.ar    1  UNL1        0.1946
     30 O         -67.2372  -55.1671  -24.8657 O.2     1  UNL1       -0.4492
     31 C         -68.4931  -55.5401  -24.8292 C.ar    1  UNL1        0.1452
     32 C         -69.1603  -56.3539  -25.7380 C.ar    1  UNL1        0.0375
     33 C         -70.5203  -56.6247  -25.5068 C.ar    1  UNL1        0.0031
     34 C         -71.1899  -56.0810  -24.3770 C.ar    1  UNL1        0.0002
     35 C         -70.4725  -55.2587  -23.4753 C.ar    1  UNL1        0.0028
     36 C         -69.1243  -55.0120  -23.7360 C.ar    1  UNL1        0.0337
     37 C         -68.1795  -54.2718  -23.0537 C.ar    1  UNL1        0.0202
     38 C         -68.3820  -53.5210  -21.7722 C.3     1  UNL1        0.0345
     39 C         -72.6271  -56.3726  -24.1435 C.ar    1  UNL1        0.0000
     40 C         -73.4730  -56.7087  -25.2177 C.ar    1  UNL1        0.0000
     41 C         -74.8259  -56.9830  -24.9949 C.ar    1  UNL1        0.0000
     42 C         -75.3488  -56.9264  -23.7012 C.ar    1  UNL1        0.0000
     43 C         -74.5200  -56.5949  -22.6272 C.ar    1  UNL1        0.0000
     44 C         -73.1666  -56.3187  -22.8440 C.ar    1  UNL1        0.0000
     45 C         -63.2142  -48.2753  -24.7888 C.3     1  UNL1        0.1715
     46 C         -62.7980  -48.0405  -27.0565 C.3     1  UNL1        0.1746
     47 O         -63.7973  -48.2271  -26.0771 O.3     1  UNL1       -0.3462
@<TRIPOS>BOND
     1    46    47    1
     2    47    45    1
     3    45     1    1
     4     1     2   ar
     5     2     3   ar
     6     3    25    1
     7    25    26   am
     8    26    27    2
     9    26    29    1
    10    29    30   ar
    11    30    31   ar
    12    31    32   ar
    13    32    33   ar
    14    33    34   ar
    15    34    39    1
    16    39    40   ar
    17    40    41   ar
    18    41    42   ar
    19    42    43   ar
    20    43    44   ar
    21    34    35   ar
    22    35    36   ar
    23    36    37   ar
    24    37    38    1
    25     3     4   ar
    26     4     5   ar
    27     5     6   ar
    28     6     7    1
    29     7     8    1
    30     8     9    1
    31     9    10    1
    32    10    13    1
    33    13    14    1
    34    14    15    1
    35    15    16   ar
    36    16    17   ar
    37    17    18   ar
    38    18    19   ar
    39    19    21    1
    40    21    22    2
    41    21    23    1
    42    19    20   ar
    43    10    11    1
    44    11    12    1
    45     6     1   ar
    46    12     7    1
    47    37    29   ar
    48    20    15   ar
    49    36    31   ar
    50    44    39   ar
    51    25    28    1
    52    23    24    1
@<TRIPOS>MOLECULE
*****
 47 52 0 0 0
SMALL
GASTEIGER

@<TRIPOS>ATOM
      1 C         -61.8919  -51.2261  -23.2794 C.ar    1  UNL1        0.0401
      2 C         -62.9465  -52.1157  -23.5326 C.ar    1  UNL1        0.0172
      3 C         -64.1145  -51.6743  -24.1731 C.ar    1  UNL1        0.0699
      4 C         -64.2177  -50.3227  -24.5180 C.ar    1  UNL1        0.1149
      5 N         -63.1957  -49.4682  -24.2561 N.ar    1  UNL1       -0.2281
      6 C         -62.0472  -49.8734  -23.6510 C.ar    1  UNL1        0.1300
      7 N         -61.0257  -48.9032  -23.3894 N.pl3   1  UNL1       -0.2934
      8 C         -60.5243  -48.7153  -22.0239 C.3     1  UNL1        0.0923
      9 C         -60.6549  -47.2457  -21.5900 C.3     1  UNL1        0.0252
     10 C         -60.4194  -46.2277  -22.7417 C.3     1  UNL1        0.0472
     11 C         -59.7189  -46.8755  -23.9530 C.3     1  UNL1        0.0252
     12 C         -60.5617  -48.0420  -24.4825 C.3     1  UNL1        0.0923
     13 C         -59.6315  -45.0024  -22.2376 C.3     1  UNL1        0.2054
     14 O         -60.1260  -43.7929  -22.8162 O.3     1  UNL1       -0.4755
     15 C         -60.7855  -42.7637  -22.1241 C.ar    1  UNL1        0.1388
     16 C         -60.2617  -42.3617  -20.8909 C.ar    1  UNL1        0.0369
     17 C         -60.8723  -41.3421  -20.1593 C.ar    1  UNL1        0.0033
     18 C         -62.0171  -40.7132  -20.6521 C.ar    1  UNL1        0.0066
     19 C         -62.5662  -41.1024  -21.8863 C.ar    1  UNL1        0.0785
     20 C         -61.9460  -42.1326  -22.6168 C.ar    1  UNL1        0.0433
     21 C         -63.7804  -40.4391  -22.4125 C.2     1  UNL1        0.3381
     22 O         -64.2396  -40.7523  -23.5442 O.2     1  UNL1       -0.2451
     23 O         -64.4289  -39.4620  -21.6612 O.3     1  UNL1       -0.4771
     24 H         -65.2608  -39.0027  -22.0121 H       1  UNL1        0.2954
     25 N         -65.2156  -52.5619  -24.4326 N.am    1  UNL1       -0.2767
     26 C         -65.6857  -53.5430  -23.4964 C.2     1  UNL1        0.2839
     27 O         -64.9019  -54.0105  -22.6269 O.2     1  UNL1       -0.2665
     28 H         -65.6238  -52.5711  -25.3939 H       1  UNL1        0.1553
     29 C         -67.0544  -54.0824  -23.5798 C.ar    1  UNL1        0.1946
     30 O         -67.5630  -54.5509  -24.7060 O.2     1  UNL1       -0.4492
     31 C         -68.7889  -54.9447  -24.4614 C.ar    1  UNL1        0.1452
     32 C         -69.6956  -55.4948  -25.3608 C.ar    1  UNL1        0.0375
     33 C         -70.9702  -55.8449  -24.8819 C.ar    1  UNL1        0.0031
     34 C         -71.3180  -55.6412  -23.5188 C.ar    1  UNL1        0.0002
     35 C         -70.3639  -55.0801  -22.6363 C.ar    1  UNL1        0.0028
     36 C         -69.1092  -54.7453  -23.1462 C.ar    1  UNL1        0.0337
     37 C         -67.9921  -54.1992  -22.5461 C.ar    1  UNL1        0.0202
     38 C         -67.8405  -53.8280  -21.1018 C.3     1  UNL1        0.0345
     39 C         -72.6677  -56.0137  -23.0243 C.ar    1  UNL1        0.0000
     40 C         -72.9237  -56.1054  -21.6429 C.ar    1  UNL1        0.0000
     41 C         -74.1957  -56.4561  -21.1799 C.ar    1  UNL1        0.0000
     42 C         -75.2245  -56.7175  -22.0875 C.ar    1  UNL1        0.0000
     43 C         -74.9835  -56.6293  -23.4602 C.ar    1  UNL1        0.0000
     44 C         -73.7133  -56.2799  -23.9289 C.ar    1  UNL1        0.0000
     45 C         -60.6272  -51.7502  -22.6371 C.3     1  UNL1        0.1715
     46 C         -60.3704  -53.3920  -24.2524 C.3     1  UNL1        0.1746
     47 O         -60.4821  -53.1386  -22.8683 O.3     1  UNL1       -0.3462
@<TRIPOS>BOND
     1    46    47    1
     2    47    45    1
     3    45     1    1
     4     1     2   ar
     5     2     3   ar
     6     3    25    1
     7    25    26   am
     8    26    27    2
     9    26    29    1
    10    29    30   ar
    11    30    31   ar
    12    31    32   ar
    13    32    33   ar
    14    33    34   ar
    15    34    39    1
    16    39    40   ar
    17    40    41   ar
    18    41    42   ar
    19    42    43   ar
    20    43    44   ar
    21    34    35   ar
    22    35    36   ar
    23    36    37   ar
    24    37    38    1
    25     3     4   ar
    26     4     5   ar
    27     5     6   ar
    28     6     7    1
    29     7     8    1
    30     8     9    1
    31     9    10    1
    32    10    13    1
    33    13    14    1
    34    14    15    1
    35    15    16   ar
    36    16    17   ar
    37    17    18   ar
    38    18    19   ar
    39    19    21    1
    40    21    22    2
    41    21    23    1
    42    19    20   ar
    43    10    11    1
    44    11    12    1
    45     6     1   ar
    46    12     7    1
    47    37    29   ar
    48    20    15   ar
    49    36    31   ar
    50    44    39   ar
    51    25    28    1
    52    23    24    1
@<TRIPOS>MOLECULE
*****
 47 52 0 0 0
SMALL
GASTEIGER

@<TRIPOS>ATOM
      1 C         -67.9935  -54.8294  -24.2944 C.ar    1  UNL1        0.0401
      2 C         -66.7418  -54.1966  -24.2711 C.ar    1  UNL1        0.0172
      3 C         -65.9881  -54.1487  -23.0885 C.ar    1  UNL1        0.0699
      4 C         -66.5288  -54.7118  -21.9278 C.ar    1  UNL1        0.1149
      5 N         -67.7470  -55.3102  -21.9594 N.ar    1  UNL1       -0.2281
      6 C         -68.4906  -55.3841  -23.0956 C.ar    1  UNL1        0.1300
      7 N         -69.7770  -56.0126  -23.0386 N.pl3   1  UNL1       -0.2934
      8 C         -70.0334  -57.2313  -23.8135 C.3     1  UNL1        0.0923
      9 C         -71.2553  -57.0507  -24.7297 C.3     1  UNL1        0.0252
     10 C         -72.3786  -56.1705  -24.1121 C.3     1  UNL1        0.0472
     11 C         -72.2130  -56.0055  -22.5880 C.3     1  UNL1        0.0252
     12 C         -70.8526  -55.3706  -22.2752 C.3     1  UNL1        0.0923
     13 C         -73.7705  -56.7349  -24.4590 C.3     1  UNL1        0.2054
     14 O         -74.5897  -55.7471  -25.0876 O.3     1  UNL1       -0.4755
     15 C         -74.2859  -55.0688  -26.2797 C.ar    1  UNL1        0.1388
     16 C         -74.4244  -53.6770  -26.2962 C.ar    1  UNL1        0.0369
     17 C         -74.1341  -52.9488  -27.4509 C.ar    1  UNL1        0.0033
     18 C         -73.7035  -53.6055  -28.6051 C.ar    1  UNL1        0.0066
     19 C         -73.5613  -55.0041  -28.6159 C.ar    1  UNL1        0.0785
     20 C         -73.8580  -55.7311  -27.4484 C.ar    1  UNL1        0.0433
     21 C         -73.1059  -55.7049  -29.8376 C.2     1  UNL1        0.3381
     22 O         -71.8827  -55.9574  -30.0106 O.2     1  UNL1       -0.2451
     23 O         -74.0253  -56.0936  -30.8087 O.3     1  UNL1       -0.4771
     24 H         -73.7239  -56.5742  -31.6480 H       1  UNL1        0.2954
     25 N         -64.7086  -53.4948  -23.0338 N.am    1  UNL1       -0.2767
     26 C         -64.1621  -52.7218  -24.1127 C.2     1  UNL1        0.2839
     27 O         -64.5183  -52.9560  -25.2989 O.2     1  UNL1       -0.2665
     28 H         -64.0946  -53.6834  -22.2101 H       1  UNL1        0.1553
     29 C         -63.1230  -51.7050  -23.8724 C.ar    1  UNL1        0.1946
     30 O         -61.9194  -52.0156  -23.4238 O.2     1  UNL1       -0.4492
     31 C         -61.2345  -50.9045  -23.3051 C.ar    1  UNL1        0.1452
     32 C         -59.9254  -50.7616  -22.8587 C.ar    1  UNL1        0.0375
     33 C         -59.3838  -49.4653  -22.8058 C.ar    1  UNL1        0.0031
     34 C         -60.1544  -48.3370  -23.1977 C.ar    1  UNL1        0.0002
     35 C         -61.4829  -48.5273  -23.6480 C.ar    1  UNL1        0.0028
     36 C         -61.9870  -49.8275  -23.6877 C.ar    1  UNL1        0.0337
     37 C         -63.2159  -50.3226  -24.0764 C.ar    1  UNL1        0.0202
     38 C         -64.3755  -49.5324  -24.6035 C.3     1  UNL1        0.0345
     39 C         -59.5725  -46.9722  -23.1365 C.ar    1  UNL1        0.0000
     40 C         -58.2411  -46.7797  -22.7212 C.ar    1  UNL1        0.0000
     41 C         -57.6956  -45.4934  -22.6646 C.ar    1  UNL1        0.0000
     42 C         -58.4698  -44.3874  -23.0220 C.ar    1  UNL1        0.0000
     43 C         -59.7916  -44.5651  -23.4362 C.ar    1  UNL1        0.0000
     44 C         -60.3426  -45.8489  -23.4938 C.ar    1  UNL1        0.0000
     45 C         -68.7519  -54.9092  -25.6002 C.3     1  UNL1        0.1715
     46 C         -70.4236  -53.9689  -26.9010 C.3     1  UNL1        0.1746
     47 O         -69.6525  -53.8252  -25.7275 O.3     1  UNL1       -0.3462
@<TRIPOS>BOND
     1    46    47    1
     2    47    45    1
     3    45     1    1
     4     1     2   ar
     5     2     3   ar
     6     3    25    1
     7    25    26   am
     8    26    27    2
     9    26    29    1
    10    29    30   ar
    11    30    31   ar
    12    31    32   ar
    13    32    33   ar
    14    33    34   ar
    15    34    39    1
    16    39    40   ar
    17    40    41   ar
    18    41    42   ar
    19    42    43   ar
    20    43    44   ar
    21    34    35   ar
    22    35    36   ar
    23    36    37   ar
    24    37    38    1
    25     3     4   ar
    26     4     5   ar
    27     5     6   ar
    28     6     7    1
    29     7     8    1
    30     8     9    1
    31     9    10    1
    32    10    13    1
    33    13    14    1
    34    14    15    1
    35    15    16   ar
    36    16    17   ar
    37    17    18   ar
    38    18    19   ar
    39    19    21    1
    40    21    22    2
    41    21    23    1
    42    19    20   ar
    43    10    11    1
    44    11    12    1
    45     6     1   ar
    46    12     7    1
    47    37    29   ar
    48    20    15   ar
    49    36    31   ar
    50    44    39   ar
    51    25    28    1
    52    23    24    1
@<TRIPOS>MOLECULE
*****
 47 52 0 0 0
SMALL
GASTEIGER

@<TRIPOS>ATOM
      1 C         -67.8609  -55.1918  -23.8568 C.ar    1  UNL1        0.0401
      2 C         -66.6187  -54.5511  -23.9765 C.ar    1  UNL1        0.0172
      3 C         -65.8420  -54.2817  -22.8393 C.ar    1  UNL1        0.0699
      4 C         -66.3504  -54.6319  -21.5842 C.ar    1  UNL1        0.1149
      5 N         -67.5598  -55.2398  -21.4796 N.ar    1  UNL1       -0.2281
      6 C         -68.3251  -55.5263  -22.5666 C.ar    1  UNL1        0.1300
      7 N         -69.6004  -56.1486  -22.3679 N.pl3   1  UNL1       -0.2934
      8 C         -70.6807  -55.9339  -23.3365 C.3     1  UNL1        0.0923
      9 C         -71.9400  -55.3906  -22.6406 C.3     1  UNL1        0.0252
     10 C         -72.1648  -55.9633  -21.2125 C.3     1  UNL1        0.0472
     11 C         -71.3260  -57.2320  -20.9587 C.3     1  UNL1        0.0252
     12 C         -69.8359  -56.9193  -21.1422 C.3     1  UNL1        0.0923
     13 C         -73.6616  -56.2303  -20.9583 C.3     1  UNL1        0.2054
     14 O         -74.2526  -55.1823  -20.1875 O.3     1  UNL1       -0.4755
     15 C         -73.8222  -54.7545  -18.9206 C.ar    1  UNL1        0.1388
     16 C         -73.1652  -55.6805  -18.1036 C.ar    1  UNL1        0.0369
     17 C         -72.7121  -55.3123  -16.8360 C.ar    1  UNL1        0.0033
     18 C         -72.9132  -54.0122  -16.3689 C.ar    1  UNL1        0.0066
     19 C         -73.5754  -53.0643  -17.1685 C.ar    1  UNL1        0.0785
     20 C         -74.0311  -53.4440  -18.4444 C.ar    1  UNL1        0.0433
     21 C         -73.7918  -51.6848  -16.6773 C.2     1  UNL1        0.3381
     22 O         -74.9599  -51.2264  -16.5548 O.2     1  UNL1       -0.2451
     23 O         -72.7057  -50.8791  -16.3444 O.3     1  UNL1       -0.4771
     24 H         -72.8432  -49.9339  -16.0067 H       1  UNL1        0.2954
     25 N         -64.5717  -53.6144  -22.9326 N.am    1  UNL1       -0.2767
     26 C         -64.2335  -52.6871  -23.9747 C.2     1  UNL1        0.2839
     27 O         -64.8070  -52.7615  -25.0947 O.2     1  UNL1       -0.2665
     28 H         -63.8151  -53.9026  -22.2728 H       1  UNL1        0.1553
     29 C         -63.1628  -51.6915  -23.7916 C.ar    1  UNL1        0.1946
     30 O         -61.9321  -52.0305  -23.4496 O.2     1  UNL1       -0.4492
     31 C         -61.2227  -50.9325  -23.3567 C.ar    1  UNL1        0.1452
     32 C         -59.8800  -50.8198  -23.0133 C.ar    1  UNL1        0.0375
     33 C         -59.3157  -49.5328  -22.9695 C.ar    1  UNL1        0.0031
     34 C         -60.0975  -48.3838  -23.2678 C.ar    1  UNL1        0.0002
     35 C         -61.4605  -48.5436  -23.6148 C.ar    1  UNL1        0.0028
     36 C         -61.9864  -49.8353  -23.6487 C.ar    1  UNL1        0.0337
     37 C         -63.2500  -50.3027  -23.9505 C.ar    1  UNL1        0.0202
     38 C         -64.4356  -49.4827  -24.3613 C.3     1  UNL1        0.0345
     39 C         -59.4913  -47.0291  -23.2171 C.ar    1  UNL1        0.0000
     40 C         -58.1820  -46.8486  -22.7318 C.ar    1  UNL1        0.0000
     41 C         -57.6136  -45.5718  -22.6853 C.ar    1  UNL1        0.0000
     42 C         -58.3425  -44.4637  -23.1225 C.ar    1  UNL1        0.0000
     43 C         -59.6418  -44.6297  -23.6066 C.ar    1  UNL1        0.0000
     44 C         -60.2157  -45.9038  -23.6545 C.ar    1  UNL1        0.0000
     45 C         -68.6443  -55.5149  -25.1092 C.3     1  UNL1        0.1715
     46 C         -69.8245  -54.5845  -26.8734 C.3     1  UNL1        0.1746
     47 O         -68.8229  -54.3584  -25.9047 O.3     1  UNL1       -0.3462
@<TRIPOS>BOND
     1    46    47    1
     2    47    45    1
     3    45     1    1
     4     1     2   ar
     5     2     3   ar
     6     3    25    1
     7    25    26   am
     8    26    27    2
     9    26    29    1
    10    29    30   ar
    11    30    31   ar
    12    31    32   ar
    13    32    33   ar
    14    33    34   ar
    15    34    39    1
    16    39    40   ar
    17    40    41   ar
    18    41    42   ar
    19    42    43   ar
    20    43    44   ar
    21    34    35   ar
    22    35    36   ar
    23    36    37   ar
    24    37    38    1
    25     3     4   ar
    26     4     5   ar
    27     5     6   ar
    28     6     7    1
    29     7     8    1
    30     8     9    1
    31     9    10    1
    32    10    13    1
    33    13    14    1
    34    14    15    1
    35    15    16   ar
    36    16    17   ar
    37    17    18   ar
    38    18    19   ar
    39    19    21    1
    40    21    22    2
    41    21    23    1
    42    19    20   ar
    43    10    11    1
    44    11    12    1
    45     6     1   ar
    46    12     7    1
    47    37    29   ar
    48    20    15   ar
    49    36    31   ar
    50    44    39   ar
    51    25    28    1
    52    23    24    1
@<TRIPOS>MOLECULE
*****
 47 52 0 0 0
SMALL
GASTEIGER

@<TRIPOS>ATOM
      1 C         -67.8001  -55.3756  -24.5638 C.ar    1  UNL1        0.0401
      2 C         -66.5502  -54.7453  -24.4743 C.ar    1  UNL1        0.0172
      3 C         -66.1359  -54.1487  -23.2736 C.ar    1  UNL1        0.0699
      4 C         -67.0112  -54.1642  -22.1827 C.ar    1  UNL1        0.1149
      5 N         -68.2238  -54.7659  -22.2851 N.ar    1  UNL1       -0.2281
      6 C         -68.6429  -55.3649  -23.4318 C.ar    1  UNL1        0.1300
      7 N         -69.9471  -55.9574  -23.4639 N.pl3   1  UNL1       -0.2934
      8 C         -70.3014  -56.8946  -24.5352 C.3     1  UNL1        0.0923
      9 C         -71.5713  -56.4325  -25.2693 C.3     1  UNL1        0.0252
     10 C         -72.6164  -55.7464  -24.3446 C.3     1  UNL1        0.0472
     11 C         -72.3470  -56.0326  -22.8536 C.3     1  UNL1        0.0252
     12 C         -70.9450  -55.5424  -22.4719 C.3     1  UNL1        0.0923
     13 C         -74.0493  -56.1586  -24.7364 C.3     1  UNL1        0.2054
     14 O         -74.2028  -56.2185  -26.1558 O.3     1  UNL1       -0.4755
     15 C         -74.5204  -55.1352  -26.9918 C.ar    1  UNL1        0.1388
     16 C         -74.6556  -55.3813  -28.3621 C.ar    1  UNL1        0.0369
     17 C         -74.9732  -54.3449  -29.2411 C.ar    1  UNL1        0.0033
     18 C         -75.1573  -53.0476  -28.7594 C.ar    1  UNL1        0.0066
     19 C         -75.0219  -52.7731  -27.3873 C.ar    1  UNL1        0.0785
     20 C         -74.6994  -53.8230  -26.5080 C.ar    1  UNL1        0.0433
     21 C         -75.2153  -51.3990  -26.8720 C.2     1  UNL1        0.3381
     22 O         -75.3493  -51.1937  -25.6352 O.2     1  UNL1       -0.2451
     23 O         -75.2503  -50.3180  -27.7494 O.3     1  UNL1       -0.4771
     24 H         -75.3815  -49.3737  -27.4067 H       1  UNL1        0.2954
     25 N         -64.8658  -53.4845  -23.1587 N.am    1  UNL1       -0.2767
     26 C         -64.2640  -52.7270  -24.2190 C.2     1  UNL1        0.2839
     27 O         -64.5508  -52.9852  -25.4189 O.2     1  UNL1       -0.2665
     28 H         -64.2984  -53.6537  -22.2983 H       1  UNL1        0.1553
     29 C         -63.2467  -51.6984  -23.9391 C.ar    1  UNL1        0.1946
     30 O         -62.0755  -51.9895  -23.4007 O.2     1  UNL1       -0.4492
     31 C         -61.4037  -50.8719  -23.2689 C.ar    1  UNL1        0.1452
     32 C         -60.1284  -50.7094  -22.7390 C.ar    1  UNL1        0.0375
     33 C         -59.5956  -49.4094  -22.6881 C.ar    1  UNL1        0.0031
     34 C         -60.3411  -48.2970  -23.1649 C.ar    1  UNL1        0.0002
     35 C         -61.6353  -48.5072  -23.6985 C.ar    1  UNL1        0.0028
     36 C         -62.1315  -49.8106  -23.7336 C.ar    1  UNL1        0.0337
     37 C         -63.3296  -50.3230  -24.1900 C.ar    1  UNL1        0.0202
     38 C         -64.4530  -49.5546  -24.8180 C.3     1  UNL1        0.0345
     39 C         -59.7688  -46.9281  -23.1050 C.ar    1  UNL1        0.0000
     40 C         -58.4035  -46.7349  -22.8204 C.ar    1  UNL1        0.0000
     41 C         -57.8672  -45.4447  -22.7648 C.ar    1  UNL1        0.0000
     42 C         -58.6844  -44.3355  -22.9929 C.ar    1  UNL1        0.0000
     43 C         -60.0401  -44.5138  -23.2768 C.ar    1  UNL1        0.0000
     44 C         -60.5821  -45.8016  -23.3328 C.ar    1  UNL1        0.0000
     45 C         -68.1889  -56.0553  -25.8575 C.3     1  UNL1        0.1715
     46 C         -67.5322  -55.1065  -27.8672 C.3     1  UNL1        0.1746
     47 O         -68.5120  -55.1012  -26.8512 O.3     1  UNL1       -0.3462
@<TRIPOS>BOND
     1    46    47    1
     2    47    45    1
     3    45     1    1
     4     1     2   ar
     5     2     3   ar
     6     3    25    1
     7    25    26   am
     8    26    27    2
     9    26    29    1
    10    29    30   ar
    11    30    31   ar
    12    31    32   ar
    13    32    33   ar
    14    33    34   ar
    15    34    39    1
    16    39    40   ar
    17    40    41   ar
    18    41    42   ar
    19    42    43   ar
    20    43    44   ar
    21    34    35   ar
    22    35    36   ar
    23    36    37   ar
    24    37    38    1
    25     3     4   ar
    26     4     5   ar
    27     5     6   ar
    28     6     7    1
    29     7     8    1
    30     8     9    1
    31     9    10    1
    32    10    13    1
    33    13    14    1
    34    14    15    1
    35    15    16   ar
    36    16    17   ar
    37    17    18   ar
    38    18    19   ar
    39    19    21    1
    40    21    22    2
    41    21    23    1
    42    19    20   ar
    43    10    11    1
    44    11    12    1
    45     6     1   ar
    46    12     7    1
    47    37    29   ar
    48    20    15   ar
    49    36    31   ar
    50    44    39   ar
    51    25    28    1
    52    23    24    1
@<TRIPOS>MOLECULE
*****
 47 52 0 0 0
SMALL
GASTEIGER

@<TRIPOS>ATOM
      1 C         -61.3477  -43.1392  -22.4034 C.ar    1  UNL1        0.0401
      2 C         -61.9447  -42.2328  -21.5148 C.ar    1  UNL1        0.0172
      3 C         -63.0212  -41.4327  -21.9273 C.ar    1  UNL1        0.0699
      4 C         -63.4592  -41.5326  -23.2520 C.ar    1  UNL1        0.1149
      5 N         -62.8651  -42.4042  -24.1067 N.ar    1  UNL1       -0.2281
      6 C         -61.8308  -43.2019  -23.7280 C.ar    1  UNL1        0.1300
      7 N         -61.2442  -44.0781  -24.6981 N.pl3   1  UNL1       -0.2934
      8 C         -60.3728  -43.5351  -25.7456 C.3     1  UNL1        0.0923
      9 C         -60.8803  -43.9340  -27.1414 C.3     1  UNL1        0.0252
     10 C         -61.5130  -45.3534  -27.1975 C.3     1  UNL1        0.0472
     11 C         -61.1386  -46.2034  -25.9667 C.3     1  UNL1        0.0252
     12 C         -61.6022  -45.5006  -24.6850 C.3     1  UNL1        0.0923
     13 C         -61.1279  -46.0740  -28.5047 C.3     1  UNL1        0.2054
     14 O         -60.0649  -45.3964  -29.1776 O.3     1  UNL1       -0.4755
     15 C         -60.1307  -44.8490  -30.4697 C.ar    1  UNL1        0.1388
     16 C         -59.0046  -44.9681  -31.2909 C.ar    1  UNL1        0.0369
     17 C         -59.0122  -44.4466  -32.5854 C.ar    1  UNL1        0.0033
     18 C         -60.1472  -43.7967  -33.0736 C.ar    1  UNL1        0.0066
     19 C         -61.2899  -43.6592  -32.2664 C.ar    1  UNL1        0.0785
     20 C         -61.2734  -44.1858  -30.9618 C.ar    1  UNL1        0.0433
     21 C         -62.4953  -42.9701  -32.7793 C.2     1  UNL1        0.3381
     22 O         -63.2767  -42.3760  -31.9879 O.2     1  UNL1       -0.2451
     23 O         -62.7780  -42.9704  -34.1430 O.3     1  UNL1       -0.4771
     24 H         -63.6000  -42.5012  -34.5041 H       1  UNL1        0.2954
     25 N         -63.6425  -40.4862  -21.0409 N.am    1  UNL1       -0.2767
     26 C         -63.1207  -39.1740  -20.7839 C.2     1  UNL1        0.2839
     27 O         -61.8881  -38.9483  -20.9211 O.2     1  UNL1       -0.2665
     28 H         -64.4539  -40.8085  -20.4677 H       1  UNL1        0.1553
     29 C         -63.9871  -38.0941  -20.2796 C.ar    1  UNL1        0.1946
     30 O         -63.5044  -37.0281  -19.6655 O.2     1  UNL1       -0.4492
     31 C         -64.5150  -36.2634  -19.3314 C.ar    1  UNL1        0.1452
     32 C         -64.4690  -35.0467  -18.6599 C.ar    1  UNL1        0.0375
     33 C         -65.6848  -34.3913  -18.3976 C.ar    1  UNL1        0.0031
     34 C         -66.9219  -34.9584  -18.8079 C.ar    1  UNL1        0.0002
     35 C         -66.9235  -36.1984  -19.4908 C.ar    1  UNL1        0.0028
     36 C         -65.6984  -36.8198  -19.7344 C.ar    1  UNL1        0.0337
     37 C         -65.3819  -38.0049  -20.3682 C.ar    1  UNL1        0.0202
     38 C         -66.3400  -38.9640  -21.0078 C.3     1  UNL1        0.0345
     39 C         -68.2002  -34.2579  -18.5243 C.ar    1  UNL1        0.0000
     40 C         -68.2346  -33.1604  -17.6430 C.ar    1  UNL1        0.0000
     41 C         -69.4396  -32.5025  -17.3779 C.ar    1  UNL1        0.0000
     42 C         -70.6208  -32.9301  -17.9881 C.ar    1  UNL1        0.0000
     43 C         -70.5997  -34.0171  -18.8646 C.ar    1  UNL1        0.0000
     44 C         -69.3978  -34.6794  -19.1328 C.ar    1  UNL1        0.0000
     45 C         -60.2261  -44.0237  -21.9069 C.3     1  UNL1        0.1715
     46 C         -58.2193  -44.8984  -22.6675 C.3     1  UNL1        0.1746
     47 O         -59.0193  -43.7381  -22.5883 O.3     1  UNL1       -0.3462
@<TRIPOS>BOND
     1    46    47    1
     2    47    45    1
     3    45     1    1
     4     1     2   ar
     5     2     3   ar
     6     3    25    1
     7    25    26   am
     8    26    27    2
     9    26    29    1
    10    29    30   ar
    11    30    31   ar
    12    31    32   ar
    13    32    33   ar
    14    33    34   ar
    15    34    39    1
    16    39    40   ar
    17    40    41   ar
    18    41    42   ar
    19    42    43   ar
    20    43    44   ar
    21    34    35   ar
    22    35    36   ar
    23    36    37   ar
    24    37    38    1
    25     3     4   ar
    26     4     5   ar
    27     5     6   ar
    28     6     7    1
    29     7     8    1
    30     8     9    1
    31     9    10    1
    32    10    13    1
    33    13    14    1
    34    14    15    1
    35    15    16   ar
    36    16    17   ar
    37    17    18   ar
    38    18    19   ar
    39    19    21    1
    40    21    22    2
    41    21    23    1
    42    19    20   ar
    43    10    11    1
    44    11    12    1
    45     6     1   ar
    46    12     7    1
    47    37    29   ar
    48    20    15   ar
    49    36    31   ar
    50    44    39   ar
    51    25    28    1
    52    23    24    1
@<TRIPOS>MOLECULE
*****
 47 52 0 0 0
SMALL
GASTEIGER

@<TRIPOS>ATOM
      1 C         -62.9909  -49.4018  -24.9283 C.ar    1  UNL1        0.0401
      2 C         -64.0315  -50.3137  -25.1592 C.ar    1  UNL1        0.0172
      3 C         -64.2206  -51.4118  -24.3062 C.ar    1  UNL1        0.0699
      4 C         -63.3273  -51.5963  -23.2458 C.ar    1  UNL1        0.1149
      5 N         -62.3160  -50.7142  -23.0399 N.ar    1  UNL1       -0.2281
      6 C         -62.1202  -49.6336  -23.8420 C.ar    1  UNL1        0.1300
      7 N         -61.0148  -48.7635  -23.5697 N.pl3   1  UNL1       -0.2934
      8 C         -60.4468  -48.6992  -22.2189 C.3     1  UNL1        0.0923
      9 C         -60.4420  -47.2533  -21.6952 C.3     1  UNL1        0.0252
     10 C         -60.1711  -46.1880  -22.7951 C.3     1  UNL1        0.0472
     11 C         -59.5727  -46.8127  -24.0715 C.3     1  UNL1        0.0252
     12 C         -60.5264  -47.8756  -24.6304 C.3     1  UNL1        0.0923
     13 C         -59.2683  -45.0607  -22.2559 C.3     1  UNL1        0.2054
     14 O         -59.3089  -43.9119  -23.1046 O.3     1  UNL1       -0.4755
     15 C         -60.4720  -43.3059  -23.6080 C.ar    1  UNL1        0.1388
     16 C         -61.3815  -42.7687  -22.6909 C.ar    1  UNL1        0.0369
     17 C         -62.5530  -42.1517  -23.1320 C.ar    1  UNL1        0.0033
     18 C         -62.8302  -42.0667  -24.4977 C.ar    1  UNL1        0.0066
     19 C         -61.9349  -42.6035  -25.4393 C.ar    1  UNL1        0.0785
     20 C         -60.7571  -43.2258  -24.9864 C.ar    1  UNL1        0.0433
     21 C         -62.2249  -42.5165  -26.8882 C.2     1  UNL1        0.3381
     22 O         -61.5736  -43.2134  -27.7128 O.2     1  UNL1       -0.2451
     23 O         -63.2221  -41.6638  -27.3553 O.3     1  UNL1       -0.4771
     24 H         -63.4287  -41.5976  -28.3448 H       1  UNL1        0.2954
     25 N         -65.2708  -52.3688  -24.5278 N.am    1  UNL1       -0.2767
     26 C         -65.6794  -53.3426  -23.5558 C.2     1  UNL1        0.2839
     27 O         -64.8657  -53.7350  -22.6768 O.2     1  UNL1       -0.2665
     28 H         -65.6829  -52.4338  -25.4853 H       1  UNL1        0.1553
     29 C         -67.0157  -53.9612  -23.6113 C.ar    1  UNL1        0.1946
     30 O         -67.4823  -54.5408  -24.7034 O.2     1  UNL1       -0.4492
     31 C         -68.6884  -54.9818  -24.4415 C.ar    1  UNL1        0.1452
     32 C         -69.5514  -55.6473  -25.3051 C.ar    1  UNL1        0.0375
     33 C         -70.8118  -56.0299  -24.8135 C.ar    1  UNL1        0.0031
     34 C         -71.1890  -55.7432  -23.4734 C.ar    1  UNL1        0.0002
     35 C         -70.2791  -55.0653  -22.6269 C.ar    1  UNL1        0.0028
     36 C         -69.0374  -54.7015  -23.1485 C.ar    1  UNL1        0.0337
     37 C         -67.9600  -54.0509  -22.5809 C.ar    1  UNL1        0.0202
     38 C         -67.8489  -53.5638  -21.1677 C.3     1  UNL1        0.0345
     39 C         -72.5234  -56.1508  -22.9651 C.ar    1  UNL1        0.0000
     40 C         -73.4605  -56.7589  -23.8221 C.ar    1  UNL1        0.0000
     41 C         -74.7163  -57.1419  -23.3408 C.ar    1  UNL1        0.0000
     42 C         -75.0502  -56.9244  -22.0024 C.ar    1  UNL1        0.0000
     43 C         -74.1292  -56.3228  -21.1421 C.ar    1  UNL1        0.0000
     44 C         -72.8724  -55.9368  -21.6180 C.ar    1  UNL1        0.0000
     45 C         -62.8521  -48.2006  -25.8363 C.3     1  UNL1        0.1715
     46 C         -63.2841  -47.4117  -27.9722 C.3     1  UNL1        0.1746
     47 O         -63.0589  -48.5637  -27.1882 O.3     1  UNL1       -0.3462
@<TRIPOS>BOND
     1    46    47    1
     2    47    45    1
     3    45     1    1
     4     1     2   ar
     5     2     3   ar
     6     3    25    1
     7    25    26   am
     8    26    27    2
     9    26    29    1
    10    29    30   ar
    11    30    31   ar
    12    31    32   ar
    13    32    33   ar
    14    33    34   ar
    15    34    39    1
    16    39    40   ar
    17    40    41   ar
    18    41    42   ar
    19    42    43   ar
    20    43    44   ar
    21    34    35   ar
    22    35    36   ar
    23    36    37   ar
    24    37    38    1
    25     3     4   ar
    26     4     5   ar
    27     5     6   ar
    28     6     7    1
    29     7     8    1
    30     8     9    1
    31     9    10    1
    32    10    13    1
    33    13    14    1
    34    14    15    1
    35    15    16   ar
    36    16    17   ar
    37    17    18   ar
    38    18    19   ar
    39    19    21    1
    40    21    22    2
    41    21    23    1
    42    19    20   ar
    43    10    11    1
    44    11    12    1
    45     6     1   ar
    46    12     7    1
    47    37    29   ar
    48    20    15   ar
    49    36    31   ar
    50    44    39   ar
    51    25    28    1
    52    23    24    1
@<TRIPOS>MOLECULE
*****
 47 52 0 0 0
SMALL
GASTEIGER

@<TRIPOS>ATOM
      1 C         -62.1709  -42.3093  -21.9541 C.ar    1  UNL1        0.0401
      2 C         -62.7514  -41.1628  -21.3919 C.ar    1  UNL1        0.0172
      3 C         -62.3230  -40.6845  -20.1441 C.ar    1  UNL1        0.0699
      4 C         -61.3332  -41.3968  -19.4591 C.ar    1  UNL1        0.1149
      5 N         -60.7879  -42.5127  -20.0074 N.ar    1  UNL1       -0.2281
      6 C         -61.1738  -42.9883  -21.2217 C.ar    1  UNL1        0.1300
      7 N         -60.5643  -44.1859  -21.7190 N.pl3   1  UNL1       -0.2934
      8 C         -59.3404  -44.1071  -22.5235 C.3     1  UNL1        0.0923
      9 C         -59.5277  -44.8147  -23.8760 C.3     1  UNL1        0.0252
     10 C         -60.4311  -46.0784  -23.8037 C.3     1  UNL1        0.0472
     11 C         -60.6115  -46.5793  -22.3567 C.3     1  UNL1        0.0252
     12 C         -61.2306  -45.4733  -21.4935 C.3     1  UNL1        0.0923
     13 C         -59.8825  -47.1970  -24.7115 C.3     1  UNL1        0.2054
     14 O         -60.9387  -47.8827  -25.3870 O.3     1  UNL1       -0.4755
     15 C         -61.7163  -48.9217  -24.8492 C.ar    1  UNL1        0.1388
     16 C         -63.0786  -48.9528  -25.1651 C.ar    1  UNL1        0.0369
     17 C         -63.9005  -49.9626  -24.6626 C.ar    1  UNL1        0.0033
     18 C         -63.3691  -50.9534  -23.8351 C.ar    1  UNL1        0.0066
     19 C         -62.0042  -50.9415  -23.4984 C.ar    1  UNL1        0.0785
     20 C         -61.1828  -49.9188  -24.0072 C.ar    1  UNL1        0.0433
     21 C         -61.4364  -51.9894  -22.6206 C.2     1  UNL1        0.3381
     22 O         -60.2270  -51.9405  -22.2676 O.2     1  UNL1       -0.2451
     23 O         -62.2339  -53.0405  -22.1745 O.3     1  UNL1       -0.4771
     24 H         -61.8550  -53.7622  -21.5730 H       1  UNL1        0.2954
     25 N         -62.9103  -39.5197  -19.5391 N.am    1  UNL1       -0.2767
     26 C         -63.0390  -38.2550  -20.2054 C.2     1  UNL1        0.2839
     27 O         -62.2460  -37.9500  -21.1365 O.2     1  UNL1       -0.2665
     28 H         -63.1546  -39.5627  -18.5245 H       1  UNL1        0.1553
     29 C         -64.0346  -37.2605  -19.7682 C.ar    1  UNL1        0.1946
     30 O         -63.6934  -36.1367  -19.1625 O.2     1  UNL1       -0.4492
     31 C         -64.7919  -35.4745  -18.8931 C.ar    1  UNL1        0.1452
     32 C         -64.9027  -34.2451  -18.2530 C.ar    1  UNL1        0.0375
     33 C         -66.1905  -33.7146  -18.0612 C.ar    1  UNL1        0.0031
     34 C         -67.3422  -34.4169  -18.5094 C.ar    1  UNL1        0.0002
     35 C         -67.1843  -35.6650  -19.1583 C.ar    1  UNL1        0.0028
     36 C         -65.8917  -36.1603  -19.3319 C.ar    1  UNL1        0.0337
     37 C         -65.4257  -37.3195  -19.9194 C.ar    1  UNL1        0.0202
     38 C         -66.2492  -38.3874  -20.5741 C.3     1  UNL1        0.0345
     39 C         -68.6977  -33.8476  -18.3002 C.ar    1  UNL1        0.0000
     40 C         -69.8197  -34.4217  -18.9277 C.ar    1  UNL1        0.0000
     41 C         -71.0950  -33.8837  -18.7288 C.ar    1  UNL1        0.0000
     42 C         -71.2652  -32.7705  -17.9029 C.ar    1  UNL1        0.0000
     43 C         -70.1603  -32.1923  -17.2743 C.ar    1  UNL1        0.0000
     44 C         -68.8826  -32.7254  -17.4702 C.ar    1  UNL1        0.0000
     45 C         -62.6200  -42.7629  -23.3250 C.3     1  UNL1        0.1715
     46 C         -62.2726  -42.5786  -25.6089 C.3     1  UNL1        0.1746
     47 O         -61.7810  -42.2304  -24.3324 O.3     1  UNL1       -0.3462
@<TRIPOS>BOND
     1    46    47    1
     2    47    45    1
     3    45     1    1
     4     1     2   ar
     5     2     3   ar
     6     3    25    1
     7    25    26   am
     8    26    27    2
     9    26    29    1
    10    29    30   ar
    11    30    31   ar
    12    31    32   ar
    13    32    33   ar
    14    33    34   ar
    15    34    39    1
    16    39    40   ar
    17    40    41   ar
    18    41    42   ar
    19    42    43   ar
    20    43    44   ar
    21    34    35   ar
    22    35    36   ar
    23    36    37   ar
    24    37    38    1
    25     3     4   ar
    26     4     5   ar
    27     5     6   ar
    28     6     7    1
    29     7     8    1
    30     8     9    1
    31     9    10    1
    32    10    13    1
    33    13    14    1
    34    14    15    1
    35    15    16   ar
    36    16    17   ar
    37    17    18   ar
    38    18    19   ar
    39    19    21    1
    40    21    22    2
    41    21    23    1
    42    19    20   ar
    43    10    11    1
    44    11    12    1
    45     6     1   ar
    46    12     7    1
    47    37    29   ar
    48    20    15   ar
    49    36    31   ar
    50    44    39   ar
    51    25    28    1
    52    23    24    1
@<TRIPOS>MOLECULE
*****
 47 52 0 0 0
SMALL
GASTEIGER

@<TRIPOS>ATOM
      1 C         -71.8261  -55.1748  -20.8183 C.ar    1  UNL1        0.0401
      2 C         -71.9206  -55.4968  -22.1802 C.ar    1  UNL1        0.0172
      3 C         -73.0635  -56.1358  -22.6850 C.ar    1  UNL1        0.0699
      4 C         -74.0869  -56.4769  -21.7946 C.ar    1  UNL1        0.1149
      5 N         -73.9786  -56.1717  -20.4762 N.ar    1  UNL1       -0.2281
      6 C         -72.8891  -55.5390  -19.9642 C.ar    1  UNL1        0.1300
      7 N         -72.8431  -55.2739  -18.5568 N.pl3   1  UNL1       -0.2934
      8 C         -72.2959  -56.2781  -17.6384 C.3     1  UNL1        0.0923
      9 C         -73.3139  -56.6283  -16.5402 C.3     1  UNL1        0.0252
     10 C         -74.1812  -55.4223  -16.0804 C.3     1  UNL1        0.0472
     11 C         -73.5756  -54.0733  -16.5174 C.3     1  UNL1        0.0252
     12 C         -73.4344  -54.0333  -18.0439 C.3     1  UNL1        0.0923
     13 C         -74.4068  -55.4589  -14.5559 C.3     1  UNL1        0.2054
     14 O         -73.8090  -54.3303  -13.9150 O.3     1  UNL1       -0.4755
     15 C         -72.5272  -54.2979  -13.3412 C.ar    1  UNL1        0.1388
     16 C         -72.3010  -53.4029  -12.2904 C.ar    1  UNL1        0.0369
     17 C         -71.0486  -53.3282  -11.6791 C.ar    1  UNL1        0.0033
     18 C         -70.0054  -54.1476  -12.1140 C.ar    1  UNL1        0.0066
     19 C         -70.2055  -55.0518  -13.1717 C.ar    1  UNL1        0.0785
     20 C         -71.4704  -55.1194  -13.7841 C.ar    1  UNL1        0.0433
     21 C         -69.1021  -55.9220  -13.6369 C.2     1  UNL1        0.3381
     22 O         -69.3427  -56.9280  -14.3580 O.2     1  UNL1       -0.2451
     23 O         -67.7856  -55.6372  -13.2830 O.3     1  UNL1       -0.4771
     24 H         -67.0234  -56.2261  -13.5967 H       1  UNL1        0.2954
     25 N         -73.1804  -56.4892  -24.0739 N.am    1  UNL1       -0.2767
     26 C         -74.2035  -55.9799  -24.9422 C.2     1  UNL1        0.2839
     27 O         -75.3042  -55.5971  -24.4619 O.2     1  UNL1       -0.2665
     28 H         -72.5573  -57.2413  -24.4442 H       1  UNL1        0.1553
     29 C         -74.0267  -55.9696  -26.4051 C.ar    1  UNL1        0.1946
     30 O         -74.9298  -55.4585  -27.2234 O.2     1  UNL1       -0.4492
     31 C         -74.4922  -55.6072  -28.4498 C.ar    1  UNL1        0.1452
     32 C         -75.1257  -55.2220  -29.6262 C.ar    1  UNL1        0.0375
     33 C         -74.4733  -55.4845  -30.8436 C.ar    1  UNL1        0.0031
     34 C         -73.2044  -56.1246  -30.8673 C.ar    1  UNL1        0.0002
     35 C         -72.5937  -56.4986  -29.6462 C.ar    1  UNL1        0.0028
     36 C         -73.2698  -56.2220  -28.4577 C.ar    1  UNL1        0.0337
     37 C         -72.9365  -56.4548  -27.1382 C.ar    1  UNL1        0.0202
     38 C         -71.6752  -57.0847  -26.6291 C.3     1  UNL1        0.0345
     39 C         -72.5251  -56.3980  -32.1591 C.ar    1  UNL1        0.0000
     40 C         -71.2394  -56.9712  -32.1844 C.ar    1  UNL1        0.0000
     41 C         -70.6021  -57.2278  -33.4023 C.ar    1  UNL1        0.0000
     42 C         -71.2390  -56.9174  -34.6058 C.ar    1  UNL1        0.0000
     43 C         -72.5146  -56.3492  -34.5941 C.ar    1  UNL1        0.0000
     44 C         -73.1564  -56.0895  -33.3793 C.ar    1  UNL1        0.0000
     45 C         -70.6032  -54.4372  -20.3212 C.3     1  UNL1        0.1715
     46 C         -68.4739  -54.0728  -21.1602 C.3     1  UNL1        0.1746
     47 O         -69.8554  -53.9142  -21.4026 O.3     1  UNL1       -0.3462
@<TRIPOS>BOND
     1    46    47    1
     2    47    45    1
     3    45     1    1
     4     1     2   ar
     5     2     3   ar
     6     3    25    1
     7    25    26   am
     8    26    27    2
     9    26    29    1
    10    29    30   ar
    11    30    31   ar
    12    31    32   ar
    13    32    33   ar
    14    33    34   ar
    15    34    39    1
    16    39    40   ar
    17    40    41   ar
    18    41    42   ar
    19    42    43   ar
    20    43    44   ar
    21    34    35   ar
    22    35    36   ar
    23    36    37   ar
    24    37    38    1
    25     3     4   ar
    26     4     5   ar
    27     5     6   ar
    28     6     7    1
    29     7     8    1
    30     8     9    1
    31     9    10    1
    32    10    13    1
    33    13    14    1
    34    14    15    1
    35    15    16   ar
    36    16    17   ar
    37    17    18   ar
    38    18    19   ar
    39    19    21    1
    40    21    22    2
    41    21    23    1
    42    19    20   ar
    43    10    11    1
    44    11    12    1
    45     6     1   ar
    46    12     7    1
    47    37    29   ar
    48    20    15   ar
    49    36    31   ar
    50    44    39   ar
    51    25    28    1
    52    23    24    1
