@<TRIPOS>MOLECULE
*****
 46 51 0 0 0
SMALL
GASTEIGER

@<TRIPOS>ATOM
      1 C          11.6097   81.1531   25.2774 C.ar    1  UNL1        0.0702
      2 C          12.5193   81.7305   26.1698 C.ar    1  UNL1        0.0191
      3 C          13.3234   82.7972   25.7657 C.ar    1  UNL1        0.0357
      4 C          13.2295   83.2814   24.4475 C.ar    1  UNL1        0.1334
      5 N          12.3535   82.6823   23.5919 N.ar    1  UNL1       -0.2278
      6 C          11.5583   81.6453   23.9645 C.ar    1  UNL1        0.1149
      7 N          14.0377   84.3936   23.9908 N.pl3   1  UNL1       -0.2718
      8 C          14.3782   85.4933   24.9134 C.3     1  UNL1        0.0944
      9 C          14.9356   86.7174   24.1735 C.3     1  UNL1        0.0254
     10 C          14.1380   86.9604   22.8836 C.3     1  UNL1        0.0496
     11 C          14.2434   85.7516   21.9172 C.3     1  UNL1        0.0545
     12 C          14.5765   84.4135   22.6184 C.3     1  UNL1        0.1897
     13 O          15.9682   84.2283   22.6771 O.3     1  UNL1       -0.3670
     14 H          16.2656   83.9641   21.7671 H       1  UNL1        0.2122
     15 C          14.5934   88.2656   22.2032 C.3     1  UNL1        0.2055
     16 O          14.7257   88.0902   20.7913 O.3     1  UNL1       -0.4755
     17 C          13.7837   88.4835   19.8267 C.ar    1  UNL1        0.1388
     18 C          12.4687   88.8631   20.1561 C.ar    1  UNL1        0.0369
     19 C          11.5753   89.2431   19.1527 C.ar    1  UNL1        0.0033
     20 C          11.9797   89.2533   17.8162 C.ar    1  UNL1        0.0066
     21 C          13.2894   88.8838   17.4679 C.ar    1  UNL1        0.0785
     22 C          14.1842   88.5021   18.4845 C.ar    1  UNL1        0.0433
     23 C          13.7170   88.8970   16.0513 C.2     1  UNL1        0.3381
     24 O          14.9394   88.9795   15.7537 O.2     1  UNL1       -0.2451
     25 O          12.7715   88.8180   15.0320 O.3     1  UNL1       -0.4771
     26 H          13.0533   88.8261   14.0590 H       1  UNL1        0.2954
     27 C          11.3311   78.7432   26.0259 C.2     1  UNL1        0.2839
     28 O          12.5127   78.4408   25.7077 O.2     1  UNL1       -0.2665
     29 N          10.8041   80.0401   25.7021 N.am    1  UNL1       -0.2766
     30 H           9.7658   80.1592   25.6933 H       1  UNL1        0.1553
     31 C           8.2019   78.2588   25.5298 C.3     1  UNL1        0.0345
     32 C           9.1050   77.5345   26.4822 C.ar    1  UNL1        0.0202
     33 C          10.4711   77.7495   26.6961 C.ar    1  UNL1        0.1946
     34 O          10.9221   76.9130   27.6140 O.2     1  UNL1       -0.4492
     35 C           9.9186   76.1672   28.0073 C.ar    1  UNL1        0.1452
     36 C           9.9418   75.1562   28.9615 C.ar    1  UNL1        0.0375
     37 C           8.7412   74.4780   29.2341 C.ar    1  UNL1        0.0031
     38 C           7.5415   74.8180   28.5524 C.ar    1  UNL1        0.0002
     39 C           7.5613   75.8536   27.5873 C.ar    1  UNL1        0.0028
     40 C           8.7708   76.5055   27.3420 C.ar    1  UNL1        0.0337
     41 C           6.2790   74.0945   28.8488 C.ar    1  UNL1        0.0000
     42 C           5.4857   74.4617   29.9525 C.ar    1  UNL1        0.0000
     43 C           4.2969   73.7792   30.2285 C.ar    1  UNL1        0.0000
     44 C           3.8873   72.7248   29.4093 C.ar    1  UNL1        0.0000
     45 C           4.6656   72.3508   28.3117 C.ar    1  UNL1        0.0000
     46 C           5.8548   73.0303   28.0303 C.ar    1  UNL1        0.0000
@<TRIPOS>BOND
     1    31    32    1
     2    32    33   ar
     3    33    27    1
     4    27    28    2
     5    27    29   am
     6    29     1    1
     7     1     2   ar
     8     2     3   ar
     9     3     4   ar
    10     4     7    1
    11     7     8    1
    12     8     9    1
    13     9    10    1
    14    10    15    1
    15    15    16    1
    16    16    17    1
    17    17    18   ar
    18    18    19   ar
    19    19    20   ar
    20    20    21   ar
    21    21    23    1
    22    23    24    2
    23    23    25    1
    24    21    22   ar
    25    10    11    1
    26    11    12    1
    27    12    13    1
    28     4     5   ar
    29     5     6   ar
    30    33    34   ar
    31    34    35   ar
    32    35    36   ar
    33    36    37   ar
    34    37    38   ar
    35    38    41    1
    36    41    42   ar
    37    42    43   ar
    38    43    44   ar
    39    44    45   ar
    40    45    46   ar
    41    38    39   ar
    42    39    40   ar
    43    40    32   ar
    44     6     1   ar
    45    40    35   ar
    46    12     7    1
    47    46    41   ar
    48    22    17   ar
    49    29    30    1
    50    25    26    1
    51    13    14    1
@<TRIPOS>MOLECULE
*****
 46 51 0 0 0
SMALL
GASTEIGER

@<TRIPOS>ATOM
      1 C          10.5554   81.1087   24.7895 C.ar    1  UNL1        0.0702
      2 C          10.2162   80.3770   23.6464 C.ar    1  UNL1        0.0191
      3 C           9.5034   79.1824   23.7594 C.ar    1  UNL1        0.0357
      4 C           9.1405   78.7044   25.0324 C.ar    1  UNL1        0.1334
      5 N           9.5074   79.4244   26.1302 N.ar    1  UNL1       -0.2278
      6 C          10.1979   80.5916   26.0439 C.ar    1  UNL1        0.1149
      7 N           8.3911   77.4750   25.1933 N.pl3   1  UNL1       -0.2718
      8 C           9.0420   76.2754   25.7535 C.3     1  UNL1        0.0944
      9 C           8.2065   75.0070   25.5315 C.3     1  UNL1        0.0254
     10 C           7.6026   75.0154   24.1193 C.3     1  UNL1        0.0496
     11 C           6.6588   76.2294   23.9151 C.3     1  UNL1        0.0545
     12 C           6.9572   77.4225   24.8535 C.3     1  UNL1        0.1897
     13 O           6.2157   77.3044   26.0413 O.3     1  UNL1       -0.3670
     14 H           5.2786   77.5529   25.8257 H       1  UNL1        0.2122
     15 C           6.8789   73.6860   23.8319 C.3     1  UNL1        0.2055
     16 O           7.4417   73.0299   22.6942 O.3     1  UNL1       -0.4755
     17 C           8.8134   72.8872   22.4281 C.ar    1  UNL1        0.1388
     18 C           9.4738   71.6449   22.4763 C.ar    1  UNL1        0.0369
     19 C          10.8407   71.5653   22.2036 C.ar    1  UNL1        0.0033
     20 C          11.5622   72.7155   21.8775 C.ar    1  UNL1        0.0066
     21 C          10.9201   73.9634   21.8183 C.ar    1  UNL1        0.0785
     22 C           9.5422   74.0358   22.0942 C.ar    1  UNL1        0.0433
     23 C          11.6857   75.1810   21.4709 C.2     1  UNL1        0.3381
     24 O          12.2934   75.8304   22.3647 O.2     1  UNL1       -0.2451
     25 O          11.7425   75.6217   20.1511 O.3     1  UNL1       -0.4771
     26 H          12.2638   76.4539   19.9023 H       1  UNL1        0.2954
     27 C          12.7360   82.4086   24.8075 C.2     1  UNL1        0.2839
     28 O          13.3773   81.4500   25.3161 O.2     1  UNL1       -0.2665
     29 N          11.3094   82.3262   24.6581 N.am    1  UNL1       -0.2766
     30 H          10.7776   83.2168   24.5295 H       1  UNL1        0.1553
     31 C          15.5730   82.5933   23.3274 C.3     1  UNL1        0.0345
     32 C          14.6835   83.7218   23.7549 C.ar    1  UNL1        0.0202
     33 C          13.4454   83.6368   24.4016 C.ar    1  UNL1        0.1946
     34 O          12.9620   84.8480   24.6136 O.2     1  UNL1       -0.4492
     35 C          13.8234   85.7143   24.1388 C.ar    1  UNL1        0.1452
     36 C          13.7194   87.1007   24.1504 C.ar    1  UNL1        0.0375
     37 C          14.7678   87.8462   23.5840 C.ar    1  UNL1        0.0031
     38 C          15.8987   87.1986   23.0170 C.ar    1  UNL1        0.0002
     39 C          15.9650   85.7845   23.0251 C.ar    1  UNL1        0.0028
     40 C          14.9062   85.0763   23.5956 C.ar    1  UNL1        0.0337
     41 C          17.0003   87.9967   22.4215 C.ar    1  UNL1        0.0000
     42 C          18.1656   88.2725   23.1619 C.ar    1  UNL1        0.0000
     43 C          19.2018   89.0235   22.5982 C.ar    1  UNL1        0.0000
     44 C          19.0872   89.5073   21.2931 C.ar    1  UNL1        0.0000
     45 C          17.9362   89.2408   20.5484 C.ar    1  UNL1        0.0000
     46 C          16.8974   88.4895   21.1067 C.ar    1  UNL1        0.0000
@<TRIPOS>BOND
     1    31    32    1
     2    32    33   ar
     3    33    27    1
     4    27    28    2
     5    27    29   am
     6    29     1    1
     7     1     2   ar
     8     2     3   ar
     9     3     4   ar
    10     4     7    1
    11     7     8    1
    12     8     9    1
    13     9    10    1
    14    10    15    1
    15    15    16    1
    16    16    17    1
    17    17    18   ar
    18    18    19   ar
    19    19    20   ar
    20    20    21   ar
    21    21    23    1
    22    23    24    2
    23    23    25    1
    24    21    22   ar
    25    10    11    1
    26    11    12    1
    27    12    13    1
    28     4     5   ar
    29     5     6   ar
    30    33    34   ar
    31    34    35   ar
    32    35    36   ar
    33    36    37   ar
    34    37    38   ar
    35    38    41    1
    36    41    42   ar
    37    42    43   ar
    38    43    44   ar
    39    44    45   ar
    40    45    46   ar
    41    38    39   ar
    42    39    40   ar
    43    40    32   ar
    44     6     1   ar
    45    40    35   ar
    46    12     7    1
    47    46    41   ar
    48    22    17   ar
    49    29    30    1
    50    25    26    1
    51    13    14    1
@<TRIPOS>MOLECULE
*****
 46 51 0 0 0
SMALL
GASTEIGER

@<TRIPOS>ATOM
      1 C          11.9844   81.0135   25.1524 C.ar    1  UNL1        0.0702
      2 C          13.3833   81.0048   25.1452 C.ar    1  UNL1        0.0191
      3 C          14.0936   82.1368   24.7428 C.ar    1  UNL1        0.0357
      4 C          13.3965   83.2860   24.3258 C.ar    1  UNL1        0.1334
      5 N          12.0336   83.2571   24.3178 N.ar    1  UNL1       -0.2278
      6 C          11.3214   82.1679   24.7088 C.ar    1  UNL1        0.1149
      7 N          14.0951   84.4856   23.9111 N.pl3   1  UNL1       -0.2718
      8 C          14.2890   85.5985   24.8599 C.3     1  UNL1        0.0944
      9 C          14.7349   86.8877   24.1560 C.3     1  UNL1        0.0254
     10 C          13.9547   87.0680   22.8453 C.3     1  UNL1        0.0496
     11 C          14.2169   85.8947   21.8651 C.3     1  UNL1        0.0545
     12 C          14.6693   84.5870   22.5568 C.3     1  UNL1        0.1897
     13 O          16.0705   84.5491   22.6565 O.3     1  UNL1       -0.3670
     14 H          16.4213   84.3343   21.7526 H       1  UNL1        0.2122
     15 C          14.2888   88.4261   22.1987 C.3     1  UNL1        0.2055
     16 O          14.5252   88.2836   20.7968 O.3     1  UNL1       -0.4755
     17 C          13.6145   88.6058   19.7772 C.ar    1  UNL1        0.1388
     18 C          12.2810   88.9755   20.0353 C.ar    1  UNL1        0.0369
     19 C          11.4207   89.2833   18.9796 C.ar    1  UNL1        0.0033
     20 C          11.8768   89.2306   17.6609 C.ar    1  UNL1        0.0066
     21 C          13.2056   88.8698   17.3831 C.ar    1  UNL1        0.0785
     22 C          14.0668   88.5611   18.4522 C.ar    1  UNL1        0.0433
     23 C          13.6879   88.8163   15.9852 C.2     1  UNL1        0.3381
     24 O          14.9176   88.6873   15.7381 O.2     1  UNL1       -0.2451
     25 O          12.7864   88.9077   14.9277 O.3     1  UNL1       -0.4771
     26 H          13.1059   88.8721   13.9670 H       1  UNL1        0.2954
     27 C          10.2708   79.8050   26.5837 C.2     1  UNL1        0.2839
     28 O          10.1549   80.7766   27.3782 O.2     1  UNL1       -0.2665
     29 N          11.2668   79.8319   25.5483 N.am    1  UNL1       -0.2766
     30 H          11.5473   78.9234   25.1142 H       1  UNL1        0.1553
     31 C           8.3299   79.1475   29.0481 C.3     1  UNL1        0.0345
     32 C           8.5607   78.3270   27.8150 C.ar    1  UNL1        0.0202
     33 C           9.4097   78.6175   26.7411 C.ar    1  UNL1        0.1946
     34 O           9.3431   77.6547   25.8388 O.2     1  UNL1       -0.4492
     35 C           8.4954   76.7541   26.2726 C.ar    1  UNL1        0.1452
     36 C           8.1233   75.5723   25.6415 C.ar    1  UNL1        0.0375
     37 C           7.1918   74.7428   26.2895 C.ar    1  UNL1        0.0031
     38 C           6.6484   75.1047   27.5518 C.ar    1  UNL1        0.0002
     39 C           7.0536   76.3172   28.1599 C.ar    1  UNL1        0.0028
     40 C           7.9801   77.1163   27.4882 C.ar    1  UNL1        0.0337
     41 C           5.6649   74.2203   28.2270 C.ar    1  UNL1        0.0000
     42 C           4.8883   74.7002   29.2988 C.ar    1  UNL1        0.0000
     43 C           3.9624   73.8653   29.9320 C.ar    1  UNL1        0.0000
     44 C           3.8017   72.5454   29.5049 C.ar    1  UNL1        0.0000
     45 C           4.5663   72.0573   28.4431 C.ar    1  UNL1        0.0000
     46 C           5.4930   72.8879   27.8055 C.ar    1  UNL1        0.0000
@<TRIPOS>BOND
     1    31    32    1
     2    32    33   ar
     3    33    27    1
     4    27    28    2
     5    27    29   am
     6    29     1    1
     7     1     2   ar
     8     2     3   ar
     9     3     4   ar
    10     4     7    1
    11     7     8    1
    12     8     9    1
    13     9    10    1
    14    10    15    1
    15    15    16    1
    16    16    17    1
    17    17    18   ar
    18    18    19   ar
    19    19    20   ar
    20    20    21   ar
    21    21    23    1
    22    23    24    2
    23    23    25    1
    24    21    22   ar
    25    10    11    1
    26    11    12    1
    27    12    13    1
    28     4     5   ar
    29     5     6   ar
    30    33    34   ar
    31    34    35   ar
    32    35    36   ar
    33    36    37   ar
    34    37    38   ar
    35    38    41    1
    36    41    42   ar
    37    42    43   ar
    38    43    44   ar
    39    44    45   ar
    40    45    46   ar
    41    38    39   ar
    42    39    40   ar
    43    40    32   ar
    44     6     1   ar
    45    40    35   ar
    46    12     7    1
    47    46    41   ar
    48    22    17   ar
    49    29    30    1
    50    25    26    1
    51    13    14    1
@<TRIPOS>MOLECULE
*****
 46 51 0 0 0
SMALL
GASTEIGER

@<TRIPOS>ATOM
      1 C           9.9853   79.4767   24.1011 C.ar    1  UNL1        0.0702
      2 C           9.7021   79.2544   22.7492 C.ar    1  UNL1        0.0191
      3 C           9.0623   78.0813   22.3463 C.ar    1  UNL1        0.0357
      4 C           8.7169   77.1105   23.3049 C.ar    1  UNL1        0.1334
      5 N           9.0288   77.3419   24.6116 N.ar    1  UNL1       -0.2278
      6 C           9.6479   78.4780   25.0271 C.ar    1  UNL1        0.1149
      7 N           8.0421   75.8844   22.9306 N.pl3   1  UNL1       -0.2718
      8 C           8.4185   75.1771   21.6918 C.3     1  UNL1        0.0944
      9 C           7.3848   74.1133   21.2962 C.3     1  UNL1        0.0254
     10 C           5.9639   74.6513   21.5215 C.3     1  UNL1        0.0496
     11 C           5.7201   74.9969   23.0140 C.3     1  UNL1        0.0545
     12 C           7.0127   75.2984   23.8087 C.3     1  UNL1        0.1897
     13 O           7.5216   74.1177   24.3756 O.3     1  UNL1       -0.3670
     14 H           6.9488   73.8990   25.1568 H       1  UNL1        0.2122
     15 C           4.9165   73.6501   20.9979 C.3     1  UNL1        0.2055
     16 O           3.7633   74.3281   20.4959 O.3     1  UNL1       -0.4755
     17 C           3.5319   75.7115   20.5685 C.ar    1  UNL1        0.1388
     18 C           4.2664   76.6476   19.8162 C.ar    1  UNL1        0.0369
     19 C           3.9922   78.0116   19.9318 C.ar    1  UNL1        0.0033
     20 C           2.9857   78.4576   20.7908 C.ar    1  UNL1        0.0066
     21 C           2.2377   77.5389   21.5454 C.ar    1  UNL1        0.0785
     22 C           2.5196   76.1657   21.4236 C.ar    1  UNL1        0.0433
     23 C           1.1702   78.0130   22.4538 C.2     1  UNL1        0.3381
     24 O           1.0721   77.5481   23.6218 O.2     1  UNL1       -0.2451
     25 O           0.2625   78.9788   22.0266 O.3     1  UNL1       -0.4771
     26 H          -0.4720   79.3104   22.6404 H       1  UNL1        0.2954
     27 C          12.0942   80.8107   24.5682 C.2     1  UNL1        0.2839
     28 O          12.8277   79.7865   24.5270 O.2     1  UNL1       -0.2665
     29 N          10.6650   80.6803   24.4978 N.am    1  UNL1       -0.2766
     30 H          10.0826   81.4799   24.8351 H       1  UNL1        0.1553
     31 C          12.9799   82.2013   27.3168 C.3     1  UNL1        0.0345
     32 C          13.0894   82.7561   25.9284 C.ar    1  UNL1        0.0202
     33 C          12.7009   82.1456   24.7306 C.ar    1  UNL1        0.1946
     34 O          12.9573   82.9461   23.7113 O.2     1  UNL1       -0.4492
     35 C          13.4910   84.0449   24.1863 C.ar    1  UNL1        0.1452
     36 C          13.9129   85.1575   23.4671 C.ar    1  UNL1        0.0375
     37 C          14.4599   86.2372   24.1818 C.ar    1  UNL1        0.0031
     38 C          14.5769   86.1893   25.5973 C.ar    1  UNL1        0.0002
     39 C          14.1357   85.0371   26.2915 C.ar    1  UNL1        0.0028
     40 C          13.5979   83.9840   25.5499 C.ar    1  UNL1        0.0337
     41 C          15.1564   87.3362   26.3417 C.ar    1  UNL1        0.0000
     42 C          14.7680   87.5973   27.6696 C.ar    1  UNL1        0.0000
     43 C          15.3161   88.6774   28.3684 C.ar    1  UNL1        0.0000
     44 C          16.2547   89.5076   27.7518 C.ar    1  UNL1        0.0000
     45 C          16.6479   89.2593   26.4350 C.ar    1  UNL1        0.0000
     46 C          16.1039   88.1801   25.7317 C.ar    1  UNL1        0.0000
@<TRIPOS>BOND
     1    31    32    1
     2    32    33   ar
     3    33    27    1
     4    27    28    2
     5    27    29   am
     6    29     1    1
     7     1     2   ar
     8     2     3   ar
     9     3     4   ar
    10     4     7    1
    11     7     8    1
    12     8     9    1
    13     9    10    1
    14    10    15    1
    15    15    16    1
    16    16    17    1
    17    17    18   ar
    18    18    19   ar
    19    19    20   ar
    20    20    21   ar
    21    21    23    1
    22    23    24    2
    23    23    25    1
    24    21    22   ar
    25    10    11    1
    26    11    12    1
    27    12    13    1
    28     4     5   ar
    29     5     6   ar
    30    33    34   ar
    31    34    35   ar
    32    35    36   ar
    33    36    37   ar
    34    37    38   ar
    35    38    41    1
    36    41    42   ar
    37    42    43   ar
    38    43    44   ar
    39    44    45   ar
    40    45    46   ar
    41    38    39   ar
    42    39    40   ar
    43    40    32   ar
    44     6     1   ar
    45    40    35   ar
    46    12     7    1
    47    46    41   ar
    48    22    17   ar
    49    29    30    1
    50    25    26    1
    51    13    14    1
@<TRIPOS>MOLECULE
*****
 46 51 0 0 0
SMALL
GASTEIGER

@<TRIPOS>ATOM
      1 C          12.2754   80.7840   25.3292 C.ar    1  UNL1        0.0702
      2 C          11.4610   81.8343   24.8925 C.ar    1  UNL1        0.0191
      3 C          12.0265   82.9726   24.3161 C.ar    1  UNL1        0.0357
      4 C          13.4250   83.0696   24.1908 C.ar    1  UNL1        0.1334
      5 N          14.1953   82.0426   24.6492 N.ar    1  UNL1       -0.2278
      6 C          13.6665   80.9236   25.2101 C.ar    1  UNL1        0.1149
      7 N          14.0518   84.2286   23.5885 N.pl3   1  UNL1       -0.2718
      8 C          13.8921   85.5618   24.1997 C.3     1  UNL1        0.0944
      9 C          14.3295   86.6883   23.2530 C.3     1  UNL1        0.0254
     10 C          13.8510   86.3900   21.8243 C.3     1  UNL1        0.0496
     11 C          14.4659   85.0717   21.2855 C.3     1  UNL1        0.0545
     12 C          14.9019   84.0830   22.3925 C.3     1  UNL1        0.1897
     13 O          16.2382   84.3193   22.7570 O.3     1  UNL1       -0.3670
     14 H          16.8078   83.9477   22.0333 H       1  UNL1        0.2122
     15 C          14.1592   87.5767   20.8912 C.3     1  UNL1        0.2055
     16 O          13.3222   87.5512   19.7335 O.3     1  UNL1       -0.4755
     17 C          13.7635   87.4017   18.4085 C.ar    1  UNL1        0.1388
     18 C          13.7817   88.4655   17.4867 C.ar    1  UNL1        0.0369
     19 C          14.2301   88.2558   16.1812 C.ar    1  UNL1        0.0033
     20 C          14.6671   86.9915   15.7809 C.ar    1  UNL1        0.0066
     21 C          14.6623   85.9186   16.6876 C.ar    1  UNL1        0.0785
     22 C          14.2092   86.1376   18.0017 C.ar    1  UNL1        0.0433
     23 C          15.1275   84.5799   16.2624 C.2     1  UNL1        0.3381
     24 O          14.3065   83.7252   15.8318 O.2     1  UNL1       -0.2451
     25 O          16.4788   84.2509   16.3338 O.3     1  UNL1       -0.4771
     26 H          16.8079   83.3373   16.0452 H       1  UNL1        0.2954
     27 C          10.7641   79.6849   27.0478 C.2     1  UNL1        0.2839
     28 O          10.6320   80.7510   27.7073 O.2     1  UNL1       -0.2665
     29 N          11.6791   79.6274   25.9414 N.am    1  UNL1       -0.2766
     30 H          11.9959   78.6862   25.6156 H       1  UNL1        0.1553
     31 C           7.5782   79.3834   27.2257 C.3     1  UNL1        0.0345
     32 C           8.6180   78.3432   27.5155 C.ar    1  UNL1        0.0202
     33 C          10.0086   78.4792   27.4370 C.ar    1  UNL1        0.1946
     34 O          10.5934   77.3413   27.7672 O.2     1  UNL1       -0.4492
     35 C           9.6538   76.4747   28.0568 C.ar    1  UNL1        0.1452
     36 C           9.8188   75.1532   28.4565 C.ar    1  UNL1        0.0375
     37 C           8.6655   74.3944   28.7206 C.ar    1  UNL1        0.0031
     38 C           7.3709   74.9643   28.5821 C.ar    1  UNL1        0.0002
     39 C           7.2470   76.3137   28.1722 C.ar    1  UNL1        0.0028
     40 C           8.4133   77.0372   27.9183 C.ar    1  UNL1        0.0337
     41 C           6.1596   74.1529   28.8641 C.ar    1  UNL1        0.0000
     42 C           5.3348   74.4565   29.9640 C.ar    1  UNL1        0.0000
     43 C           4.1942   73.6913   30.2265 C.ar    1  UNL1        0.0000
     44 C           3.8648   72.6168   29.3974 C.ar    1  UNL1        0.0000
     45 C           4.6751   72.3053   28.3034 C.ar    1  UNL1        0.0000
     46 C           5.8162   73.0676   28.0355 C.ar    1  UNL1        0.0000
@<TRIPOS>BOND
     1    31    32    1
     2    32    33   ar
     3    33    27    1
     4    27    28    2
     5    27    29   am
     6    29     1    1
     7     1     2   ar
     8     2     3   ar
     9     3     4   ar
    10     4     7    1
    11     7     8    1
    12     8     9    1
    13     9    10    1
    14    10    15    1
    15    15    16    1
    16    16    17    1
    17    17    18   ar
    18    18    19   ar
    19    19    20   ar
    20    20    21   ar
    21    21    23    1
    22    23    24    2
    23    23    25    1
    24    21    22   ar
    25    10    11    1
    26    11    12    1
    27    12    13    1
    28     4     5   ar
    29     5     6   ar
    30    33    34   ar
    31    34    35   ar
    32    35    36   ar
    33    36    37   ar
    34    37    38   ar
    35    38    41    1
    36    41    42   ar
    37    42    43   ar
    38    43    44   ar
    39    44    45   ar
    40    45    46   ar
    41    38    39   ar
    42    39    40   ar
    43    40    32   ar
    44     6     1   ar
    45    40    35   ar
    46    12     7    1
    47    46    41   ar
    48    22    17   ar
    49    29    30    1
    50    25    26    1
    51    13    14    1
@<TRIPOS>MOLECULE
*****
 46 51 0 0 0
SMALL
GASTEIGER

@<TRIPOS>ATOM
      1 C          10.6187   81.1734   24.8693 C.ar    1  UNL1        0.0702
      2 C          10.2259   80.4546   23.7353 C.ar    1  UNL1        0.0191
      3 C           9.5143   79.2614   23.8680 C.ar    1  UNL1        0.0357
      4 C           9.2067   78.7717   25.1511 C.ar    1  UNL1        0.1334
      5 N           9.6251   79.4792   26.2386 N.ar    1  UNL1       -0.2278
      6 C          10.3156   80.6448   26.1332 C.ar    1  UNL1        0.1149
      7 N           8.4604   77.5433   25.3330 N.pl3   1  UNL1       -0.2718
      8 C           7.0157   77.5881   25.6283 C.3     1  UNL1        0.0944
      9 C           6.4829   76.2339   26.1170 C.3     1  UNL1        0.0254
     10 C           7.4876   75.5920   27.0853 C.3     1  UNL1        0.0496
     11 C           8.8503   75.3273   26.3930 C.3     1  UNL1        0.0545
     12 C           9.1208   76.2351   25.1699 C.3     1  UNL1        0.1897
     13 O           8.6379   75.6286   23.9979 O.3     1  UNL1       -0.3670
     14 H           9.2785   74.9089   23.7570 H       1  UNL1        0.2122
     15 C           6.9054   74.3012   27.6925 C.3     1  UNL1        0.2055
     16 O           6.9529   74.3378   29.1202 O.3     1  UNL1       -0.4755
     17 C           6.9461   75.4999   29.9090 C.ar    1  UNL1        0.1388
     18 C           6.0082   75.7183   30.9359 C.ar    1  UNL1        0.0369
     19 C           6.0499   76.8950   31.6862 C.ar    1  UNL1        0.0033
     20 C           7.0234   77.8619   31.4268 C.ar    1  UNL1        0.0066
     21 C           7.9717   77.6598   30.4104 C.ar    1  UNL1        0.0785
     22 C           7.9236   76.4714   29.6585 C.ar    1  UNL1        0.0433
     23 C           9.0038   78.6845   30.1381 C.2     1  UNL1        0.3381
     24 O           9.8855   78.9481   31.0000 O.2     1  UNL1       -0.2451
     25 O           9.0111   79.3682   28.9250 O.3     1  UNL1       -0.4771
     26 H           9.7132   80.0715   28.7282 H       1  UNL1        0.2954
     27 C          12.7958   82.4794   24.8775 C.2     1  UNL1        0.2839
     28 O          13.4346   81.5347   25.4144 O.2     1  UNL1       -0.2665
     29 N          11.3708   82.3896   24.7166 N.am    1  UNL1       -0.2766
     30 H          10.8381   83.2755   24.5622 H       1  UNL1        0.1553
     31 C          15.5081   82.6321   23.1765 C.3     1  UNL1        0.0345
     32 C          14.6897   83.7707   23.7067 C.ar    1  UNL1        0.0202
     33 C          13.5059   83.6996   24.4497 C.ar    1  UNL1        0.1946
     34 O          13.0771   84.9165   24.7343 O.2     1  UNL1       -0.4492
     35 C          13.9224   85.7732   24.2153 C.ar    1  UNL1        0.1452
     36 C          13.8606   87.1610   24.2744 C.ar    1  UNL1        0.0375
     37 C          14.8813   87.8946   23.6454 C.ar    1  UNL1        0.0031
     38 C          15.9431   87.2342   22.9700 C.ar    1  UNL1        0.0002
     39 C          15.9681   85.8192   22.9329 C.ar    1  UNL1        0.0028
     40 C          14.9386   85.1229   23.5679 C.ar    1  UNL1        0.0337
     41 C          17.0160   88.0199   22.3091 C.ar    1  UNL1        0.0000
     42 C          18.1486   88.4362   23.0345 C.ar    1  UNL1        0.0000
     43 C          19.1578   89.1751   22.4093 C.ar    1  UNL1        0.0000
     44 C          19.0486   89.5070   21.0571 C.ar    1  UNL1        0.0000
     45 C          17.9299   89.1002   20.3268 C.ar    1  UNL1        0.0000
     46 C          16.9181   88.3603   20.9465 C.ar    1  UNL1        0.0000
@<TRIPOS>BOND
     1    31    32    1
     2    32    33   ar
     3    33    27    1
     4    27    28    2
     5    27    29   am
     6    29     1    1
     7     1     2   ar
     8     2     3   ar
     9     3     4   ar
    10     4     7    1
    11     7     8    1
    12     8     9    1
    13     9    10    1
    14    10    15    1
    15    15    16    1
    16    16    17    1
    17    17    18   ar
    18    18    19   ar
    19    19    20   ar
    20    20    21   ar
    21    21    23    1
    22    23    24    2
    23    23    25    1
    24    21    22   ar
    25    10    11    1
    26    11    12    1
    27    12    13    1
    28     4     5   ar
    29     5     6   ar
    30    33    34   ar
    31    34    35   ar
    32    35    36   ar
    33    36    37   ar
    34    37    38   ar
    35    38    41    1
    36    41    42   ar
    37    42    43   ar
    38    43    44   ar
    39    44    45   ar
    40    45    46   ar
    41    38    39   ar
    42    39    40   ar
    43    40    32   ar
    44     6     1   ar
    45    40    35   ar
    46    12     7    1
    47    46    41   ar
    48    22    17   ar
    49    29    30    1
    50    25    26    1
    51    13    14    1
@<TRIPOS>MOLECULE
*****
 46 51 0 0 0
SMALL
GASTEIGER

@<TRIPOS>ATOM
      1 C          10.0342   79.3450   24.0971 C.ar    1  UNL1        0.0702
      2 C           9.2530   78.6575   25.0321 C.ar    1  UNL1        0.0191
      3 C           8.5982   77.4784   24.6732 C.ar    1  UNL1        0.0357
      4 C           8.7116   76.9899   23.3582 C.ar    1  UNL1        0.1334
      5 N           9.4577   77.6946   22.4610 N.ar    1  UNL1       -0.2278
      6 C          10.1069   78.8425   22.7891 C.ar    1  UNL1        0.1149
      7 N           8.0573   75.7643   22.9475 N.pl3   1  UNL1       -0.2718
      8 C           8.3220   75.1911   21.6142 C.3     1  UNL1        0.0944
      9 C           7.3015   74.1080   21.2372 C.3     1  UNL1        0.0254
     10 C           5.8920   74.5411   21.6669 C.3     1  UNL1        0.0496
     11 C           5.8052   74.7402   23.2029 C.3     1  UNL1        0.0545
     12 C           7.1646   75.0452   23.8750 C.3     1  UNL1        0.1897
     13 O           7.7910   73.8508   24.2696 O.3     1  UNL1       -0.3670
     14 H           7.3228   73.5320   25.0853 H       1  UNL1        0.2122
     15 C           4.8402   73.5306   21.1705 C.3     1  UNL1        0.2055
     16 O           3.5770   74.1648   20.9609 O.3     1  UNL1       -0.4755
     17 C           3.3783   75.5366   20.7344 C.ar    1  UNL1        0.1388
     18 C           2.6960   76.3680   21.6427 C.ar    1  UNL1        0.0369
     19 C           2.5276   77.7252   21.3621 C.ar    1  UNL1        0.0033
     20 C           3.0374   78.2691   20.1814 C.ar    1  UNL1        0.0066
     21 C           3.7265   77.4573   19.2653 C.ar    1  UNL1        0.0785
     22 C           3.8924   76.0903   19.5549 C.ar    1  UNL1        0.0433
     23 C           4.2677   78.0355   18.0154 C.2     1  UNL1        0.3381
     24 O           4.4897   79.2737   17.9280 O.2     1  UNL1       -0.2451
     25 O           4.5377   77.2162   16.9223 O.3     1  UNL1       -0.4771
     26 H           4.9084   77.6017   16.0619 H       1  UNL1        0.2954
     27 C          12.1041   80.7065   24.6513 C.2     1  UNL1        0.2839
     28 O          12.8352   79.6825   24.7277 O.2     1  UNL1       -0.2665
     29 N          10.6845   80.5704   24.4759 N.am    1  UNL1       -0.2766
     30 H          10.0799   81.3876   24.7192 H       1  UNL1        0.1553
     31 C          12.9713   82.1688   27.3684 C.3     1  UNL1        0.0345
     32 C          13.0809   82.6911   25.9675 C.ar    1  UNL1        0.0202
     33 C          12.7005   82.0493   24.7835 C.ar    1  UNL1        0.1946
     34 O          12.9542   82.8271   23.7461 O.2     1  UNL1       -0.4492
     35 C          13.4785   83.9408   24.1962 C.ar    1  UNL1        0.1452
     36 C          13.8944   85.0390   23.4518 C.ar    1  UNL1        0.0375
     37 C          14.4313   86.1395   24.1420 C.ar    1  UNL1        0.0031
     38 C          14.5443   86.1263   25.5586 C.ar    1  UNL1        0.0002
     39 C          14.1094   84.9877   26.2789 C.ar    1  UNL1        0.0028
     40 C          13.5816   83.9133   25.5612 C.ar    1  UNL1        0.0337
     41 C          15.1132   87.2948   26.2771 C.ar    1  UNL1        0.0000
     42 C          14.7241   87.5807   27.5997 C.ar    1  UNL1        0.0000
     43 C          15.2622   88.6812   28.2740 C.ar    1  UNL1        0.0000
     44 C          16.1913   89.5074   27.6380 C.ar    1  UNL1        0.0000
     45 C          16.5851   89.2346   26.3262 C.ar    1  UNL1        0.0000
     46 C          16.0511   88.1350   25.6473 C.ar    1  UNL1        0.0000
@<TRIPOS>BOND
     1    31    32    1
     2    32    33   ar
     3    33    27    1
     4    27    28    2
     5    27    29   am
     6    29     1    1
     7     1     2   ar
     8     2     3   ar
     9     3     4   ar
    10     4     7    1
    11     7     8    1
    12     8     9    1
    13     9    10    1
    14    10    15    1
    15    15    16    1
    16    16    17    1
    17    17    18   ar
    18    18    19   ar
    19    19    20   ar
    20    20    21   ar
    21    21    23    1
    22    23    24    2
    23    23    25    1
    24    21    22   ar
    25    10    11    1
    26    11    12    1
    27    12    13    1
    28     4     5   ar
    29     5     6   ar
    30    33    34   ar
    31    34    35   ar
    32    35    36   ar
    33    36    37   ar
    34    37    38   ar
    35    38    41    1
    36    41    42   ar
    37    42    43   ar
    38    43    44   ar
    39    44    45   ar
    40    45    46   ar
    41    38    39   ar
    42    39    40   ar
    43    40    32   ar
    44     6     1   ar
    45    40    35   ar
    46    12     7    1
    47    46    41   ar
    48    22    17   ar
    49    29    30    1
    50    25    26    1
    51    13    14    1
@<TRIPOS>MOLECULE
*****
 46 51 0 0 0
SMALL
GASTEIGER

@<TRIPOS>ATOM
      1 C          10.3731   80.8468   24.7176 C.ar    1  UNL1        0.0702
      2 C          10.0341   80.3147   25.9662 C.ar    1  UNL1        0.0191
      3 C           9.2607   79.1562   26.0528 C.ar    1  UNL1        0.0357
      4 C           8.8057   78.5317   24.8765 C.ar    1  UNL1        0.1334
      5 N           9.1289   79.0871   23.6743 N.ar    1  UNL1       -0.2278
      6 C           9.8836   80.2120   23.5660 C.ar    1  UNL1        0.1149
      7 N           8.0101   77.3218   24.9217 N.pl3   1  UNL1       -0.2718
      8 C           6.5740   77.3883   25.2528 C.3     1  UNL1        0.0944
      9 C           5.9916   76.0066   25.5818 C.3     1  UNL1        0.0254
     10 C           6.9842   75.2084   26.4402 C.3     1  UNL1        0.0496
     11 C           8.3220   74.9768   25.6898 C.3     1  UNL1        0.0545
     12 C           8.6103   76.0182   24.5829 C.3     1  UNL1        0.1897
     13 O           8.0814   75.5829   23.3559 O.3     1  UNL1       -0.3670
     14 H           8.6859   74.8733   23.0134 H       1  UNL1        0.2122
     15 C           6.3572   73.8768   26.8958 C.3     1  UNL1        0.2055
     16 O           6.3111   73.7915   28.3214 O.3     1  UNL1       -0.4755
     17 C           6.2608   74.8825   29.2045 C.ar    1  UNL1        0.1388
     18 C           7.4128   75.4490   29.7822 C.ar    1  UNL1        0.0369
     19 C           7.3001   76.5325   30.6554 C.ar    1  UNL1        0.0033
     20 C           6.0455   77.0648   30.9595 C.ar    1  UNL1        0.0066
     21 C           4.8847   76.5174   30.3886 C.ar    1  UNL1        0.0785
     22 C           5.0061   75.4255   29.5093 C.ar    1  UNL1        0.0433
     23 C           3.5561   77.0837   30.7104 C.2     1  UNL1        0.3381
     24 O           2.5053   76.4413   30.4403 O.2     1  UNL1       -0.2451
     25 O           3.4538   78.3336   31.3158 O.3     1  UNL1       -0.4771
     26 H           2.5493   78.7306   31.5405 H       1  UNL1        0.2954
     27 C          12.5847   82.0809   24.5414 C.2     1  UNL1        0.2839
     28 O          13.2572   81.0385   24.7647 O.2     1  UNL1       -0.2665
     29 N          11.1518   82.0536   24.6452 N.am    1  UNL1       -0.2766
     30 H          10.6511   82.9639   24.7596 H       1  UNL1        0.1553
     31 C          15.5338   82.4108   23.3303 C.3     1  UNL1        0.0345
     32 C          14.5583   83.4929   23.6834 C.ar    1  UNL1        0.0202
     33 C          13.2713   83.3446   24.2126 C.ar    1  UNL1        0.1946
     34 O          12.7157   84.5302   24.3892 O.2     1  UNL1       -0.4492
     35 C          13.5764   85.4400   24.0029 C.ar    1  UNL1        0.1452
     36 C          13.4085   86.8202   24.0164 C.ar    1  UNL1        0.0375
     37 C          14.4692   87.6188   23.5550 C.ar    1  UNL1        0.0031
     38 C          15.6757   87.0295   23.0891 C.ar    1  UNL1        0.0002
     39 C          15.8055   85.6198   23.0916 C.ar    1  UNL1        0.0028
     40 C          14.7325   84.8579   23.5565 C.ar    1  UNL1        0.0337
     41 C          16.7896   87.8835   22.6041 C.ar    1  UNL1        0.0000
     42 C          17.8830   88.1773   23.4410 C.ar    1  UNL1        0.0000
     43 C          18.9309   88.9809   22.9813 C.ar    1  UNL1        0.0000
     44 C          18.8997   89.4999   21.6851 C.ar    1  UNL1        0.0000
     45 C          17.8205   89.2160   20.8453 C.ar    1  UNL1        0.0000
     46 C          16.7704   88.4122   21.2994 C.ar    1  UNL1        0.0000
@<TRIPOS>BOND
     1    31    32    1
     2    32    33   ar
     3    33    27    1
     4    27    28    2
     5    27    29   am
     6    29     1    1
     7     1     2   ar
     8     2     3   ar
     9     3     4   ar
    10     4     7    1
    11     7     8    1
    12     8     9    1
    13     9    10    1
    14    10    15    1
    15    15    16    1
    16    16    17    1
    17    17    18   ar
    18    18    19   ar
    19    19    20   ar
    20    20    21   ar
    21    21    23    1
    22    23    24    2
    23    23    25    1
    24    21    22   ar
    25    10    11    1
    26    11    12    1
    27    12    13    1
    28     4     5   ar
    29     5     6   ar
    30    33    34   ar
    31    34    35   ar
    32    35    36   ar
    33    36    37   ar
    34    37    38   ar
    35    38    41    1
    36    41    42   ar
    37    42    43   ar
    38    43    44   ar
    39    44    45   ar
    40    45    46   ar
    41    38    39   ar
    42    39    40   ar
    43    40    32   ar
    44     6     1   ar
    45    40    35   ar
    46    12     7    1
    47    46    41   ar
    48    22    17   ar
    49    29    30    1
    50    25    26    1
    51    13    14    1
@<TRIPOS>MOLECULE
*****
 46 51 0 0 0
SMALL
GASTEIGER

@<TRIPOS>ATOM
      1 C          11.5806   80.8216   24.1272 C.ar    1  UNL1        0.0702
      2 C          12.3227   79.7597   24.6551 C.ar    1  UNL1        0.0191
      3 C          11.7187   78.5228   24.8852 C.ar    1  UNL1        0.0357
      4 C          10.3512   78.3505   24.6003 C.ar    1  UNL1        0.1334
      5 N           9.6466   79.4102   24.1116 N.ar    1  UNL1       -0.2278
      6 C          10.2146   80.6220   23.8762 C.ar    1  UNL1        0.1149
      7 N           9.6883   77.0801   24.8139 N.pl3   1  UNL1       -0.2718
      8 C           9.8180   75.9975   23.8202 C.3     1  UNL1        0.0944
      9 C           8.7912   74.8790   24.0460 C.3     1  UNL1        0.0254
     10 C           7.4273   75.4831   24.4115 C.3     1  UNL1        0.0496
     11 C           7.5067   76.3062   25.7240 C.3     1  UNL1        0.0545
     12 C           8.9240   76.8333   26.0505 C.3     1  UNL1        0.1897
     13 O           9.6221   75.8985   26.8337 O.3     1  UNL1       -0.3670
     14 H           9.2563   75.9592   27.7551 H       1  UNL1        0.2122
     15 C           6.3540   74.3814   24.5029 C.3     1  UNL1        0.2055
     16 O           5.4553   74.4461   23.3940 O.3     1  UNL1       -0.4755
     17 C           4.9286   75.6225   22.8359 C.ar    1  UNL1        0.1388
     18 C           5.5186   76.2753   21.7371 C.ar    1  UNL1        0.0369
     19 C           4.9501   77.4437   21.2263 C.ar    1  UNL1        0.0033
     20 C           3.7907   77.9714   21.7983 C.ar    1  UNL1        0.0066
     21 C           3.1835   77.3314   22.8914 C.ar    1  UNL1        0.0785
     22 C           3.7622   76.1542   23.4006 C.ar    1  UNL1        0.0433
     23 C           1.9539   77.8908   23.4952 C.2     1  UNL1        0.3381
     24 O           1.4252   78.9320   23.0195 O.2     1  UNL1       -0.2451
     25 O           1.3681   77.2714   24.5963 O.3     1  UNL1       -0.4771
     26 H           0.5263   77.6460   25.0173 H       1  UNL1        0.2954
     27 C          12.8058   82.8822   24.9629 C.2     1  UNL1        0.2839
     28 O          12.5777   82.6059   26.1714 O.2     1  UNL1       -0.2665
     29 N          12.2119   82.0965   23.9167 N.am    1  UNL1       -0.2766
     30 H          12.1605   82.5132   22.9596 H       1  UNL1        0.1553
     31 C          15.1548   82.9711   22.7841 C.3     1  UNL1        0.0345
     32 C          14.6777   84.0839   23.6680 C.ar    1  UNL1        0.0202
     33 C          13.6517   84.0407   24.6187 C.ar    1  UNL1        0.1946
     34 O          13.5227   85.2209   25.1985 O.2     1  UNL1       -0.4492
     35 C          14.4130   86.0270   24.6737 C.ar    1  UNL1        0.1452
     36 C          14.6316   87.3633   24.9897 C.ar    1  UNL1        0.0375
     37 C          15.6481   88.0469   24.3005 C.ar    1  UNL1        0.0031
     38 C          16.4269   87.3887   23.3106 C.ar    1  UNL1        0.0002
     39 C          16.1714   86.0273   23.0186 C.ar    1  UNL1        0.0028
     40 C          15.1547   85.3798   23.7221 C.ar    1  UNL1        0.0337
     41 C          17.4983   88.1212   22.5889 C.ar    1  UNL1        0.0000
     42 C          18.7231   88.4053   23.2226 C.ar    1  UNL1        0.0000
     43 C          19.7305   89.0944   22.5403 C.ar    1  UNL1        0.0000
     44 C          19.5278   89.5077   21.2217 C.ar    1  UNL1        0.0000
     45 C          18.3172   89.2323   20.5822 C.ar    1  UNL1        0.0000
     46 C          17.3067   88.5427   21.2593 C.ar    1  UNL1        0.0000
@<TRIPOS>BOND
     1    31    32    1
     2    32    33   ar
     3    33    27    1
     4    27    28    2
     5    27    29   am
     6    29     1    1
     7     1     2   ar
     8     2     3   ar
     9     3     4   ar
    10     4     7    1
    11     7     8    1
    12     8     9    1
    13     9    10    1
    14    10    15    1
    15    15    16    1
    16    16    17    1
    17    17    18   ar
    18    18    19   ar
    19    19    20   ar
    20    20    21   ar
    21    21    23    1
    22    23    24    2
    23    23    25    1
    24    21    22   ar
    25    10    11    1
    26    11    12    1
    27    12    13    1
    28     4     5   ar
    29     5     6   ar
    30    33    34   ar
    31    34    35   ar
    32    35    36   ar
    33    36    37   ar
    34    37    38   ar
    35    38    41    1
    36    41    42   ar
    37    42    43   ar
    38    43    44   ar
    39    44    45   ar
    40    45    46   ar
    41    38    39   ar
    42    39    40   ar
    43    40    32   ar
    44     6     1   ar
    45    40    35   ar
    46    12     7    1
    47    46    41   ar
    48    22    17   ar
    49    29    30    1
    50    25    26    1
    51    13    14    1
