@<TRIPOS>MOLECULE
*****
 43 47 0 0 0
SMALL
GASTEIGER

@<TRIPOS>ATOM
      1 C         -26.5759   50.2631   -7.0325 C.ar    1  UNL1        0.0888
      2 C         -25.2576   50.7397   -7.2719 C.ar    1  UNL1        0.0282
      3 C         -24.8628   50.9639   -8.5990 C.ar    1  UNL1        0.0997
      4 N         -23.6705   51.3997   -9.0437 N.ar    1  UNL1       -0.2137
      5 C         -23.8518   51.4375  -10.3916 C.ar    1  UNL1        0.1984
      6 N         -25.0845   51.0355  -10.7970 N.ar    1  UNL1       -0.3255
      7 C         -25.7061   50.7448   -9.6496 C.ar    1  UNL1        0.0755
      8 C         -26.9986   50.2870   -9.4386 C.ar    1  UNL1        0.0325
      9 C         -27.4221   50.0596   -8.1529 C.ar    1  UNL1        0.1401
     10 O         -28.7406   49.6542   -8.1421 O.3     1  UNL1       -0.4824
     11 C         -29.2666   49.5855   -9.4712 C.3     1  UNL1        0.1375
     12 C         -29.7122   48.1461   -9.7607 C.3     1  UNL1        0.0439
     13 C         -30.4551   50.5486   -9.5900 C.3     1  UNL1        0.0439
     14 C         -28.0890   50.0161  -10.4086 C.3     1  UNL1        0.0709
     15 H         -25.4587   50.9466  -11.7678 H       1  UNL1        0.1686
     16 N         -27.8883   48.9013   -5.3437 N.am    1  UNL1       -0.2805
     17 C         -27.0465   50.0232   -5.6513 C.2     1  UNL1        0.2525
     18 O         -26.6861   50.8050   -4.7289 O.2     1  UNL1       -0.2697
     19 H         -27.8650   48.0691   -5.9745 H       1  UNL1        0.1552
     20 C         -29.8422   49.3348   -3.8779 C.ar    1  UNL1        0.0478
     21 C         -30.4377   49.2513   -2.6073 C.ar    1  UNL1        0.0079
     22 C         -29.7839   48.6179   -1.5408 C.ar    1  UNL1        0.0713
     23 C         -28.5381   48.0161   -1.7641 C.ar    1  UNL1        0.0008
     24 C         -27.9115   48.1028   -3.0157 C.ar    1  UNL1       -0.0083
     25 C         -26.5586   47.4722   -3.2122 C.3     1  UNL1        0.0323
     26 C         -28.5548   48.7767   -4.0765 C.ar    1  UNL1        0.0492
     27 C         -30.4653   48.4853   -0.2009 C.3     1  UNL1        0.4186
     28 F         -31.3155   49.5592   -0.0146 F       1  UNL1       -0.1659
     29 F         -31.1988   47.3130   -0.1378 F       1  UNL1       -0.1659
     30 F         -29.5328   48.4655    0.8220 F       1  UNL1       -0.1659
     31 C         -31.0665   51.3736   -4.9341 C.3     1  UNL1        0.0773
     32 C         -30.6018   49.9510   -4.9969 C.2     1  UNL1        0.1747
     33 O         -30.9161   49.2568   -6.0011 O.2     1  UNL1       -0.2913
     34 N         -22.8052   51.8205  -11.2930 N.pl3   1  UNL1       -0.2816
     35 H         -22.9777   51.7105  -12.3175 H       1  UNL1        0.1551
     36 C         -21.5795   52.4311  -10.8614 C.ar    1  UNL1        0.0889
     37 C         -20.3895   51.6805  -10.7993 C.ar    1  UNL1        0.1543
     38 F         -20.3781   50.3723  -11.1596 F       1  UNL1       -0.2028
     39 C         -19.1956   52.2868  -10.3976 C.ar    1  UNL1        0.0310
     40 C         -19.1736   53.6434  -10.0683 C.ar    1  UNL1        0.0033
     41 C         -20.3443   54.4009  -10.1466 C.ar    1  UNL1        0.0128
     42 C         -21.5452   53.8040  -10.5481 C.ar    1  UNL1        0.0733
     43 CL        -23.0009   54.7885  -10.6162 Cl      1  UNL1       -0.0809
@<TRIPOS>BOND
     1    31    32    1
     2    32    33    2
     3    32    20    1
     4    20    21   ar
     5    21    22   ar
     6    22    27    1
     7    27    28    1
     8    27    29    1
     9    27    30    1
    10    22    23   ar
    11    23    24   ar
    12    24    25    1
    13    24    26   ar
    14    26    16    1
    15    16    17   am
    16    17    18    2
    17    17     1    1
    18     1     2   ar
    19     2     3   ar
    20     3     4   ar
    21     4     5   ar
    22     5    34    1
    23    34    36    1
    24    36    37   ar
    25    37    38    1
    26    37    39   ar
    27    39    40   ar
    28    40    41   ar
    29    41    42   ar
    30    42    43    1
    31     5     6   ar
    32     6     7   ar
    33     7     8   ar
    34     8     9   ar
    35     9    10    1
    36    10    11    1
    37    11    12    1
    38    11    13    1
    39    11    14    1
    40    26    20   ar
    41     9     1   ar
    42     7     3   ar
    43    14     8    1
    44    42    36   ar
    45    16    19    1
    46    34    35    1
    47     6    15    1
@<TRIPOS>MOLECULE
*****
 43 47 0 0 0
SMALL
GASTEIGER

@<TRIPOS>ATOM
      1 C         -26.6008   50.2688   -6.9035 C.ar    1  UNL1        0.0888
      2 C         -25.2900   50.7570   -7.1602 C.ar    1  UNL1        0.0282
      3 C         -24.8985   50.9403   -8.4945 C.ar    1  UNL1        0.0997
      4 N         -23.7131   51.3784   -8.9549 N.ar    1  UNL1       -0.2137
      5 C         -23.8948   51.3659  -10.3032 C.ar    1  UNL1        0.1984
      6 N         -25.1212   50.9310  -10.6936 N.ar    1  UNL1       -0.3255
      7 C         -25.7383   50.6713   -9.5363 C.ar    1  UNL1        0.0755
      8 C         -27.0236   50.2013   -9.3087 C.ar    1  UNL1        0.0325
      9 C         -27.4436   50.0129   -8.0157 C.ar    1  UNL1        0.1401
     10 O         -28.7557   49.5879   -7.9900 O.3     1  UNL1       -0.4824
     11 C         -29.2805   49.4642   -9.3155 C.3     1  UNL1        0.1375
     12 C         -29.7038   48.0089   -9.5539 C.3     1  UNL1        0.0439
     13 C         -30.4837   50.4041   -9.4677 C.3     1  UNL1        0.0439
     14 C         -28.1096   49.8797  -10.2681 C.3     1  UNL1        0.0709
     15 H         -25.4939   50.8021  -11.6605 H       1  UNL1        0.1686
     16 N         -27.8363   48.9125   -5.1534 N.am    1  UNL1       -0.2805
     17 C         -27.0677   50.0705   -5.5145 C.2     1  UNL1        0.2525
     18 O         -26.7688   50.9217   -4.6325 O.2     1  UNL1       -0.2697
     19 H         -27.7519   48.0520   -5.7392 H       1  UNL1        0.1552
     20 C         -27.8333   48.2868   -2.7527 C.ar    1  UNL1        0.0478
     21 C         -28.5369   48.1402   -1.5446 C.ar    1  UNL1        0.0079
     22 C         -29.8850   48.5116   -1.4415 C.ar    1  UNL1        0.0713
     23 C         -30.5222   49.0847   -2.5504 C.ar    1  UNL1        0.0008
     24 C         -29.8508   49.2229   -3.7738 C.ar    1  UNL1       -0.0083
     25 C         -30.5753   49.8134   -4.9539 C.3     1  UNL1        0.0323
     26 C         -28.5053   48.8101   -3.8854 C.ar    1  UNL1        0.0492
     27 C         -30.6056   48.4030   -0.1201 C.3     1  UNL1        0.4186
     28 F         -31.4848   47.3375   -0.1676 F       1  UNL1       -0.1659
     29 F         -29.7069   48.2005    0.9132 F       1  UNL1       -0.1659
     30 F         -31.3147   49.5616    0.1467 F       1  UNL1       -0.1659
     31 C         -25.9149   46.6003   -3.2489 C.3     1  UNL1        0.0773
     32 C         -26.3869   47.9480   -2.7966 C.2     1  UNL1        0.1747
     33 O         -25.5327   48.7837   -2.3951 O.2     1  UNL1       -0.2913
     34 N         -22.8542   51.7330  -11.2181 N.pl3   1  UNL1       -0.2816
     35 H         -23.0261   51.5871  -12.2381 H       1  UNL1        0.1551
     36 C         -21.6363   52.3737  -10.8083 C.ar    1  UNL1        0.0889
     37 C         -20.4311   51.6478  -10.7490 C.ar    1  UNL1        0.1543
     38 F         -20.3973   50.3352  -11.0914 F       1  UNL1       -0.2028
     39 C         -19.2453   52.2831  -10.3687 C.ar    1  UNL1        0.0310
     40 C         -19.2469   53.6443  -10.0582 C.ar    1  UNL1        0.0033
     41 C         -20.4331   54.3773  -10.1340 C.ar    1  UNL1        0.0128
     42 C         -21.6262   53.7512  -10.5142 C.ar    1  UNL1        0.0733
     43 CL        -23.1018   54.7057  -10.5798 Cl      1  UNL1       -0.0809
@<TRIPOS>BOND
     1    31    32    1
     2    32    33    2
     3    32    20    1
     4    20    21   ar
     5    21    22   ar
     6    22    27    1
     7    27    28    1
     8    27    29    1
     9    27    30    1
    10    22    23   ar
    11    23    24   ar
    12    24    25    1
    13    24    26   ar
    14    26    16    1
    15    16    17   am
    16    17    18    2
    17    17     1    1
    18     1     2   ar
    19     2     3   ar
    20     3     4   ar
    21     4     5   ar
    22     5    34    1
    23    34    36    1
    24    36    37   ar
    25    37    38    1
    26    37    39   ar
    27    39    40   ar
    28    40    41   ar
    29    41    42   ar
    30    42    43    1
    31     5     6   ar
    32     6     7   ar
    33     7     8   ar
    34     8     9   ar
    35     9    10    1
    36    10    11    1
    37    11    12    1
    38    11    13    1
    39    11    14    1
    40    26    20   ar
    41     9     1   ar
    42     7     3   ar
    43    14     8    1
    44    42    36   ar
    45    16    19    1
    46    34    35    1
    47     6    15    1
@<TRIPOS>MOLECULE
*****
 43 47 0 0 0
SMALL
GASTEIGER

@<TRIPOS>ATOM
      1 C         -26.4145   49.9161   -7.1313 C.ar    1  UNL1        0.0888
      2 C         -25.1287   50.4722   -7.3760 C.ar    1  UNL1        0.0282
      3 C         -24.8308   50.9116   -8.6743 C.ar    1  UNL1        0.0997
      4 N         -23.6835   51.4541   -9.1199 N.ar    1  UNL1       -0.2137
      5 C         -23.9566   51.6914  -10.4315 C.ar    1  UNL1        0.1984
      6 N         -25.2028   51.3112  -10.8162 N.ar    1  UNL1       -0.3255
      7 C         -25.7373   50.8252   -9.6911 C.ar    1  UNL1        0.0755
      8 C         -26.9998   50.2931   -9.4731 C.ar    1  UNL1        0.0325
      9 C         -27.3289   49.8558   -8.2144 C.ar    1  UNL1        0.1401
     10 O         -28.6323   49.4051   -8.1839 O.3     1  UNL1       -0.4824
     11 C         -29.2451   49.5216   -9.4718 C.3     1  UNL1        0.1375
     12 C         -29.6707   48.1283   -9.9529 C.3     1  UNL1        0.0439
     13 C         -30.4643   50.4471   -9.3646 C.3     1  UNL1        0.0439
     14 C         -28.1457   50.1341  -10.4030 C.3     1  UNL1        0.0709
     15 H         -25.6394   51.3584  -11.7636 H       1  UNL1        0.1686
     16 N         -27.6902   48.3508   -5.5978 N.am    1  UNL1       -0.2805
     17 C         -26.7838   49.4501   -5.7773 C.2     1  UNL1        0.2525
     18 O         -26.2793   50.0148   -4.7682 O.2     1  UNL1       -0.2697
     19 H         -27.7932   47.6548   -6.3697 H       1  UNL1        0.1552
     20 C         -27.7286   46.9714   -3.5362 C.ar    1  UNL1        0.0478
     21 C         -28.3447   46.6457   -2.3154 C.ar    1  UNL1        0.0079
     22 C         -29.4602   47.3587   -1.8537 C.ar    1  UNL1        0.0713
     23 C         -29.9335   48.4454   -2.6016 C.ar    1  UNL1        0.0008
     24 C         -29.3515   48.7789   -3.8330 C.ar    1  UNL1       -0.0083
     25 C         -29.9053   49.9327   -4.6259 C.3     1  UNL1        0.0323
     26 C         -28.2538   48.0330   -4.3145 C.ar    1  UNL1        0.0492
     27 C         -30.0700   47.0331   -0.5123 C.3     1  UNL1        0.4186
     28 F         -31.4434   46.9500   -0.6451 F       1  UNL1       -0.1659
     29 F         -29.5891   45.8259   -0.0352 F       1  UNL1       -0.1659
     30 F         -29.7650   48.0149    0.4146 F       1  UNL1       -0.1659
     31 C         -25.3881   45.9748   -2.9887 C.3     1  UNL1        0.0773
     32 C         -26.5054   46.2364   -3.9514 C.2     1  UNL1        0.1747
     33 O         -26.3687   45.8688   -5.1495 O.2     1  UNL1       -0.2913
     34 N         -22.9841   52.2464  -11.3264 N.pl3   1  UNL1       -0.2816
     35 H         -23.1290   52.1094  -12.3518 H       1  UNL1        0.1551
     36 C         -21.8821   53.0553  -10.8872 C.ar    1  UNL1        0.0889
     37 C         -22.0845   54.3984  -10.5150 C.ar    1  UNL1        0.1543
     38 F         -23.3254   54.9462  -10.5513 F       1  UNL1       -0.2028
     39 C         -21.0103   55.1741  -10.0690 C.ar    1  UNL1        0.0310
     40 C         -19.7331   54.6177   -9.9776 C.ar    1  UNL1        0.0033
     41 C         -19.5263   53.2809  -10.3249 C.ar    1  UNL1        0.0128
     42 C         -20.5950   52.4949  -10.7723 C.ar    1  UNL1        0.0733
     43 CL        -20.2892   50.8211  -11.2170 Cl      1  UNL1       -0.0809
@<TRIPOS>BOND
     1    31    32    1
     2    32    33    2
     3    32    20    1
     4    20    21   ar
     5    21    22   ar
     6    22    27    1
     7    27    28    1
     8    27    29    1
     9    27    30    1
    10    22    23   ar
    11    23    24   ar
    12    24    25    1
    13    24    26   ar
    14    26    16    1
    15    16    17   am
    16    17    18    2
    17    17     1    1
    18     1     2   ar
    19     2     3   ar
    20     3     4   ar
    21     4     5   ar
    22     5    34    1
    23    34    36    1
    24    36    37   ar
    25    37    38    1
    26    37    39   ar
    27    39    40   ar
    28    40    41   ar
    29    41    42   ar
    30    42    43    1
    31     5     6   ar
    32     6     7   ar
    33     7     8   ar
    34     8     9   ar
    35     9    10    1
    36    10    11    1
    37    11    12    1
    38    11    13    1
    39    11    14    1
    40    26    20   ar
    41     9     1   ar
    42     7     3   ar
    43    14     8    1
    44    42    36   ar
    45    16    19    1
    46    34    35    1
    47     6    15    1
@<TRIPOS>MOLECULE
*****
 43 47 0 0 0
SMALL
GASTEIGER

@<TRIPOS>ATOM
      1 C         -26.0552   49.5916   -7.6916 C.ar    1  UNL1        0.0888
      2 C         -24.7097   49.9825   -7.4476 C.ar    1  UNL1        0.0282
      3 C         -24.1028   50.8719   -8.3464 C.ar    1  UNL1        0.0997
      4 N         -22.8490   51.3575   -8.3083 N.ar    1  UNL1       -0.2137
      5 C         -22.8094   52.1646   -9.4029 C.ar    1  UNL1        0.1984
      6 N         -23.9652   52.1887  -10.1164 N.ar    1  UNL1       -0.3255
      7 C         -24.7678   51.3688   -9.4298 C.ar    1  UNL1        0.0755
      8 C         -26.0829   51.0067   -9.6828 C.ar    1  UNL1        0.0325
      9 C         -26.7114   50.1409   -8.8230 C.ar    1  UNL1        0.1401
     10 O         -28.0192   49.9370   -9.2117 O.3     1  UNL1       -0.4824
     11 C         -28.3242   50.6814  -10.3952 C.3     1  UNL1        0.1375
     12 C         -28.7348   49.7083  -11.5082 C.3     1  UNL1        0.0439
     13 C         -29.4659   51.6603  -10.0911 C.3     1  UNL1        0.0439
     14 C         -27.0053   51.4411  -10.7615 C.3     1  UNL1        0.0709
     15 H         -24.1785   52.6996  -11.0017 H       1  UNL1        0.1686
     16 N         -27.8479   49.1147   -5.9631 N.am    1  UNL1       -0.2805
     17 C         -26.7459   48.6666   -6.7673 C.2     1  UNL1        0.2525
     18 O         -26.3726   47.4633   -6.7007 O.2     1  UNL1       -0.2697
     19 H         -28.3971   49.9438   -6.2822 H       1  UNL1        0.1552
     20 C         -27.7719   48.3355   -3.6090 C.ar    1  UNL1        0.0478
     21 C         -28.2761   47.4961   -2.6004 C.ar    1  UNL1        0.0079
     22 C         -29.3713   46.6537   -2.8392 C.ar    1  UNL1        0.0713
     23 C         -30.0009   46.6902   -4.0907 C.ar    1  UNL1        0.0008
     24 C         -29.5059   47.5020   -5.1214 C.ar    1  UNL1       -0.0083
     25 C         -30.1875   47.4931   -6.4638 C.3     1  UNL1        0.0323
     26 C         -28.3779   48.3189   -4.8899 C.ar    1  UNL1        0.0492
     27 C         -29.9357   45.8050   -1.7263 C.3     1  UNL1        0.4186
     28 F         -31.1165   46.3677   -1.2793 F       1  UNL1       -0.1659
     29 F         -30.1888   44.5187   -2.1708 F       1  UNL1       -0.1659
     30 F         -29.0444   45.7281   -0.6700 F       1  UNL1       -0.1659
     31 C         -25.7129   48.9914   -2.1594 C.3     1  UNL1        0.0773
     32 C         -26.6562   49.2643   -3.2905 C.2     1  UNL1        0.1747
     33 O         -26.5235   50.3350   -3.9425 O.2     1  UNL1       -0.2913
     34 N         -21.6262   52.8784   -9.7837 N.pl3   1  UNL1       -0.2816
     35 H         -21.7418   53.7543  -10.3412 H       1  UNL1        0.1551
     36 C         -20.3081   52.5007   -9.3574 C.ar    1  UNL1        0.0889
     37 C         -19.8872   52.7428   -8.0355 C.ar    1  UNL1        0.1543
     38 F         -20.7241   53.3236   -7.1391 F       1  UNL1       -0.2028
     39 C         -18.6096   52.3540   -7.6217 C.ar    1  UNL1        0.0310
     40 C         -17.7486   51.7115   -8.5133 C.ar    1  UNL1        0.0033
     41 C         -18.1645   51.4485   -9.8203 C.ar    1  UNL1        0.0128
     42 C         -19.4418   51.8332  -10.2450 C.ar    1  UNL1        0.0733
     43 CL        -19.9205   51.4999  -11.9041 Cl      1  UNL1       -0.0809
@<TRIPOS>BOND
     1    31    32    1
     2    32    33    2
     3    32    20    1
     4    20    21   ar
     5    21    22   ar
     6    22    27    1
     7    27    28    1
     8    27    29    1
     9    27    30    1
    10    22    23   ar
    11    23    24   ar
    12    24    25    1
    13    24    26   ar
    14    26    16    1
    15    16    17   am
    16    17    18    2
    17    17     1    1
    18     1     2   ar
    19     2     3   ar
    20     3     4   ar
    21     4     5   ar
    22     5    34    1
    23    34    36    1
    24    36    37   ar
    25    37    38    1
    26    37    39   ar
    27    39    40   ar
    28    40    41   ar
    29    41    42   ar
    30    42    43    1
    31     5     6   ar
    32     6     7   ar
    33     7     8   ar
    34     8     9   ar
    35     9    10    1
    36    10    11    1
    37    11    12    1
    38    11    13    1
    39    11    14    1
    40    26    20   ar
    41     9     1   ar
    42     7     3   ar
    43    14     8    1
    44    42    36   ar
    45    16    19    1
    46    34    35    1
    47     6    15    1
@<TRIPOS>MOLECULE
*****
 43 47 0 0 0
SMALL
GASTEIGER

@<TRIPOS>ATOM
      1 C         -25.9731   49.4681   -7.5759 C.ar    1  UNL1        0.0888
      2 C         -24.6268   49.8733   -7.3619 C.ar    1  UNL1        0.0282
      3 C         -24.0610   50.7965   -8.2535 C.ar    1  UNL1        0.0997
      4 N         -22.8140   51.3007   -8.2397 N.ar    1  UNL1       -0.2137
      5 C         -22.8201   52.1381   -9.3121 C.ar    1  UNL1        0.1984
      6 N         -23.9975   52.1635   -9.9894 N.ar    1  UNL1       -0.3255
      7 C         -24.7662   51.3125   -9.3020 C.ar    1  UNL1        0.0755
      8 C         -26.0829   50.9367   -9.5251 C.ar    1  UNL1        0.0325
      9 C         -26.6718   50.0378   -8.6713 C.ar    1  UNL1        0.1401
     10 O         -27.9877   49.8240   -9.0258 O.3     1  UNL1       -0.4824
     11 C         -28.3399   50.5957  -10.1783 C.3     1  UNL1        0.1375
     12 C         -28.7698   49.6472  -11.3051 C.3     1  UNL1        0.0439
     13 C         -29.4863   51.5477   -9.8126 C.3     1  UNL1        0.0439
     14 C         -27.0443   51.3860  -10.5629 C.3     1  UNL1        0.0709
     15 H         -24.2454   52.6950  -10.8533 H       1  UNL1        0.1686
     16 N         -27.8593   48.8308   -6.0059 N.am    1  UNL1       -0.2805
     17 C         -26.6212   48.5073   -6.6574 C.2     1  UNL1        0.2525
     18 O         -26.0872   47.3813   -6.4603 O.2     1  UNL1       -0.2697
     19 H         -28.4838   49.5453   -6.4423 H       1  UNL1        0.1552
     20 C         -29.4036   47.0761   -5.1749 C.ar    1  UNL1        0.0478
     21 C         -29.9404   46.3571   -4.0928 C.ar    1  UNL1        0.0079
     22 C         -29.4779   46.5630   -2.7852 C.ar    1  UNL1        0.0713
     23 C         -28.4281   47.4652   -2.5663 C.ar    1  UNL1        0.0008
     24 C         -27.8887   48.2114   -3.6240 C.ar    1  UNL1       -0.0083
     25 C         -26.7831   49.1954   -3.3484 C.3     1  UNL1        0.0323
     26 C         -28.3848   48.0311   -4.9335 C.ar    1  UNL1        0.0492
     27 C         -30.0242   45.7382   -1.6457 C.3     1  UNL1        0.4186
     28 F         -29.0632   45.6343   -0.6576 F       1  UNL1       -0.1659
     29 F         -31.1574   46.3282   -1.1127 F       1  UNL1       -0.1659
     30 F         -30.3636   44.4684   -2.0802 F       1  UNL1       -0.1659
     31 C         -30.1035   45.3649   -7.0060 C.3     1  UNL1        0.0773
     32 C         -29.8731   46.7737   -6.5522 C.2     1  UNL1        0.1747
     33 O         -30.0311   47.7091   -7.3824 O.2     1  UNL1       -0.2913
     34 N         -21.6599   52.8807   -9.7084 N.pl3   1  UNL1       -0.2816
     35 H         -21.8051   53.7628  -10.2488 H       1  UNL1        0.1551
     36 C         -20.3253   52.5220   -9.3187 C.ar    1  UNL1        0.0889
     37 C         -19.8729   52.7666   -8.0077 C.ar    1  UNL1        0.1543
     38 F         -20.6943   53.3318   -7.0873 F       1  UNL1       -0.2028
     39 C         -18.5789   52.3962   -7.6296 C.ar    1  UNL1        0.0310
     40 C         -17.7323   51.7697   -8.5460 C.ar    1  UNL1        0.0033
     41 C         -18.1790   51.5042   -9.8424 C.ar    1  UNL1        0.0128
     42 C         -19.4729   51.8705  -10.2314 C.ar    1  UNL1        0.0733
     43 CL        -19.9907   51.5349  -11.8783 Cl      1  UNL1       -0.0809
@<TRIPOS>BOND
     1    31    32    1
     2    32    33    2
     3    32    20    1
     4    20    21   ar
     5    21    22   ar
     6    22    27    1
     7    27    28    1
     8    27    29    1
     9    27    30    1
    10    22    23   ar
    11    23    24   ar
    12    24    25    1
    13    24    26   ar
    14    26    16    1
    15    16    17   am
    16    17    18    2
    17    17     1    1
    18     1     2   ar
    19     2     3   ar
    20     3     4   ar
    21     4     5   ar
    22     5    34    1
    23    34    36    1
    24    36    37   ar
    25    37    38    1
    26    37    39   ar
    27    39    40   ar
    28    40    41   ar
    29    41    42   ar
    30    42    43    1
    31     5     6   ar
    32     6     7   ar
    33     7     8   ar
    34     8     9   ar
    35     9    10    1
    36    10    11    1
    37    11    12    1
    38    11    13    1
    39    11    14    1
    40    26    20   ar
    41     9     1   ar
    42     7     3   ar
    43    14     8    1
    44    42    36   ar
    45    16    19    1
    46    34    35    1
    47     6    15    1
@<TRIPOS>MOLECULE
*****
 43 47 0 0 0
SMALL
GASTEIGER

@<TRIPOS>ATOM
      1 C         -27.5791   50.2643   -8.3549 C.ar    1  UNL1        0.0888
      2 C         -26.1731   50.4240   -8.2133 C.ar    1  UNL1        0.0282
      3 C         -25.4348   50.8338   -9.3332 C.ar    1  UNL1        0.0997
      4 N         -24.1076   51.0346   -9.4193 N.ar    1  UNL1       -0.2137
      5 C         -23.9491   51.4238  -10.7134 C.ar    1  UNL1        0.1984
      6 N         -25.1043   51.4585  -11.4276 N.ar    1  UNL1       -0.3255
      7 C         -26.0285   51.0860  -10.5361 C.ar    1  UNL1        0.0755
      8 C         -27.3993   50.9436  -10.6946 C.ar    1  UNL1        0.0325
      9 C         -28.1555   50.5477   -9.6198 C.ar    1  UNL1        0.1401
     10 O         -29.4925   50.5067   -9.9574 O.3     1  UNL1       -0.4824
     11 C         -29.6875   50.8810  -11.3247 C.3     1  UNL1        0.1375
     12 C         -30.3353   49.7115  -12.0776 C.3     1  UNL1        0.0439
     13 C         -30.5904   52.1203  -11.3810 C.3     1  UNL1        0.0439
     14 C         -28.2573   51.1928  -11.8799 C.3     1  UNL1        0.0709
     15 H         -25.2452   51.6929  -12.4353 H       1  UNL1        0.1686
     16 N         -28.2604   50.4830   -5.9224 N.am    1  UNL1       -0.2805
     17 C         -28.4055   49.8471   -7.2017 C.2     1  UNL1        0.2525
     18 O         -29.2625   48.9333   -7.3513 O.2     1  UNL1       -0.2697
     19 H         -27.8714   51.4516   -5.8852 H       1  UNL1        0.1552
     20 C         -28.1930   48.9691   -3.9582 C.ar    1  UNL1        0.0478
     21 C         -28.8403   48.4177   -2.8388 C.ar    1  UNL1        0.0079
     22 C         -30.1315   48.8253   -2.4747 C.ar    1  UNL1        0.0713
     23 C         -30.7623   49.8358   -3.2131 C.ar    1  UNL1        0.0008
     24 C         -30.1488   50.3880   -4.3467 C.ar    1  UNL1       -0.0083
     25 C         -30.8682   51.4493   -5.1356 C.3     1  UNL1        0.0323
     26 C         -28.8651   49.9460   -4.7343 C.ar    1  UNL1        0.0492
     27 C         -30.7852   48.2658   -1.2350 C.3     1  UNL1        0.4186
     28 F         -29.8058   47.8624   -0.3468 F       1  UNL1       -0.1659
     29 F         -31.5803   49.2216   -0.6261 F       1  UNL1       -0.1659
     30 F         -31.5830   47.1795   -1.5508 F       1  UNL1       -0.1659
     31 C         -26.2040   47.3142   -3.6825 C.3     1  UNL1        0.0773
     32 C         -26.7974   48.5602   -4.2647 C.2     1  UNL1        0.1747
     33 O         -26.0695   49.2972   -4.9832 O.2     1  UNL1       -0.2913
     34 N         -22.6617   51.7167  -11.2712 N.pl3   1  UNL1       -0.2816
     35 H         -22.3702   51.1955  -12.1284 H       1  UNL1        0.1551
     36 C         -21.8026   52.7507  -10.7669 C.ar    1  UNL1        0.0889
     37 C         -22.3099   54.0384  -10.5066 C.ar    1  UNL1        0.1543
     38 F         -23.6210   54.3196  -10.7142 F       1  UNL1       -0.2028
     39 C         -21.4722   55.0345   -9.9964 C.ar    1  UNL1        0.0310
     40 C         -20.1306   54.7546   -9.7297 C.ar    1  UNL1        0.0033
     41 C         -19.6232   53.4749   -9.9651 C.ar    1  UNL1        0.0128
     42 C         -20.4534   52.4698  -10.4754 C.ar    1  UNL1        0.0733
     43 CL        -19.7713   50.8767  -10.7750 Cl      1  UNL1       -0.0809
@<TRIPOS>BOND
     1    31    32    1
     2    32    33    2
     3    32    20    1
     4    20    21   ar
     5    21    22   ar
     6    22    27    1
     7    27    28    1
     8    27    29    1
     9    27    30    1
    10    22    23   ar
    11    23    24   ar
    12    24    25    1
    13    24    26   ar
    14    26    16    1
    15    16    17   am
    16    17    18    2
    17    17     1    1
    18     1     2   ar
    19     2     3   ar
    20     3     4   ar
    21     4     5   ar
    22     5    34    1
    23    34    36    1
    24    36    37   ar
    25    37    38    1
    26    37    39   ar
    27    39    40   ar
    28    40    41   ar
    29    41    42   ar
    30    42    43    1
    31     5     6   ar
    32     6     7   ar
    33     7     8   ar
    34     8     9   ar
    35     9    10    1
    36    10    11    1
    37    11    12    1
    38    11    13    1
    39    11    14    1
    40    26    20   ar
    41     9     1   ar
    42     7     3   ar
    43    14     8    1
    44    42    36   ar
    45    16    19    1
    46    34    35    1
    47     6    15    1
@<TRIPOS>MOLECULE
*****
 43 47 0 0 0
SMALL
GASTEIGER

@<TRIPOS>ATOM
      1 C         -30.0559   48.7717   -3.6554 C.ar    1  UNL1        0.0888
      2 C         -30.8774   49.2982   -2.6208 C.ar    1  UNL1        0.0282
      3 C         -30.7217   48.7874   -1.3239 C.ar    1  UNL1        0.0997
      4 N         -31.3962   49.1341   -0.2130 N.ar    1  UNL1       -0.2137
      5 C         -30.8351   48.3372    0.7364 C.ar    1  UNL1        0.1984
      6 N         -29.8643   47.5121    0.2649 N.ar    1  UNL1       -0.3255
      7 C         -29.8075   47.8156   -1.0360 C.ar    1  UNL1        0.0755
      8 C         -28.9909   47.2931   -2.0283 C.ar    1  UNL1        0.0325
      9 C         -29.1120   47.7709   -3.3093 C.ar    1  UNL1        0.1401
     10 O         -28.1914   47.1667   -4.1403 O.3     1  UNL1       -0.4824
     11 C         -27.3946   46.2207   -3.4206 C.3     1  UNL1        0.1375
     12 C         -27.5930   44.8282   -4.0335 C.3     1  UNL1        0.0439
     13 C         -25.9208   46.6389   -3.5066 C.3     1  UNL1        0.0439
     14 C         -27.9160   46.2728   -1.9454 C.3     1  UNL1        0.0709
     15 H         -29.3083   46.7931    0.7790 H       1  UNL1        0.1686
     16 N         -29.2604   48.8553   -6.0615 N.am    1  UNL1       -0.2805
     17 C         -30.1709   49.2850   -5.0375 C.2     1  UNL1        0.2525
     18 O         -31.0941   50.0962   -5.3229 O.2     1  UNL1       -0.2697
     19 H         -28.7767   47.9365   -5.9491 H       1  UNL1        0.1552
     20 C         -28.4266   50.6911   -7.5070 C.ar    1  UNL1        0.0478
     21 C         -28.4329   51.3412   -8.7533 C.ar    1  UNL1        0.0079
     22 C         -29.1730   50.8348   -9.8311 C.ar    1  UNL1        0.0713
     23 C         -29.8760   49.6329   -9.6720 C.ar    1  UNL1        0.0008
     24 C         -29.9046   48.9748   -8.4340 C.ar    1  UNL1       -0.0083
     25 C         -30.6959   47.7023   -8.2894 C.3     1  UNL1        0.0323
     26 C         -29.1910   49.5095   -7.3394 C.ar    1  UNL1        0.0492
     27 C         -29.1185   51.5135  -11.1778 C.3     1  UNL1        0.4186
     28 F         -29.9758   50.8667  -12.0482 F       1  UNL1       -0.1659
     29 F         -29.4982   52.8406  -11.0737 F       1  UNL1       -0.1659
     30 F         -27.8350   51.4719  -11.6946 F       1  UNL1       -0.1659
     31 C         -26.1634   50.7471   -6.2242 C.3     1  UNL1        0.0773
     32 C         -27.5708   51.2231   -6.4145 C.2     1  UNL1        0.1747
     33 O         -28.0450   52.0511   -5.5907 O.2     1  UNL1       -0.2913
     34 N         -31.2786   48.3439    2.0994 N.pl3   1  UNL1       -0.2816
     35 H         -31.7087   47.4703    2.4778 H       1  UNL1        0.1551
     36 C         -31.0743   49.4532    2.9877 C.ar    1  UNL1        0.0889
     37 C         -31.2265   50.7755    2.5275 C.ar    1  UNL1        0.1543
     38 F         -31.5823   51.0230    1.2416 F       1  UNL1       -0.2028
     39 C         -31.0460   51.8502    3.4031 C.ar    1  UNL1        0.0310
     40 C         -30.7266   51.6182    4.7423 C.ar    1  UNL1        0.0033
     41 C         -30.5938   50.3101    5.2130 C.ar    1  UNL1        0.0128
     42 C         -30.7729   49.2265    4.3448 C.ar    1  UNL1        0.0733
     43 CL        -30.5790   47.5952    4.9727 Cl      1  UNL1       -0.0809
@<TRIPOS>BOND
     1    31    32    1
     2    32    33    2
     3    32    20    1
     4    20    21   ar
     5    21    22   ar
     6    22    27    1
     7    27    28    1
     8    27    29    1
     9    27    30    1
    10    22    23   ar
    11    23    24   ar
    12    24    25    1
    13    24    26   ar
    14    26    16    1
    15    16    17   am
    16    17    18    2
    17    17     1    1
    18     1     2   ar
    19     2     3   ar
    20     3     4   ar
    21     4     5   ar
    22     5    34    1
    23    34    36    1
    24    36    37   ar
    25    37    38    1
    26    37    39   ar
    27    39    40   ar
    28    40    41   ar
    29    41    42   ar
    30    42    43    1
    31     5     6   ar
    32     6     7   ar
    33     7     8   ar
    34     8     9   ar
    35     9    10    1
    36    10    11    1
    37    11    12    1
    38    11    13    1
    39    11    14    1
    40    26    20   ar
    41     9     1   ar
    42     7     3   ar
    43    14     8    1
    44    42    36   ar
    45    16    19    1
    46    34    35    1
    47     6    15    1
