@<TRIPOS>MOLECULE
*****
 36 41 0 0 0
SMALL
GASTEIGER

@<TRIPOS>ATOM
      1 C          46.9947   11.4591  -27.5037 C.ar    1  UNL1        0.1100
      2 N          47.1669   10.2079  -27.9990 N.ar    1  UNL1       -0.1677
      3 N          46.8626   10.2282  -29.2899 N.ar    1  UNL1       -0.2319
      4 C          46.8438    9.0507  -30.1474 C.3     1  UNL1        0.1554
      5 C          46.4800   11.4712  -29.6166 C.ar    1  UNL1        0.1654
      6 N          46.0307   11.8900  -30.8236 N.ar    1  UNL1       -0.2050
      7 C          45.6679   13.1978  -30.9572 C.ar    1  UNL1        0.2014
      8 N          45.7775   14.0593  -29.8992 N.ar    1  UNL1       -0.2089
      9 C          46.2359   13.6513  -28.6773 C.ar    1  UNL1        0.1379
     10 C          46.5675   12.2966  -28.5336 C.ar    1  UNL1        0.0865
     11 C          48.3161   11.8444  -25.3161 C.ar    1  UNL1        0.0814
     12 C          47.1538   11.7604  -26.0734 C.ar    1  UNL1        0.0617
     13 C          46.1403   12.1008  -25.1993 C.ar    1  UNL1        0.1256
     14 S          44.3935   12.1714  -25.5779 S.3     1  UNL1       -0.1210
     15 N          46.6499   12.3612  -23.9831 N.ar    1  UNL1       -0.1631
     16 N          47.9640   12.2155  -24.0591 N.ar    1  UNL1       -0.2483
     17 C          48.8452   12.4794  -22.9256 C.3     1  UNL1        0.1537
     18 H          44.4790   13.5234  -25.9589 H       1  UNL1        0.1086
     19 C          53.7517   11.2950  -27.2690 C.3     1  UNL1        0.0310
     20 C          52.3580   11.4224  -26.7299 C.ar    1  UNL1       -0.0218
     21 C          51.9356   12.6214  -26.1388 C.ar    1  UNL1       -0.0042
     22 C          50.6248   12.7547  -25.6731 C.ar    1  UNL1        0.0012
     23 C          49.7079   11.6986  -25.8103 C.ar    1  UNL1        0.0174
     24 C          50.1314   10.5051  -26.4179 C.ar    1  UNL1        0.0012
     25 C          51.4445   10.3694  -26.8770 C.ar    1  UNL1       -0.0042
     26 N          46.3941   14.6121  -27.6252 N.pl3   1  UNL1       -0.2917
     27 C          45.4002   15.6484  -27.3775 C.3     1  UNL1        0.0937
     28 C          46.0428   16.6332  -26.3999 C.3     1  UNL1        0.0391
     29 C          47.3528   15.9571  -25.9557 C.3     1  UNL1        0.0790
     30 C          47.6861   14.9616  -27.0599 C.3     1  UNL1        0.1081
     31 N          48.4879   16.8588  -25.6205 N.3     1  UNL1       -0.2723
     32 C          48.7594   17.8179  -26.7107 C.3     1  UNL1        0.0721
     33 C          49.7125   18.9157  -26.2199 C.3     1  UNL1        0.0174
     34 C          51.0065   18.3118  -25.6627 C.3     1  UNL1        0.0029
     35 C          50.7013   17.2333  -24.6173 C.3     1  UNL1        0.0174
     36 C          49.7420   16.1925  -25.1999 C.3     1  UNL1        0.0721
@<TRIPOS>BOND
     1    19    20    1
     2    20    21   ar
     3    21    22   ar
     4    22    23   ar
     5    23    11    1
     6    11    12   ar
     7    12     1    1
     8     1     2   ar
     9     2     3   ar
    10     3     4    1
    11     3     5   ar
    12     5     6   ar
    13     6     7   ar
    14     7     8   ar
    15     8     9   ar
    16     9    26    1
    17    26    27    1
    18    27    28    1
    19    28    29    1
    20    29    31    1
    21    31    32    1
    22    32    33    1
    23    33    34    1
    24    34    35    1
    25    35    36    1
    26    29    30    1
    27     9    10   ar
    28    12    13   ar
    29    13    14    1
    30    13    15   ar
    31    15    16   ar
    32    16    17    1
    33    23    24   ar
    34    24    25   ar
    35    25    20   ar
    36    16    11   ar
    37    10     1   ar
    38    10     5   ar
    39    30    26    1
    40    36    31    1
    41    14    18    1
@<TRIPOS>MOLECULE
*****
 36 41 0 0 0
SMALL
GASTEIGER

@<TRIPOS>ATOM
      1 C          48.4875   12.0698  -25.3116 C.ar    1  UNL1        0.1100
      2 N          48.5057   11.5992  -26.5838 N.ar    1  UNL1       -0.1677
      3 N          47.2535   11.5220  -27.0146 N.ar    1  UNL1       -0.2319
      4 C          46.8627   10.9788  -28.3085 C.3     1  UNL1        0.1554
      5 C          46.4390   11.9182  -26.0258 C.ar    1  UNL1        0.1654
      6 N          45.0849   11.9255  -26.0450 N.ar    1  UNL1       -0.2050
      7 C          44.4273   12.3486  -24.9277 C.ar    1  UNL1        0.2014
      8 N          45.1269   12.7707  -23.8296 N.ar    1  UNL1       -0.2089
      9 C          46.4939   12.7750  -23.7992 C.ar    1  UNL1        0.1379
     10 C          47.1646   12.2993  -24.9349 C.ar    1  UNL1        0.0865
     11 C          50.5792   13.2591  -24.3681 C.ar    1  UNL1        0.0814
     12 C          49.7111   12.1824  -24.5041 C.ar    1  UNL1        0.0617
     13 C          50.2032   11.2239  -23.6403 C.ar    1  UNL1        0.1256
     14 S          49.5195    9.5939  -23.3655 S.3     1  UNL1       -0.1210
     15 N          51.3089   11.6808  -23.0278 N.ar    1  UNL1       -0.1631
     16 N          51.5277   12.9128  -23.4613 N.ar    1  UNL1       -0.2483
     17 C          52.6231   13.7349  -22.9560 C.3     1  UNL1        0.1537
     18 H          48.6909   10.0608  -22.3283 H       1  UNL1        0.1086
     19 C          49.9734   18.5093  -26.7619 C.3     1  UNL1        0.0310
     20 C          50.1671   17.1515  -26.1551 C.ar    1  UNL1       -0.0218
     21 C          50.5457   17.0252  -24.8112 C.ar    1  UNL1       -0.0042
     22 C          50.6867   15.7605  -24.2340 C.ar    1  UNL1        0.0012
     23 C          50.4302   14.6007  -24.9850 C.ar    1  UNL1        0.0174
     24 C          50.0353   14.7329  -26.3265 C.ar    1  UNL1        0.0012
     25 C          49.9015   15.9978  -26.9057 C.ar    1  UNL1       -0.0042
     26 N          47.1734   13.2920  -22.6477 N.pl3   1  UNL1       -0.2917
     27 C          47.8279   14.5937  -22.6639 C.3     1  UNL1        0.0937
     28 C          48.6717   14.6648  -21.3906 C.3     1  UNL1        0.0391
     29 C          48.2641   13.4260  -20.5722 C.3     1  UNL1        0.0790
     30 C          47.6903   12.4447  -21.5867 C.3     1  UNL1        0.1081
     31 N          49.3141   12.8239  -19.7069 N.3     1  UNL1       -0.2723
     32 C          48.8830   12.7597  -18.2953 C.3     1  UNL1        0.0721
     33 C          49.8410   11.8690  -17.4931 C.3     1  UNL1        0.0174
     34 C          51.2869   12.3614  -17.6210 C.3     1  UNL1        0.0029
     35 C          51.6775   12.5356  -19.0928 C.3     1  UNL1        0.0174
     36 C          50.6610   13.4320  -19.8042 C.3     1  UNL1        0.0721
@<TRIPOS>BOND
     1    19    20    1
     2    20    21   ar
     3    21    22   ar
     4    22    23   ar
     5    23    11    1
     6    11    12   ar
     7    12     1    1
     8     1     2   ar
     9     2     3   ar
    10     3     4    1
    11     3     5   ar
    12     5     6   ar
    13     6     7   ar
    14     7     8   ar
    15     8     9   ar
    16     9    26    1
    17    26    27    1
    18    27    28    1
    19    28    29    1
    20    29    31    1
    21    31    32    1
    22    32    33    1
    23    33    34    1
    24    34    35    1
    25    35    36    1
    26    29    30    1
    27     9    10   ar
    28    12    13   ar
    29    13    14    1
    30    13    15   ar
    31    15    16   ar
    32    16    17    1
    33    23    24   ar
    34    24    25   ar
    35    25    20   ar
    36    16    11   ar
    37    10     1   ar
    38    10     5   ar
    39    30    26    1
    40    36    31    1
    41    14    18    1
@<TRIPOS>MOLECULE
*****
 36 41 0 0 0
SMALL
GASTEIGER

@<TRIPOS>ATOM
      1 C          49.2873   10.7473  -26.1819 C.ar    1  UNL1        0.1100
      2 N          49.0609    9.5157  -26.7037 N.ar    1  UNL1       -0.1677
      3 N          50.1451    9.1430  -27.3709 N.ar    1  UNL1       -0.2319
      4 C          50.2513    7.9120  -28.1424 C.3     1  UNL1        0.1554
      5 C          51.0495   10.1302  -27.2968 C.ar    1  UNL1        0.1654
      6 N          52.2623   10.1652  -27.8986 N.ar    1  UNL1       -0.2050
      7 C          53.0385   11.2720  -27.7191 C.ar    1  UNL1        0.2014
      8 N          52.6022   12.3050  -26.9341 N.ar    1  UNL1       -0.2089
      9 C          51.3832   12.2796  -26.3152 C.ar    1  UNL1        0.1379
     10 C          50.5716   11.1582  -26.5373 C.ar    1  UNL1        0.0865
     11 C          47.1664   12.2093  -25.9705 C.ar    1  UNL1        0.0814
     12 C          48.2441   11.4935  -25.4629 C.ar    1  UNL1        0.0617
     13 C          48.0963   11.5626  -24.0917 C.ar    1  UNL1        0.1256
     14 S          49.1830   10.8355  -22.8708 S.3     1  UNL1       -0.1210
     15 N          47.0069   12.2864  -23.7823 N.ar    1  UNL1       -0.1631
     16 N          46.4421   12.6669  -24.9180 N.ar    1  UNL1       -0.2483
     17 C          45.1961   13.4265  -24.9538 C.3     1  UNL1        0.1537
     18 H          48.4500    9.6343  -22.8597 H       1  UNL1        0.1086
     19 C          45.6931   12.7082  -31.5600 C.3     1  UNL1        0.0310
     20 C          46.0364   12.5741  -30.1062 C.ar    1  UNL1       -0.0218
     21 C          46.3881   11.3252  -29.5752 C.ar    1  UNL1       -0.0042
     22 C          46.7475   11.2066  -28.2301 C.ar    1  UNL1        0.0012
     23 C          46.7824   12.3387  -27.3983 C.ar    1  UNL1        0.0174
     24 C          46.4449   13.5904  -27.9391 C.ar    1  UNL1        0.0012
     25 C          46.0783   13.7076  -29.2827 C.ar    1  UNL1       -0.0042
     26 N          51.0075   13.3592  -25.4502 N.pl3   1  UNL1       -0.2917
     27 C          51.1773   13.2786  -24.0053 C.3     1  UNL1        0.0937
     28 C          50.4105   14.4636  -23.4170 C.3     1  UNL1        0.0391
     29 C          50.0046   15.3186  -24.6314 C.3     1  UNL1        0.0790
     30 C          50.0268   14.3654  -25.8198 C.3     1  UNL1        0.1081
     31 N          48.7304   16.0780  -24.5158 N.3     1  UNL1       -0.2723
     32 C          48.8579   17.4403  -25.0730 C.3     1  UNL1        0.0721
     33 C          47.4710   18.0803  -25.2197 C.3     1  UNL1        0.0174
     34 C          46.7229   18.0843  -23.8819 C.3     1  UNL1        0.0029
     35 C          46.7040   16.6830  -23.2612 C.3     1  UNL1        0.0174
     36 C          48.1287   16.1317  -23.1636 C.3     1  UNL1        0.0721
@<TRIPOS>BOND
     1    19    20    1
     2    20    21   ar
     3    21    22   ar
     4    22    23   ar
     5    23    11    1
     6    11    12   ar
     7    12     1    1
     8     1     2   ar
     9     2     3   ar
    10     3     4    1
    11     3     5   ar
    12     5     6   ar
    13     6     7   ar
    14     7     8   ar
    15     8     9   ar
    16     9    26    1
    17    26    27    1
    18    27    28    1
    19    28    29    1
    20    29    31    1
    21    31    32    1
    22    32    33    1
    23    33    34    1
    24    34    35    1
    25    35    36    1
    26    29    30    1
    27     9    10   ar
    28    12    13   ar
    29    13    14    1
    30    13    15   ar
    31    15    16   ar
    32    16    17    1
    33    23    24   ar
    34    24    25   ar
    35    25    20   ar
    36    16    11   ar
    37    10     1   ar
    38    10     5   ar
    39    30    26    1
    40    36    31    1
    41    14    18    1
@<TRIPOS>MOLECULE
*****
 36 41 0 0 0
SMALL
GASTEIGER

@<TRIPOS>ATOM
      1 C          48.0066   12.6165  -25.9144 C.ar    1  UNL1        0.1100
      2 N          47.1551   12.3045  -26.9235 N.ar    1  UNL1       -0.1677
      3 N          46.8997   13.4122  -27.6070 N.ar    1  UNL1       -0.2319
      4 C          45.9579   13.4939  -28.7154 C.3     1  UNL1        0.1554
      5 C          47.5616   14.4275  -27.0333 C.ar    1  UNL1        0.1654
      6 N          47.5140   15.7322  -27.3929 N.ar    1  UNL1       -0.2050
      7 C          48.2481   16.6264  -26.6709 C.ar    1  UNL1        0.2014
      8 N          49.0237   16.2030  -25.6256 N.ar    1  UNL1       -0.2089
      9 C          49.0863   14.8880  -25.2562 C.ar    1  UNL1        0.1379
     10 C          48.2970   13.9791  -25.9750 C.ar    1  UNL1        0.0865
     11 C          49.4182   10.6689  -24.9689 C.ar    1  UNL1        0.0814
     12 C          48.4150   11.6285  -24.9050 C.ar    1  UNL1        0.0617
     13 C          47.9031   11.5163  -23.6273 C.ar    1  UNL1        0.1256
     14 S          46.5701   12.4847  -22.9310 S.3     1  UNL1       -0.1210
     15 N          48.5428   10.5409  -22.9596 N.ar    1  UNL1       -0.1631
     16 N          49.4633   10.0380  -23.7681 N.ar    1  UNL1       -0.2483
     17 C          50.3872    8.9909  -23.3431 C.3     1  UNL1        0.1537
     18 H          47.4619   13.4641  -22.4559 H       1  UNL1        0.1086
     19 C          53.1484    9.8101  -29.3289 C.3     1  UNL1        0.0310
     20 C          52.1663   10.0594  -28.2231 C.ar    1  UNL1       -0.0218
     21 C          50.9962    9.2927  -28.1307 C.ar    1  UNL1       -0.0042
     22 C          50.1007    9.4968  -27.0776 C.ar    1  UNL1        0.0012
     23 C          50.3708   10.4561  -26.0868 C.ar    1  UNL1        0.0174
     24 C          51.5524   11.2104  -26.1750 C.ar    1  UNL1        0.0012
     25 C          52.4444   11.0113  -27.2324 C.ar    1  UNL1       -0.0042
     26 N          49.9681   14.4928  -24.1973 N.pl3   1  UNL1       -0.2917
     27 C          51.2062   13.7708  -24.4598 C.3     1  UNL1        0.0937
     28 C          51.7106   13.2780  -23.1029 C.3     1  UNL1        0.0391
     29 C          50.8011   13.9629  -22.0664 C.3     1  UNL1        0.0790
     30 C          49.5285   14.3222  -22.8231 C.3     1  UNL1        0.1081
     31 N          50.5404   13.2118  -20.8088 N.3     1  UNL1       -0.2723
     32 C          49.1783   13.4669  -20.2967 C.3     1  UNL1        0.0721
     33 C          48.8350   12.4594  -19.1914 C.3     1  UNL1        0.0174
     34 C          49.8778   12.4982  -18.0686 C.3     1  UNL1        0.0029
     35 C          51.2952   12.3507  -18.6328 C.3     1  UNL1        0.0174
     36 C          51.5365   13.3927  -19.7278 C.3     1  UNL1        0.0721
@<TRIPOS>BOND
     1    19    20    1
     2    20    21   ar
     3    21    22   ar
     4    22    23   ar
     5    23    11    1
     6    11    12   ar
     7    12     1    1
     8     1     2   ar
     9     2     3   ar
    10     3     4    1
    11     3     5   ar
    12     5     6   ar
    13     6     7   ar
    14     7     8   ar
    15     8     9   ar
    16     9    26    1
    17    26    27    1
    18    27    28    1
    19    28    29    1
    20    29    31    1
    21    31    32    1
    22    32    33    1
    23    33    34    1
    24    34    35    1
    25    35    36    1
    26    29    30    1
    27     9    10   ar
    28    12    13   ar
    29    13    14    1
    30    13    15   ar
    31    15    16   ar
    32    16    17    1
    33    23    24   ar
    34    24    25   ar
    35    25    20   ar
    36    16    11   ar
    37    10     1   ar
    38    10     5   ar
    39    30    26    1
    40    36    31    1
    41    14    18    1
@<TRIPOS>MOLECULE
*****
 36 41 0 0 0
SMALL
GASTEIGER

@<TRIPOS>ATOM
      1 C          48.0105   16.4406  -24.7783 C.ar    1  UNL1        0.1100
      2 N          47.2169   17.5237  -24.9717 N.ar    1  UNL1       -0.1677
      3 N          47.9560   18.4891  -25.5020 N.ar    1  UNL1       -0.2319
      4 C          47.4739   19.8365  -25.7743 C.3     1  UNL1        0.1554
      5 C          49.2132   18.0402  -25.6292 C.ar    1  UNL1        0.1654
      6 N          50.2837   18.7423  -26.0710 N.ar    1  UNL1       -0.2050
      7 C          51.4935   18.1142  -26.1115 C.ar    1  UNL1        0.2014
      8 N          51.6076   16.8040  -25.7322 N.ar    1  UNL1       -0.2089
      9 C          50.5339   16.0816  -25.2907 C.ar    1  UNL1        0.1379
     10 C          49.3009   16.7443  -25.2111 C.ar    1  UNL1        0.0865
     11 C          46.8843   14.1173  -24.6593 C.ar    1  UNL1        0.0814
     12 C          47.5215   15.2245  -24.1120 C.ar    1  UNL1        0.0617
     13 C          47.6771   14.9144  -22.7753 C.ar    1  UNL1        0.1256
     14 S          48.4303   15.9516  -21.5276 S.3     1  UNL1       -0.1210
     15 N          47.1551   13.7024  -22.5205 N.ar    1  UNL1       -0.1631
     16 N          46.6864   13.2194  -23.6611 N.ar    1  UNL1       -0.2483
     17 C          46.0983   11.8871  -23.7613 C.3     1  UNL1        0.1537
     18 H          49.7048   15.4071  -21.7719 H       1  UNL1        0.1086
     19 C          45.7234   13.2013  -30.2695 C.3     1  UNL1        0.0310
     20 C          46.0601   13.4474  -28.8289 C.ar    1  UNL1       -0.0218
     21 C          45.8339   14.7064  -28.2552 C.ar    1  UNL1       -0.0042
     22 C          46.1092   14.9250  -26.9028 C.ar    1  UNL1        0.0012
     23 C          46.5948   13.8820  -26.0957 C.ar    1  UNL1        0.0174
     24 C          46.8044   12.6180  -26.6715 C.ar    1  UNL1        0.0012
     25 C          46.5360   12.4016  -28.0259 C.ar    1  UNL1       -0.0042
     26 N          50.6990   14.6938  -24.9717 N.pl3   1  UNL1       -0.2917
     27 C          50.2139   13.6411  -25.8546 C.3     1  UNL1        0.0937
     28 C          50.3041   12.3388  -25.0582 C.3     1  UNL1        0.0391
     29 C          51.0744   12.7070  -23.7771 C.3     1  UNL1        0.0790
     30 C          50.8896   14.2106  -23.6148 C.3     1  UNL1        0.1081
     31 N          50.7305   11.9407  -22.5490 N.3     1  UNL1       -0.2723
     32 C          49.6984   10.9185  -22.8183 C.3     1  UNL1        0.0721
     33 C          49.5898    9.9550  -21.6291 C.3     1  UNL1        0.0174
     34 C          49.3065   10.7159  -20.3289 C.3     1  UNL1        0.0029
     35 C          50.3180   11.8496  -20.1267 C.3     1  UNL1        0.0174
     36 C          50.3555   12.7481  -21.3654 C.3     1  UNL1        0.0721
@<TRIPOS>BOND
     1    19    20    1
     2    20    21   ar
     3    21    22   ar
     4    22    23   ar
     5    23    11    1
     6    11    12   ar
     7    12     1    1
     8     1     2   ar
     9     2     3   ar
    10     3     4    1
    11     3     5   ar
    12     5     6   ar
    13     6     7   ar
    14     7     8   ar
    15     8     9   ar
    16     9    26    1
    17    26    27    1
    18    27    28    1
    19    28    29    1
    20    29    31    1
    21    31    32    1
    22    32    33    1
    23    33    34    1
    24    34    35    1
    25    35    36    1
    26    29    30    1
    27     9    10   ar
    28    12    13   ar
    29    13    14    1
    30    13    15   ar
    31    15    16   ar
    32    16    17    1
    33    23    24   ar
    34    24    25   ar
    35    25    20   ar
    36    16    11   ar
    37    10     1   ar
    38    10     5   ar
    39    30    26    1
    40    36    31    1
    41    14    18    1
@<TRIPOS>MOLECULE
*****
 36 41 0 0 0
SMALL
GASTEIGER

@<TRIPOS>ATOM
      1 C          49.3819   10.5414  -26.5238 C.ar    1  UNL1        0.1100
      2 N          49.2336    9.4994  -27.3797 N.ar    1  UNL1       -0.1677
      3 N          50.3846    9.3172  -28.0134 N.ar    1  UNL1       -0.2319
      4 C          50.5913    8.3420  -29.0756 C.3     1  UNL1        0.1554
      5 C          51.2558   10.2426  -27.5860 C.ar    1  UNL1        0.1654
      6 N          52.5195   10.4342  -28.0338 N.ar    1  UNL1       -0.2050
      7 C          53.2504   11.4466  -27.4856 C.ar    1  UNL1        0.2014
      8 N          52.7183   12.2291  -26.4966 N.ar    1  UNL1       -0.2089
      9 C          51.4466   12.0422  -26.0304 C.ar    1  UNL1        0.1379
     10 C          50.6849   11.0273  -26.6267 C.ar    1  UNL1        0.0865
     11 C          47.1215   11.7426  -26.1653 C.ar    1  UNL1        0.0814
     12 C          48.2585   11.0689  -25.7352 C.ar    1  UNL1        0.0617
     13 C          48.0847   10.9215  -24.3732 C.ar    1  UNL1        0.1256
     14 S          49.2213   10.1332  -23.2391 S.3     1  UNL1       -0.1210
     15 N          46.9235   11.4824  -23.9943 N.ar    1  UNL1       -0.1631
     16 N          46.3397   11.9682  -25.0792 N.ar    1  UNL1       -0.2483
     17 C          45.0241   12.5995  -25.0411 C.3     1  UNL1        0.1537
     18 H          48.6132    8.8775  -23.4227 H       1  UNL1        0.1086
     19 C          45.6857   12.9051  -31.6651 C.3     1  UNL1        0.0310
     20 C          46.0191   12.5989  -30.2353 C.ar    1  UNL1       -0.0218
     21 C          46.3532   11.2926  -29.8515 C.ar    1  UNL1       -0.0042
     22 C          46.7037   11.0142  -28.5277 C.ar    1  UNL1        0.0012
     23 C          46.7472   12.0416  -27.5699 C.ar    1  UNL1        0.0174
     24 C          46.4274   13.3517  -27.9631 C.ar    1  UNL1        0.0012
     25 C          46.0697   13.6286  -29.2855 C.ar    1  UNL1       -0.0042
     26 N          50.9661   12.8474  -24.9460 N.pl3   1  UNL1       -0.2917
     27 C          50.7840   14.2867  -25.0820 C.3     1  UNL1        0.0937
     28 C          50.5513   14.8243  -23.6694 C.3     1  UNL1        0.0391
     29 C          50.3921   13.5725  -22.7873 C.3     1  UNL1        0.0790
     30 C          51.0817   12.4504  -23.5533 C.3     1  UNL1        0.1081
     31 N          50.8545   13.6872  -21.3778 N.3     1  UNL1       -0.2723
     32 C          52.3129   13.9097  -21.3014 C.3     1  UNL1        0.0721
     33 C          52.7074   14.3259  -19.8781 C.3     1  UNL1        0.0174
     34 C          52.2392   13.2881  -18.8519 C.3     1  UNL1        0.0029
     35 C          50.7473   12.9821  -19.0246 C.3     1  UNL1        0.0174
     36 C          50.4564   12.5837  -20.4736 C.3     1  UNL1        0.0721
@<TRIPOS>BOND
     1    19    20    1
     2    20    21   ar
     3    21    22   ar
     4    22    23   ar
     5    23    11    1
     6    11    12   ar
     7    12     1    1
     8     1     2   ar
     9     2     3   ar
    10     3     4    1
    11     3     5   ar
    12     5     6   ar
    13     6     7   ar
    14     7     8   ar
    15     8     9   ar
    16     9    26    1
    17    26    27    1
    18    27    28    1
    19    28    29    1
    20    29    31    1
    21    31    32    1
    22    32    33    1
    23    33    34    1
    24    34    35    1
    25    35    36    1
    26    29    30    1
    27     9    10   ar
    28    12    13   ar
    29    13    14    1
    30    13    15   ar
    31    15    16   ar
    32    16    17    1
    33    23    24   ar
    34    24    25   ar
    35    25    20   ar
    36    16    11   ar
    37    10     1   ar
    38    10     5   ar
    39    30    26    1
    40    36    31    1
    41    14    18    1
@<TRIPOS>MOLECULE
*****
 36 41 0 0 0
SMALL
GASTEIGER

@<TRIPOS>ATOM
      1 C          46.7512   12.7143  -26.7515 C.ar    1  UNL1        0.1100
      2 N          46.5889   11.9832  -27.8826 N.ar    1  UNL1       -0.1677
      3 N          46.2779   12.8121  -28.8704 N.ar    1  UNL1       -0.2319
      4 C          45.9437   12.3880  -30.2233 C.3     1  UNL1        0.1554
      5 C          46.2206   14.0578  -28.3772 C.ar    1  UNL1        0.1654
      6 N          45.8729   15.1806  -29.0499 N.ar    1  UNL1       -0.2050
      7 C          45.8546   16.3608  -28.3668 C.ar    1  UNL1        0.2014
      8 N          46.1991   16.4010  -27.0427 N.ar    1  UNL1       -0.2089
      9 C          46.5587   15.2762  -26.3534 C.ar    1  UNL1        0.1379
     10 C          46.5350   14.0594  -27.0494 C.ar    1  UNL1        0.0865
     11 C          48.1481   11.4376  -24.9912 C.ar    1  UNL1        0.0814
     12 C          47.0066   12.0863  -25.4468 C.ar    1  UNL1        0.0617
     13 C          46.1493   12.0894  -24.3642 C.ar    1  UNL1        0.1256
     14 S          44.4997   12.7798  -24.3208 S.3     1  UNL1       -0.1210
     15 N          46.7249   11.4694  -23.3198 N.ar    1  UNL1       -0.1631
     16 N          47.9348   11.0860  -23.6978 N.ar    1  UNL1       -0.2483
     17 C          48.8653   10.4277  -22.7858 C.3     1  UNL1        0.1537
     18 H          44.9812   14.0352  -23.9056 H       1  UNL1        0.1086
     19 C          53.1468   10.8347  -27.8740 C.3     1  UNL1        0.0310
     20 C          51.8686   10.9673  -27.1008 C.ar    1  UNL1       -0.0218
     21 C          51.6918   12.0305  -26.2043 C.ar    1  UNL1       -0.0042
     22 C          50.4858   12.1779  -25.5139 C.ar    1  UNL1        0.0012
     23 C          49.4281   11.2769  -25.7248 C.ar    1  UNL1        0.0174
     24 C          49.6045   10.2228  -26.6363 C.ar    1  UNL1        0.0012
     25 C          50.8133   10.0713  -27.3211 C.ar    1  UNL1       -0.0042
     26 N          46.9755   15.3884  -24.9864 N.pl3   1  UNL1       -0.2917
     27 C          46.6030   16.5311  -24.1626 C.3     1  UNL1        0.0937
     28 C          47.4560   16.4427  -22.8965 C.3     1  UNL1        0.0391
     29 C          48.1471   15.0692  -22.9762 C.3     1  UNL1        0.0790
     30 C          48.1391   14.7001  -24.4544 C.3     1  UNL1        0.1081
     31 N          49.4953   14.9644  -22.3556 N.3     1  UNL1       -0.2723
     32 C          50.5493   14.7825  -23.3746 C.3     1  UNL1        0.0721
     33 C          51.9326   14.9849  -22.7422 C.3     1  UNL1        0.0174
     34 C          52.1336   14.0464  -21.5470 C.3     1  UNL1        0.0029
     35 C          50.9688   14.1633  -20.5575 C.3     1  UNL1        0.0174
     36 C          49.6383   13.9520  -21.2841 C.3     1  UNL1        0.0721
@<TRIPOS>BOND
     1    19    20    1
     2    20    21   ar
     3    21    22   ar
     4    22    23   ar
     5    23    11    1
     6    11    12   ar
     7    12     1    1
     8     1     2   ar
     9     2     3   ar
    10     3     4    1
    11     3     5   ar
    12     5     6   ar
    13     6     7   ar
    14     7     8   ar
    15     8     9   ar
    16     9    26    1
    17    26    27    1
    18    27    28    1
    19    28    29    1
    20    29    31    1
    21    31    32    1
    22    32    33    1
    23    33    34    1
    24    34    35    1
    25    35    36    1
    26    29    30    1
    27     9    10   ar
    28    12    13   ar
    29    13    14    1
    30    13    15   ar
    31    15    16   ar
    32    16    17    1
    33    23    24   ar
    34    24    25   ar
    35    25    20   ar
    36    16    11   ar
    37    10     1   ar
    38    10     5   ar
    39    30    26    1
    40    36    31    1
    41    14    18    1
@<TRIPOS>MOLECULE
*****
 36 41 0 0 0
SMALL
GASTEIGER

@<TRIPOS>ATOM
      1 C          47.8517   16.7761  -25.8327 C.ar    1  UNL1        0.1100
      2 N          47.3936   17.7479  -26.6610 N.ar    1  UNL1       -0.1677
      3 N          48.4337   18.4502  -27.0903 N.ar    1  UNL1       -0.2319
      4 C          48.3331   19.6341  -27.9331 C.3     1  UNL1        0.1554
      5 C          49.5444   17.9500  -26.5297 C.ar    1  UNL1        0.1654
      6 N          50.8050   18.4265  -26.6636 N.ar    1  UNL1       -0.2050
      7 C          51.8085   17.7894  -25.9952 C.ar    1  UNL1        0.2014
      8 N          51.5406   16.6875  -25.2286 N.ar    1  UNL1       -0.2089
      9 C          50.2738   16.1919  -25.0903 C.ar    1  UNL1        0.1379
     10 C          49.2399   16.8757  -25.7455 C.ar    1  UNL1        0.0865
     11 C          46.1493   14.8462  -25.5928 C.ar    1  UNL1        0.0814
     12 C          46.9421   15.8783  -25.1055 C.ar    1  UNL1        0.0617
     13 C          46.7561   15.8476  -23.7375 C.ar    1  UNL1        0.1256
     14 S          47.5085   16.9437  -22.5409 S.3     1  UNL1       -0.1210
     15 N          45.8937   14.8692  -23.4125 N.ar    1  UNL1       -0.1631
     16 N          45.5369   14.2601  -24.5330 N.ar    1  UNL1       -0.2483
     17 C          44.6469   13.1031  -24.5429 C.3     1  UNL1        0.1537
     18 H          48.6158   16.0903  -22.3798 H       1  UNL1        0.1086
     19 C          45.9203   12.9696  -31.0780 C.3     1  UNL1        0.0310
     20 C          45.9428   13.4427  -29.6551 C.ar    1  UNL1       -0.0218
     21 C          46.4139   12.6011  -28.6376 C.ar    1  UNL1       -0.0042
     22 C          46.4733   13.0554  -27.3175 C.ar    1  UNL1        0.0012
     23 C          46.0831   14.3665  -26.9957 C.ar    1  UNL1        0.0174
     24 C          45.6272   15.2112  -28.0213 C.ar    1  UNL1        0.0012
     25 C          45.5609   14.7542  -29.3405 C.ar    1  UNL1       -0.0042
     26 N          50.0624   14.9951  -24.3301 N.pl3   1  UNL1       -0.2917
     27 C          50.5844   14.8433  -22.9782 C.3     1  UNL1        0.0937
     28 C          50.4183   13.3664  -22.6183 C.3     1  UNL1        0.0391
     29 C          49.5731   12.7704  -23.7588 C.3     1  UNL1        0.0790
     30 C          49.7748   13.7090  -24.9418 C.3     1  UNL1        0.1081
     31 N          49.8219   11.3430  -24.0970 N.3     1  UNL1       -0.2723
     32 C          49.9425   10.5105  -22.8826 C.3     1  UNL1        0.0721
     33 C          49.8899    9.0234  -23.2572 C.3     1  UNL1        0.0174
     34 C          50.9693    8.6778  -24.2893 C.3     1  UNL1        0.0029
     35 C          50.9038    9.6291  -25.4892 C.3     1  UNL1        0.0174
     36 C          50.9572   11.0825  -25.0117 C.3     1  UNL1        0.0721
@<TRIPOS>BOND
     1    19    20    1
     2    20    21   ar
     3    21    22   ar
     4    22    23   ar
     5    23    11    1
     6    11    12   ar
     7    12     1    1
     8     1     2   ar
     9     2     3   ar
    10     3     4    1
    11     3     5   ar
    12     5     6   ar
    13     6     7   ar
    14     7     8   ar
    15     8     9   ar
    16     9    26    1
    17    26    27    1
    18    27    28    1
    19    28    29    1
    20    29    31    1
    21    31    32    1
    22    32    33    1
    23    33    34    1
    24    34    35    1
    25    35    36    1
    26    29    30    1
    27     9    10   ar
    28    12    13   ar
    29    13    14    1
    30    13    15   ar
    31    15    16   ar
    32    16    17    1
    33    23    24   ar
    34    24    25   ar
    35    25    20   ar
    36    16    11   ar
    37    10     1   ar
    38    10     5   ar
    39    30    26    1
    40    36    31    1
    41    14    18    1
@<TRIPOS>MOLECULE
*****
 36 41 0 0 0
SMALL
GASTEIGER

@<TRIPOS>ATOM
      1 C          48.6180   14.4949  -22.2790 C.ar    1  UNL1        0.1100
      2 N          49.2274   14.5325  -21.0675 N.ar    1  UNL1       -0.1677
      3 N          48.6482   13.6317  -20.2847 N.ar    1  UNL1       -0.2319
      4 C          48.9735   13.4361  -18.8783 C.3     1  UNL1        0.1554
      5 C          47.6657   13.0367  -20.9766 C.ar    1  UNL1        0.1654
      6 N          46.7979   12.1055  -20.5143 N.ar    1  UNL1       -0.2050
      7 C          45.8486   11.6290  -21.3696 C.ar    1  UNL1        0.2014
      8 N          45.7959   12.0724  -22.6635 N.ar    1  UNL1       -0.2089
      9 C          46.6700   13.0070  -23.1452 C.ar    1  UNL1        0.1379
     10 C          47.6170   13.5245  -22.2501 C.ar    1  UNL1        0.0865
     11 C          49.9614   15.3610  -24.3101 C.ar    1  UNL1        0.0814
     12 C          48.9575   15.4408  -23.3524 C.ar    1  UNL1        0.0617
     13 C          48.2664   16.5950  -23.6639 C.ar    1  UNL1        0.1256
     14 S          46.8537   17.2538  -22.7864 S.3     1  UNL1       -0.1210
     15 N          48.8220   17.1892  -24.7339 N.ar    1  UNL1       -0.1631
     16 N          49.8384   16.4372  -25.1278 N.ar    1  UNL1       -0.2483
     17 C          50.6356   16.7584  -26.3077 C.3     1  UNL1        0.1537
     18 H          45.9530   16.5323  -23.5917 H       1  UNL1        0.1086
     19 C          53.6573   10.9540  -25.0717 C.3     1  UNL1        0.0310
     20 C          52.7284   12.1174  -24.8902 C.ar    1  UNL1       -0.0218
     21 C          51.7869   12.4314  -25.8804 C.ar    1  UNL1       -0.0042
     22 C          50.8938   13.4898  -25.6942 C.ar    1  UNL1        0.0012
     23 C          50.9126   14.2387  -24.5051 C.ar    1  UNL1        0.0174
     24 C          51.8470   13.9098  -23.5093 C.ar    1  UNL1        0.0012
     25 C          52.7451   12.8557  -23.6988 C.ar    1  UNL1       -0.0042
     26 N          46.6111   13.3836  -24.5271 N.pl3   1  UNL1       -0.2917
     27 C          45.5732   14.2702  -25.0366 C.3     1  UNL1        0.0937
     28 C          45.6615   14.2011  -26.5617 C.3     1  UNL1        0.0391
     29 C          46.9476   13.4058  -26.8513 C.3     1  UNL1        0.0790
     30 C          47.2115   12.5944  -25.5890 C.3     1  UNL1        0.1081
     31 N          46.9560   12.5798  -28.0887 N.3     1  UNL1       -0.2723
     32 C          46.0326   13.1194  -29.1078 C.3     1  UNL1        0.0721
     33 C          46.2875   12.4408  -30.4602 C.3     1  UNL1        0.0174
     34 C          46.1709   10.9171  -30.3417 C.3     1  UNL1        0.0029
     35 C          47.0466   10.3884  -29.2003 C.3     1  UNL1        0.0174
     36 C          46.7213   11.1295  -27.9011 C.3     1  UNL1        0.0721
@<TRIPOS>BOND
     1    19    20    1
     2    20    21   ar
     3    21    22   ar
     4    22    23   ar
     5    23    11    1
     6    11    12   ar
     7    12     1    1
     8     1     2   ar
     9     2     3   ar
    10     3     4    1
    11     3     5   ar
    12     5     6   ar
    13     6     7   ar
    14     7     8   ar
    15     8     9   ar
    16     9    26    1
    17    26    27    1
    18    27    28    1
    19    28    29    1
    20    29    31    1
    21    31    32    1
    22    32    33    1
    23    33    34    1
    24    34    35    1
    25    35    36    1
    26    29    30    1
    27     9    10   ar
    28    12    13   ar
    29    13    14    1
    30    13    15   ar
    31    15    16   ar
    32    16    17    1
    33    23    24   ar
    34    24    25   ar
    35    25    20   ar
    36    16    11   ar
    37    10     1   ar
    38    10     5   ar
    39    30    26    1
    40    36    31    1
    41    14    18    1
