@<TRIPOS>MOLECULE
*****
 45 50 0 0 0
SMALL
GASTEIGER

@<TRIPOS>ATOM
      1 C          11.6003   81.2390   25.6665 C.ar    1  UNL1        0.0702
      2 C          12.6611   81.8058   26.3896 C.ar    1  UNL1        0.0191
      3 C          13.4463   82.8055   25.8129 C.ar    1  UNL1        0.0356
      4 C          13.1844   83.2206   24.4975 C.ar    1  UNL1        0.1318
      5 N          12.1543   82.6494   23.8134 N.ar    1  UNL1       -0.2279
      6 C          11.3768   81.6750   24.3550 C.ar    1  UNL1        0.1149
      7 N          13.9583   84.2647   23.8770 N.pl3   1  UNL1       -0.2932
      8 C          14.0238   85.6165   24.4499 C.3     1  UNL1        0.0923
      9 C          13.7471   86.6805   23.3738 C.3     1  UNL1        0.0252
     10 C          14.2306   86.2669   21.9579 C.3     1  UNL1        0.0472
     11 C          15.3379   85.1971   22.0292 C.3     1  UNL1        0.0252
     12 C          14.8058   83.9332   22.7220 C.3     1  UNL1        0.0923
     13 C          14.6972   87.4989   21.1582 C.3     1  UNL1        0.2054
     14 O          13.8141   87.7749   20.0693 O.3     1  UNL1       -0.4754
     15 C          14.0553   87.4613   18.7215 C.ar    1  UNL1        0.1392
     16 C          13.9970   88.4217   17.6939 C.ar    1  UNL1        0.0427
     17 C          14.2416   88.0506   16.3696 C.ar    1  UNL1        0.0333
     18 I          14.1424   89.4973   14.8375 I       1  UNL1       -0.0424
     19 C          14.5514   86.7244   16.0573 C.ar    1  UNL1        0.0124
     20 C          14.6212   85.7532   17.0708 C.ar    1  UNL1        0.0789
     21 C          14.3721   86.1355   18.4006 C.ar    1  UNL1        0.0434
     22 C          14.9504   84.3473   16.7471 C.2     1  UNL1        0.3381
     23 O          16.0700   83.8635   17.0673 O.2     1  UNL1       -0.2451
     24 O          14.0256   83.5441   16.0849 O.3     1  UNL1       -0.4771
     25 H          14.2411   82.5804   15.8585 H       1  UNL1        0.2954
     26 C          11.1508   78.7987   26.2107 C.2     1  UNL1        0.2839
     27 O          12.2107   78.4182   25.6457 O.2     1  UNL1       -0.2665
     28 N          10.7843   80.1898   26.2130 N.am    1  UNL1       -0.2766
     29 H           9.8995   80.4755   26.6859 H       1  UNL1        0.1553
     30 C           8.0095   78.2411   25.6573 C.3     1  UNL1        0.0345
     31 C           8.9385   77.5270   26.5916 C.ar    1  UNL1        0.0202
     32 C          10.2922   77.7826   26.8437 C.ar    1  UNL1        0.1946
     33 O          10.7370   76.9711   27.7869 O.2     1  UNL1       -0.4492
     34 C           9.7492   76.1860   28.1418 C.ar    1  UNL1        0.1452
     35 C           9.7727   75.1754   29.0965 C.ar    1  UNL1        0.0375
     36 C           8.5886   74.4508   29.3196 C.ar    1  UNL1        0.0031
     37 C           7.4049   74.7460   28.5899 C.ar    1  UNL1        0.0002
     38 C           7.4242   75.7847   27.6282 C.ar    1  UNL1        0.0028
     39 C           8.6170   76.4806   27.4323 C.ar    1  UNL1        0.0337
     40 C           6.1600   73.9741   28.8338 C.ar    1  UNL1        0.0000
     41 C           5.8183   72.8867   28.0072 C.ar    1  UNL1        0.0000
     42 C           4.6448   72.1625   28.2388 C.ar    1  UNL1        0.0000
     43 C           3.8014   72.5131   29.2953 C.ar    1  UNL1        0.0000
     44 C           4.1293   73.5895   30.1224 C.ar    1  UNL1        0.0000
     45 C           5.3010   74.3180   29.8951 C.ar    1  UNL1        0.0000
@<TRIPOS>BOND
     1    30    31    1
     2    31    32   ar
     3    32    26    1
     4    26    27    2
     5    26    28   am
     6    28     1    1
     7     1     2   ar
     8     2     3   ar
     9     3     4   ar
    10     4     7    1
    11     7     8    1
    12     8     9    1
    13     9    10    1
    14    10    13    1
    15    13    14    1
    16    14    15    1
    17    15    16   ar
    18    16    17   ar
    19    17    18    1
    20    17    19   ar
    21    19    20   ar
    22    20    22    1
    23    22    23    2
    24    22    24    1
    25    20    21   ar
    26    10    11    1
    27    11    12    1
    28     4     5   ar
    29     5     6   ar
    30    32    33   ar
    31    33    34   ar
    32    34    35   ar
    33    35    36   ar
    34    36    37   ar
    35    37    40    1
    36    40    41   ar
    37    41    42   ar
    38    42    43   ar
    39    43    44   ar
    40    44    45   ar
    41    37    38   ar
    42    38    39   ar
    43    39    31   ar
    44     6     1   ar
    45    39    34   ar
    46    12     7    1
    47    45    40   ar
    48    21    15   ar
    49    28    29    1
    50    24    25    1
@<TRIPOS>MOLECULE
*****
 45 50 0 0 0
SMALL
GASTEIGER

@<TRIPOS>ATOM
      1 C          11.6669   81.4211   25.7603 C.ar    1  UNL1        0.0702
      2 C          12.6778   82.0631   26.4919 C.ar    1  UNL1        0.0191
      3 C          13.4549   83.0550   25.8910 C.ar    1  UNL1        0.0356
      4 C          13.2359   83.3864   24.5444 C.ar    1  UNL1        0.1318
      5 N          12.2542   82.7433   23.8532 N.ar    1  UNL1       -0.2279
      6 C          11.4855   81.7751   24.4179 C.ar    1  UNL1        0.1149
      7 N          14.0021   84.4197   23.8968 N.pl3   1  UNL1       -0.2932
      8 C          14.2410   85.7182   24.5423 C.3     1  UNL1        0.0923
      9 C          13.9121   86.8747   23.5826 C.3     1  UNL1        0.0252
     10 C          14.1811   86.5354   22.0918 C.3     1  UNL1        0.0472
     11 C          15.2047   85.3920   21.9486 C.3     1  UNL1        0.0252
     12 C          14.6701   84.1186   22.6219 C.3     1  UNL1        0.0923
     13 C          14.6350   87.7892   21.3192 C.3     1  UNL1        0.2054
     14 O          13.8056   88.0243   20.1797 O.3     1  UNL1       -0.4754
     15 C          14.0116   87.4939   18.8954 C.ar    1  UNL1        0.1392
     16 C          14.1876   86.1173   18.6592 C.ar    1  UNL1        0.0427
     17 C          14.3937   85.6473   17.3600 C.ar    1  UNL1        0.0333
     18 I          14.6652   83.5831   17.0201 I       1  UNL1       -0.0424
     19 C          14.4208   86.5403   16.2857 C.ar    1  UNL1        0.0124
     20 C          14.2398   87.9173   16.5014 C.ar    1  UNL1        0.0789
     21 C          14.0344   88.3815   17.8125 C.ar    1  UNL1        0.0434
     22 C          14.2657   88.8683   15.3679 C.2     1  UNL1        0.3381
     23 O          13.2148   89.1131   14.7155 O.2     1  UNL1       -0.2451
     24 O          15.4526   89.5027   15.0105 O.3     1  UNL1       -0.4771
     25 H          15.4811   90.1552   14.2362 H       1  UNL1        0.2954
     26 C          11.0069   78.9814   26.0162 C.2     1  UNL1        0.2839
     27 O          11.8298   78.6075   25.1383 O.2     1  UNL1       -0.2665
     28 N          10.8619   80.3772   26.3326 N.am    1  UNL1       -0.2766
     29 H          10.1706   80.6580   27.0616 H       1  UNL1        0.1553
     30 C           7.9126   78.2292   25.4296 C.3     1  UNL1        0.0345
     31 C           8.8546   77.6177   26.4218 C.ar    1  UNL1        0.0202
     32 C          10.1870   77.9579   26.6873 C.ar    1  UNL1        0.1946
     33 O          10.6504   77.2241   27.6838 O.2     1  UNL1       -0.4492
     34 C           9.6962   76.4088   28.0616 C.ar    1  UNL1        0.1452
     35 C           9.7490   75.4551   29.0720 C.ar    1  UNL1        0.0375
     36 C           8.5988   74.6824   29.3107 C.ar    1  UNL1        0.0031
     37 C           7.4192   74.8741   28.5410 C.ar    1  UNL1        0.0002
     38 C           7.4078   75.8578   27.5230 C.ar    1  UNL1        0.0028
     39 C           8.5675   76.6038   27.3132 C.ar    1  UNL1        0.0337
     40 C           6.2102   74.0523   28.8020 C.ar    1  UNL1        0.0000
     41 C           5.4537   74.2437   29.9739 C.ar    1  UNL1        0.0000
     42 C           4.3164   73.4675   30.2173 C.ar    1  UNL1        0.0000
     43 C           3.9211   72.4947   29.2965 C.ar    1  UNL1        0.0000
     44 C           4.6629   72.2954   28.1302 C.ar    1  UNL1        0.0000
     45 C           5.8017   73.0678   27.8819 C.ar    1  UNL1        0.0000
@<TRIPOS>BOND
     1    30    31    1
     2    31    32   ar
     3    32    26    1
     4    26    27    2
     5    26    28   am
     6    28     1    1
     7     1     2   ar
     8     2     3   ar
     9     3     4   ar
    10     4     7    1
    11     7     8    1
    12     8     9    1
    13     9    10    1
    14    10    13    1
    15    13    14    1
    16    14    15    1
    17    15    16   ar
    18    16    17   ar
    19    17    18    1
    20    17    19   ar
    21    19    20   ar
    22    20    22    1
    23    22    23    2
    24    22    24    1
    25    20    21   ar
    26    10    11    1
    27    11    12    1
    28     4     5   ar
    29     5     6   ar
    30    32    33   ar
    31    33    34   ar
    32    34    35   ar
    33    35    36   ar
    34    36    37   ar
    35    37    40    1
    36    40    41   ar
    37    41    42   ar
    38    42    43   ar
    39    43    44   ar
    40    44    45   ar
    41    37    38   ar
    42    38    39   ar
    43    39    31   ar
    44     6     1   ar
    45    39    34   ar
    46    12     7    1
    47    45    40   ar
    48    21    15   ar
    49    28    29    1
    50    24    25    1
@<TRIPOS>MOLECULE
*****
 45 50 0 0 0
SMALL
GASTEIGER

@<TRIPOS>ATOM
      1 C          11.6589   81.3992   25.6642 C.ar    1  UNL1        0.0702
      2 C          12.6044   82.0893   26.4382 C.ar    1  UNL1        0.0191
      3 C          13.3924   83.0846   25.8577 C.ar    1  UNL1        0.0356
      4 C          13.2512   83.3715   24.4906 C.ar    1  UNL1        0.1318
      5 N          12.3323   82.6822   23.7587 N.ar    1  UNL1       -0.2279
      6 C          11.5543   81.7097   24.3030 C.ar    1  UNL1        0.1149
      7 N          14.0303   84.4065   23.8616 N.pl3   1  UNL1       -0.2932
      8 C          14.3502   85.6595   24.5600 C.3     1  UNL1        0.0923
      9 C          14.0276   86.8762   23.6755 C.3     1  UNL1        0.0252
     10 C          14.2174   86.6048   22.1589 C.3     1  UNL1        0.0472
     11 C          15.1860   85.4315   21.9120 C.3     1  UNL1        0.0252
     12 C          14.6294   84.1466   22.5441 C.3     1  UNL1        0.0923
     13 C          14.6884   87.8786   21.4304 C.3     1  UNL1        0.2054
     14 O          13.5796   88.6802   21.0188 O.3     1  UNL1       -0.4754
     15 C          13.0729   88.7651   19.7115 C.ar    1  UNL1        0.1392
     16 C          11.7198   89.0381   19.4354 C.ar    1  UNL1        0.0427
     17 C          11.2712   89.1058   18.1142 C.ar    1  UNL1        0.0333
     18 I           9.2393   89.5067   17.7136 I       1  UNL1       -0.0424
     19 C          12.1644   88.9084   17.0580 C.ar    1  UNL1        0.0124
     20 C          13.5203   88.6418   17.3141 C.ar    1  UNL1        0.0789
     21 C          13.9625   88.5742   18.6470 C.ar    1  UNL1        0.0434
     22 C          14.4718   88.4335   16.2001 C.2     1  UNL1        0.3381
     23 O          14.4682   87.3527   15.5507 O.2     1  UNL1       -0.2451
     24 O          15.3817   89.4306   15.8580 O.3     1  UNL1       -0.4771
     25 H          16.0373   89.2981   15.0972 H       1  UNL1        0.2954
     26 C          11.1820   78.9529   26.1552 C.2     1  UNL1        0.2839
     27 O          12.2067   78.5687   25.5307 O.2     1  UNL1       -0.2665
     28 N          10.8461   80.3503   26.2161 N.am    1  UNL1       -0.2766
     29 H           9.9902   80.6391   26.7376 H       1  UNL1        0.1553
     30 C           8.0470   78.3615   25.6013 C.3     1  UNL1        0.0345
     31 C           8.9806   77.6649   26.5442 C.ar    1  UNL1        0.0202
     32 C          10.3314   77.9352   26.7964 C.ar    1  UNL1        0.1946
     33 O          10.7816   77.1369   27.7483 O.2     1  UNL1       -0.4492
     34 C           9.8003   76.3464   28.1089 C.ar    1  UNL1        0.1452
     35 C           9.8310   75.3454   29.0734 C.ar    1  UNL1        0.0375
     36 C           8.6530   74.6123   29.3013 C.ar    1  UNL1        0.0031
     37 C           7.4682   74.8897   28.5666 C.ar    1  UNL1        0.0002
     38 C           7.4800   75.9191   27.5949 C.ar    1  UNL1        0.0028
     39 C           8.6668   76.6239   27.3945 C.ar    1  UNL1        0.0337
     40 C           6.2298   74.1090   28.8156 C.ar    1  UNL1        0.0000
     41 C           5.3785   74.4394   29.8873 C.ar    1  UNL1        0.0000
     42 C           4.2137   73.7017   30.1199 C.ar    1  UNL1        0.0000
     43 C           3.8850   72.6294   29.2879 C.ar    1  UNL1        0.0000
     44 C           4.7210   72.2917   28.2213 C.ar    1  UNL1        0.0000
     45 C           5.8877   73.0252   27.9845 C.ar    1  UNL1        0.0000
@<TRIPOS>BOND
     1    30    31    1
     2    31    32   ar
     3    32    26    1
     4    26    27    2
     5    26    28   am
     6    28     1    1
     7     1     2   ar
     8     2     3   ar
     9     3     4   ar
    10     4     7    1
    11     7     8    1
    12     8     9    1
    13     9    10    1
    14    10    13    1
    15    13    14    1
    16    14    15    1
    17    15    16   ar
    18    16    17   ar
    19    17    18    1
    20    17    19   ar
    21    19    20   ar
    22    20    22    1
    23    22    23    2
    24    22    24    1
    25    20    21   ar
    26    10    11    1
    27    11    12    1
    28     4     5   ar
    29     5     6   ar
    30    32    33   ar
    31    33    34   ar
    32    34    35   ar
    33    35    36   ar
    34    36    37   ar
    35    37    40    1
    36    40    41   ar
    37    41    42   ar
    38    42    43   ar
    39    43    44   ar
    40    44    45   ar
    41    37    38   ar
    42    38    39   ar
    43    39    31   ar
    44     6     1   ar
    45    39    34   ar
    46    12     7    1
    47    45    40   ar
    48    21    15   ar
    49    28    29    1
    50    24    25    1
@<TRIPOS>MOLECULE
*****
 45 50 0 0 0
SMALL
GASTEIGER

@<TRIPOS>ATOM
      1 C          11.6266   81.1467   25.2685 C.ar    1  UNL1        0.0702
      2 C          12.9781   80.9090   24.9745 C.ar    1  UNL1        0.0191
      3 C          13.7915   81.9519   24.5279 C.ar    1  UNL1        0.0356
      4 C          13.2427   83.2318   24.3502 C.ar    1  UNL1        0.1318
      5 N          11.9263   83.4355   24.6347 N.ar    1  UNL1       -0.2279
      6 C          11.1160   82.4353   25.0708 C.ar    1  UNL1        0.1149
      7 N          14.0554   84.3374   23.9129 N.pl3   1  UNL1       -0.2932
      8 C          14.2046   85.5512   24.7280 C.3     1  UNL1        0.0923
      9 C          13.9588   86.8120   23.8815 C.3     1  UNL1        0.0252
     10 C          14.3872   86.6528   22.3980 C.3     1  UNL1        0.0472
     11 C          15.4386   85.5383   22.2301 C.3     1  UNL1        0.0252
     12 C          14.8574   84.1921   22.6891 C.3     1  UNL1        0.0923
     13 C          14.8988   87.9911   21.8302 C.3     1  UNL1        0.2054
     14 O          15.2232   87.8756   20.4435 O.3     1  UNL1       -0.4754
     15 C          14.4089   88.2893   19.3762 C.ar    1  UNL1        0.1392
     16 C          14.9230   88.6071   18.1049 C.ar    1  UNL1        0.0427
     17 C          14.0651   89.0179   17.0819 C.ar    1  UNL1        0.0333
     18 I          14.8486   89.5000   15.1836 I       1  UNL1       -0.0424
     19 C          12.6901   89.1106   17.3127 C.ar    1  UNL1        0.0124
     20 C          12.1579   88.7905   18.5735 C.ar    1  UNL1        0.0789
     21 C          13.0291   88.3793   19.5975 C.ar    1  UNL1        0.0434
     22 C          10.7026   88.8849   18.8241 C.2     1  UNL1        0.3381
     23 O           9.9552   89.5068   18.0213 O.2     1  UNL1       -0.2451
     24 O          10.1439   88.2869   19.9508 O.3     1  UNL1       -0.4771
     25 H           9.1488   88.3456   20.1317 H       1  UNL1        0.2954
     26 C           9.7865   79.4443   24.8581 C.2     1  UNL1        0.2839
     27 O           9.6171   79.8288   23.6702 O.2     1  UNL1       -0.2665
     28 N          10.7488   80.0962   25.7057 N.am    1  UNL1       -0.2766
     29 H          10.8655   79.7585   26.6856 H       1  UNL1        0.1553
     30 C           8.2506   79.2427   27.7015 C.3     1  UNL1        0.0345
     31 C           8.2790   78.2508   26.5785 C.ar    1  UNL1        0.0202
     32 C           8.9600   78.3316   25.3574 C.ar    1  UNL1        0.1946
     33 O           8.7826   77.2190   24.6669 O.2     1  UNL1       -0.4492
     34 C           8.0019   76.4314   25.3656 C.ar    1  UNL1        0.1452
     35 C           7.5482   75.1640   25.0171 C.ar    1  UNL1        0.0375
     36 C           6.7118   74.4901   25.9244 C.ar    1  UNL1        0.0031
     37 C           6.3441   75.0891   27.1599 C.ar    1  UNL1        0.0002
     38 C           6.8300   76.3805   27.4761 C.ar    1  UNL1        0.0028
     39 C           7.6557   77.0197   26.5513 C.ar    1  UNL1        0.0337
     40 C           5.4600   74.3680   28.1105 C.ar    1  UNL1        0.0000
     41 C           5.1887   72.9973   27.9369 C.ar    1  UNL1        0.0000
     42 C           4.3550   72.3214   28.8331 C.ar    1  UNL1        0.0000
     43 C           3.7846   73.0028   29.9104 C.ar    1  UNL1        0.0000
     44 C           4.0461   74.3623   30.0937 C.ar    1  UNL1        0.0000
     45 C           4.8783   75.0438   29.2002 C.ar    1  UNL1        0.0000
@<TRIPOS>BOND
     1    30    31    1
     2    31    32   ar
     3    32    26    1
     4    26    27    2
     5    26    28   am
     6    28     1    1
     7     1     2   ar
     8     2     3   ar
     9     3     4   ar
    10     4     7    1
    11     7     8    1
    12     8     9    1
    13     9    10    1
    14    10    13    1
    15    13    14    1
    16    14    15    1
    17    15    16   ar
    18    16    17   ar
    19    17    18    1
    20    17    19   ar
    21    19    20   ar
    22    20    22    1
    23    22    23    2
    24    22    24    1
    25    20    21   ar
    26    10    11    1
    27    11    12    1
    28     4     5   ar
    29     5     6   ar
    30    32    33   ar
    31    33    34   ar
    32    34    35   ar
    33    35    36   ar
    34    36    37   ar
    35    37    40    1
    36    40    41   ar
    37    41    42   ar
    38    42    43   ar
    39    43    44   ar
    40    44    45   ar
    41    37    38   ar
    42    38    39   ar
    43    39    31   ar
    44     6     1   ar
    45    39    34   ar
    46    12     7    1
    47    45    40   ar
    48    21    15   ar
    49    28    29    1
    50    24    25    1
@<TRIPOS>MOLECULE
*****
 45 50 0 0 0
SMALL
GASTEIGER

@<TRIPOS>ATOM
      1 C          10.7358   81.4483   25.3817 C.ar    1  UNL1        0.0702
      2 C          10.6822   80.9404   26.6889 C.ar    1  UNL1        0.0191
      3 C           9.8683   79.8446   26.9815 C.ar    1  UNL1        0.0356
      4 C           9.0853   79.2720   25.9666 C.ar    1  UNL1        0.1318
      5 N           9.1485   79.7881   24.7077 N.ar    1  UNL1       -0.2279
      6 C           9.9339   80.8538   24.4000 C.ar    1  UNL1        0.1149
      7 N           8.2508   78.1270   26.2250 N.pl3   1  UNL1       -0.2932
      8 C           8.3753   76.8920   25.4380 C.3     1  UNL1        0.0923
      9 C           6.9981   76.4178   24.9432 C.3     1  UNL1        0.0252
     10 C           5.8393   76.7649   25.9162 C.3     1  UNL1        0.0472
     11 C           6.3537   76.9801   27.3531 C.3     1  UNL1        0.0252
     12 C           7.3496   78.1495   27.3867 C.3     1  UNL1        0.0923
     13 C           4.7457   75.6798   25.8729 C.3     1  UNL1        0.2054
     14 O           3.5507   76.1725   25.2640 O.3     1  UNL1       -0.4754
     15 C           3.3689   76.4053   23.8907 C.ar    1  UNL1        0.1392
     16 C           3.9890   75.6241   22.8973 C.ar    1  UNL1        0.0427
     17 C           3.7751   75.9054   21.5459 C.ar    1  UNL1        0.0333
     18 I           4.7172   74.7332   20.0666 I       1  UNL1       -0.0424
     19 C           2.9395   76.9608   21.1716 C.ar    1  UNL1        0.0124
     20 C           2.3061   77.7472   22.1493 C.ar    1  UNL1        0.0789
     21 C           2.5284   77.4575   23.5070 C.ar    1  UNL1        0.0434
     22 C           1.4186   78.8653   21.7597 C.2     1  UNL1        0.3381
     23 O           1.8881   79.8804   21.1775 O.2     1  UNL1       -0.2451
     24 O           0.0544   78.8069   22.0330 O.3     1  UNL1       -0.4771
     25 H          -0.5619   79.5669   21.7706 H       1  UNL1        0.2954
     26 C          12.9155   82.5137   24.6287 C.2     1  UNL1        0.2839
     27 O          13.5168   81.4066   24.6111 O.2     1  UNL1       -0.2665
     28 N          11.5401   82.5902   25.0435 N.am    1  UNL1       -0.2766
     29 H          11.0686   83.5206   25.0511 H       1  UNL1        0.1553
     30 C          15.7162   82.6697   23.0112 C.3     1  UNL1        0.0345
     31 C          14.8640   83.7919   23.5214 C.ar    1  UNL1        0.0202
     32 C          13.6627   83.7217   24.2379 C.ar    1  UNL1        0.1946
     33 O          13.2582   84.9373   24.5616 O.2     1  UNL1       -0.4492
     34 C          14.1212   85.7931   24.0709 C.ar    1  UNL1        0.1452
     35 C          14.0845   87.1799   24.1649 C.ar    1  UNL1        0.0375
     36 C          15.1225   87.9100   23.5596 C.ar    1  UNL1        0.0031
     37 C          16.1764   87.2469   22.8739 C.ar    1  UNL1        0.0002
     38 C          16.1763   85.8330   22.8038 C.ar    1  UNL1        0.0028
     39 C          15.1295   85.1421   23.4140 C.ar    1  UNL1        0.0337
     40 C          17.2675   88.0283   22.2383 C.ar    1  UNL1        0.0000
     41 C          17.0896   88.6011   20.9645 C.ar    1  UNL1        0.0000
     42 C          18.1193   89.3354   20.3681 C.ar    1  UNL1        0.0000
     43 C          19.3348   89.5071   21.0341 C.ar    1  UNL1        0.0000
     44 C          19.5236   88.9441   22.2980 C.ar    1  UNL1        0.0000
     45 C          18.4979   88.2079   22.8990 C.ar    1  UNL1        0.0000
@<TRIPOS>BOND
     1    30    31    1
     2    31    32   ar
     3    32    26    1
     4    26    27    2
     5    26    28   am
     6    28     1    1
     7     1     2   ar
     8     2     3   ar
     9     3     4   ar
    10     4     7    1
    11     7     8    1
    12     8     9    1
    13     9    10    1
    14    10    13    1
    15    13    14    1
    16    14    15    1
    17    15    16   ar
    18    16    17   ar
    19    17    18    1
    20    17    19   ar
    21    19    20   ar
    22    20    22    1
    23    22    23    2
    24    22    24    1
    25    20    21   ar
    26    10    11    1
    27    11    12    1
    28     4     5   ar
    29     5     6   ar
    30    32    33   ar
    31    33    34   ar
    32    34    35   ar
    33    35    36   ar
    34    36    37   ar
    35    37    40    1
    36    40    41   ar
    37    41    42   ar
    38    42    43   ar
    39    43    44   ar
    40    44    45   ar
    41    37    38   ar
    42    38    39   ar
    43    39    31   ar
    44     6     1   ar
    45    39    34   ar
    46    12     7    1
    47    45    40   ar
    48    21    15   ar
    49    28    29    1
    50    24    25    1
@<TRIPOS>MOLECULE
*****
 45 50 0 0 0
SMALL
GASTEIGER

@<TRIPOS>ATOM
      1 C          11.8503   80.7213   25.4884 C.ar    1  UNL1        0.0702
      2 C          13.2488   80.8241   25.5420 C.ar    1  UNL1        0.0191
      3 C          13.8877   81.9560   25.0327 C.ar    1  UNL1        0.0356
      4 C          13.1247   82.9768   24.4439 C.ar    1  UNL1        0.1318
      5 N          11.7694   82.8500   24.3965 N.ar    1  UNL1       -0.2279
      6 C          11.1263   81.7574   24.8863 C.ar    1  UNL1        0.1149
      7 N          13.7461   84.1692   23.9281 N.pl3   1  UNL1       -0.2932
      8 C          13.8554   85.3908   24.7380 C.3     1  UNL1        0.0923
      9 C          13.3653   86.6164   23.9478 C.3     1  UNL1        0.0252
     10 C          13.6231   86.5099   22.4207 C.3     1  UNL1        0.0472
     11 C          14.7658   85.5239   22.1082 C.3     1  UNL1        0.0252
     12 C          14.4027   84.1191   22.6133 C.3     1  UNL1        0.0923
     13 C          13.9051   87.8990   21.8158 C.3     1  UNL1        0.2054
     14 O          14.4959   88.7735   22.7791 O.3     1  UNL1       -0.4754
     15 C          15.8603   88.8239   23.1091 C.ar    1  UNL1        0.1392
     16 C          16.8747   88.9350   22.1394 C.ar    1  UNL1        0.0427
     17 C          18.2163   88.9758   22.5264 C.ar    1  UNL1        0.0333
     18 I          19.7277   89.1335   21.0633 I       1  UNL1       -0.0424
     19 C          18.5596   88.9122   23.8794 C.ar    1  UNL1        0.0124
     20 C          17.5602   88.8082   24.8621 C.ar    1  UNL1        0.0789
     21 C          16.2127   88.7665   24.4632 C.ar    1  UNL1        0.0434
     22 C          17.9167   88.7421   26.2967 C.2     1  UNL1        0.3381
     23 O          18.8503   89.4542   26.7563 O.2     1  UNL1       -0.2451
     24 O          17.2236   87.8915   27.1541 O.3     1  UNL1       -0.4771
     25 H          17.4598   87.8387   28.1378 H       1  UNL1        0.2954
     26 C          10.5372   79.4800   27.2740 C.2     1  UNL1        0.2839
     27 O          10.6435   80.4307   28.0940 O.2     1  UNL1       -0.2665
     28 N          11.1551   79.5625   25.9775 N.am    1  UNL1       -0.2766
     29 H          11.0530   78.7589   25.3202 H       1  UNL1        0.1553
     30 C           7.3705   78.9066   26.9157 C.3     1  UNL1        0.0345
     31 C           8.4218   78.0228   27.5152 C.ar    1  UNL1        0.0202
     32 C           9.7876   78.2809   27.6869 C.ar    1  UNL1        0.1946
     33 O          10.3620   77.2720   28.3180 O.2     1  UNL1       -0.4492
     34 C           9.4452   76.3626   28.5424 C.ar    1  UNL1        0.1452
     35 C           9.6085   75.1342   29.1732 C.ar    1  UNL1        0.0375
     36 C           8.4798   74.3068   29.3086 C.ar    1  UNL1        0.0031
     37 C           7.2115   74.7176   28.8152 C.ar    1  UNL1        0.0002
     38 C           7.0891   75.9773   28.1811 C.ar    1  UNL1        0.0028
     39 C           8.2304   76.7703   28.0628 C.ar    1  UNL1        0.0337
     40 C           6.0262   73.8355   28.9638 C.ar    1  UNL1        0.0000
     41 C           5.0985   74.0514   30.0006 C.ar    1  UNL1        0.0000
     42 C           3.9839   73.2185   30.1385 C.ar    1  UNL1        0.0000
     43 C           3.7819   72.1639   29.2456 C.ar    1  UNL1        0.0000
     44 C           4.6947   71.9393   28.2128 C.ar    1  UNL1        0.0000
     45 C           5.8117   72.7684   28.0705 C.ar    1  UNL1        0.0000
@<TRIPOS>BOND
     1    30    31    1
     2    31    32   ar
     3    32    26    1
     4    26    27    2
     5    26    28   am
     6    28     1    1
     7     1     2   ar
     8     2     3   ar
     9     3     4   ar
    10     4     7    1
    11     7     8    1
    12     8     9    1
    13     9    10    1
    14    10    13    1
    15    13    14    1
    16    14    15    1
    17    15    16   ar
    18    16    17   ar
    19    17    18    1
    20    17    19   ar
    21    19    20   ar
    22    20    22    1
    23    22    23    2
    24    22    24    1
    25    20    21   ar
    26    10    11    1
    27    11    12    1
    28     4     5   ar
    29     5     6   ar
    30    32    33   ar
    31    33    34   ar
    32    34    35   ar
    33    35    36   ar
    34    36    37   ar
    35    37    40    1
    36    40    41   ar
    37    41    42   ar
    38    42    43   ar
    39    43    44   ar
    40    44    45   ar
    41    37    38   ar
    42    38    39   ar
    43    39    31   ar
    44     6     1   ar
    45    39    34   ar
    46    12     7    1
    47    45    40   ar
    48    21    15   ar
    49    28    29    1
    50    24    25    1
