@<TRIPOS>MOLECULE
*****
 40 44 0 0 0
SMALL
GASTEIGER

@<TRIPOS>ATOM
      1 N         -22.3771   -8.0422  -12.7823 N.3     1  UNL1       -0.2679
      2 C         -21.2283   -8.4039  -11.8721 C.3     1  UNL1        0.0978
      3 C         -21.3503   -7.9048  -10.3963 C.3     1  UNL1        0.0224
      4 C         -20.2980   -8.4901   -9.4115 C.3     1  UNL1        0.0065
      5 C         -19.3089   -9.4753  -10.0504 C.3     1  UNL1        0.0277
      6 C         -20.0484  -10.4258  -10.9420 C.ar    1  UNL1       -0.0073
      7 C         -19.8254  -11.8078  -10.8969 C.ar    1  UNL1       -0.0015
      8 C         -20.5749  -12.6559  -11.7127 C.ar    1  UNL1        0.0203
      9 C         -21.5389  -12.1101  -12.5616 C.ar    1  UNL1        0.0985
     10 N         -21.7305  -10.7648  -12.5985 N.ar    1  UNL1       -0.2471
     11 C         -21.0091   -9.9092  -11.8251 C.ar    1  UNL1        0.0695
     12 C         -23.1867   -6.8964  -12.2676 C.3     1  UNL1        0.0725
     13 C         -24.7004   -7.1992  -12.1926 C.3     1  UNL1        0.0188
     14 C         -25.0231   -8.6983  -12.0040 C.3     1  UNL1        0.0185
     15 C         -25.4530   -9.3799  -13.3122 C.3     1  UNL1        0.0686
     16 N         -24.6308  -10.5723  -13.5688 N.3     1  UNL1       -0.2985
     17 H         -24.1639  -10.8144  -12.6622 H       1  UNL1        0.1232
     18 C         -24.9953  -15.1618  -16.4154 C.3     1  UNL1        0.0000
     19 C         -24.3230  -14.2960  -15.3285 C.3     1  UNL1        0.0001
     20 C         -22.9594  -14.9310  -14.9802 C.3     1  UNL1        0.0000
     21 C         -25.2353  -14.2766  -14.0610 C.3     1  UNL1        0.0014
     22 C         -25.0427  -12.9978  -13.2367 C.3     1  UNL1        0.0157
     23 C         -25.4351  -11.7206  -14.0330 C.3     1  UNL1        0.0540
     24 C         -25.2558  -11.9177  -15.5638 C.3     1  UNL1        0.0157
     25 C         -24.0854  -12.8555  -15.8802 C.3     1  UNL1        0.0014
     26 C         -21.8424   -7.7456  -14.1538 C.3     1  UNL1        0.0886
     27 C         -22.7361   -8.2255  -15.3423 C.3     1  UNL1        0.0748
     28 C         -23.3755   -7.0614  -16.1416 C.3     1  UNL1        0.0432
     29 C         -23.8116   -7.4401  -17.5334 C.ar    1  UNL1       -0.0235
     30 C         -24.4500   -6.4793  -18.3316 C.ar    1  UNL1       -0.0047
     31 C         -24.8421   -6.7893  -19.6355 C.ar    1  UNL1       -0.0022
     32 C         -24.6137   -8.0704  -20.1566 C.ar    1  UNL1        0.0067
     33 C         -23.9579   -9.0282  -19.3689 C.ar    1  UNL1       -0.0051
     34 C         -23.5438   -8.7148  -18.0647 C.ar    1  UNL1       -0.0105
     35 C         -22.8870   -9.7617  -17.2121 C.3     1  UNL1        0.0953
     36 N         -21.9968   -9.1443  -16.2241 N.3     1  UNL1       -0.2934
     37 H         -21.6088   -9.9243  -15.6427 H       1  UNL1        0.1236
     38 C         -25.0103   -8.3958  -21.5702 C.3     1  UNL1        0.1636
     39 O         -25.4835   -9.7124  -21.6459 O.3     1  UNL1       -0.3772
     40 H         -24.6863  -10.3029  -21.6059 H       1  UNL1        0.2109
@<TRIPOS>BOND
     1    18    19    1
     2    19    20    1
     3    19    21    1
     4    21    22    1
     5    22    23    1
     6    23    16    1
     7    16    15    1
     8    15    14    1
     9    14    13    1
    10    13    12    1
    11    12     1    1
    12     1    26    1
    13    26    27    1
    14    27    28    1
    15    28    29    1
    16    29    30   ar
    17    30    31   ar
    18    31    32   ar
    19    32    38    1
    20    38    39    1
    21    32    33   ar
    22    33    34   ar
    23    34    35    1
    24    35    36    1
    25     1     2    1
    26     2     3    1
    27     3     4    1
    28     4     5    1
    29     5     6    1
    30     6     7   ar
    31     7     8   ar
    32     8     9   ar
    33     9    10   ar
    34    10    11   ar
    35    23    24    1
    36    24    25    1
    37    25    19    1
    38    36    27    1
    39    11     2    1
    40    34    29   ar
    41    11     6   ar
    42    16    17    1
    43    39    40    1
    44    36    37    1
@<TRIPOS>MOLECULE
*****
 40 44 0 0 0
SMALL
GASTEIGER

@<TRIPOS>ATOM
      1 N         -23.4949   -8.7600  -12.9384 N.3     1  UNL1       -0.2679
      2 C         -24.7504   -8.1463  -12.3674 C.3     1  UNL1        0.0978
      3 C         -25.9783   -8.0938  -13.3324 C.3     1  UNL1        0.0224
      4 C         -27.3266   -7.6972  -12.6657 C.3     1  UNL1        0.0065
      5 C         -27.2342   -7.4276  -11.1570 C.3     1  UNL1        0.0277
      6 C         -26.4089   -8.4940  -10.5036 C.ar    1  UNL1       -0.0073
      7 C         -26.8269   -9.1396   -9.3330 C.ar    1  UNL1       -0.0015
      8 C         -26.0462  -10.1608   -8.7904 C.ar    1  UNL1        0.0203
      9 C         -24.8586  -10.5237   -9.4272 C.ar    1  UNL1        0.0985
     10 N         -24.4655   -9.8756  -10.5557 N.ar    1  UNL1       -0.2471
     11 C         -25.1970   -8.8682  -11.1041 C.ar    1  UNL1        0.0695
     12 C         -23.4826   -8.7714  -14.4328 C.3     1  UNL1        0.0725
     13 C         -22.3487   -7.9173  -15.0438 C.3     1  UNL1        0.0188
     14 C         -21.4360   -8.7021  -16.0123 C.3     1  UNL1        0.0185
     15 C         -22.0133  -10.0759  -16.3867 C.3     1  UNL1        0.0686
     16 N         -21.2473  -11.1526  -15.7405 N.3     1  UNL1       -0.2985
     17 H         -21.0620  -10.8394  -14.7576 H       1  UNL1        0.1232
     18 C         -25.3933  -14.1196  -13.9220 C.3     1  UNL1        0.0000
     19 C         -24.8366  -12.8570  -14.6139 C.3     1  UNL1        0.0001
     20 C         -25.9598  -11.7987  -14.6638 C.3     1  UNL1        0.0000
     21 C         -24.3963  -13.2281  -16.0657 C.3     1  UNL1        0.0014
     22 C         -23.2771  -12.3122  -16.5760 C.3     1  UNL1        0.0157
     23 C         -21.9833  -12.4328  -15.7212 C.3     1  UNL1        0.0540
     24 C         -22.2959  -12.8503  -14.2576 C.3     1  UNL1        0.0157
     25 C         -23.6420  -12.2899  -13.7848 C.3     1  UNL1        0.0014
     26 C         -22.3007   -8.0263  -12.3995 C.3     1  UNL1        0.0886
     27 C         -21.5123   -8.7634  -11.2696 C.3     1  UNL1        0.0748
     28 C         -21.1982  -10.2444  -11.6027 C.3     1  UNL1        0.0432
     29 C         -20.0570  -10.8232  -10.8068 C.ar    1  UNL1       -0.0235
     30 C         -19.7161  -12.1718  -10.9880 C.ar    1  UNL1       -0.0047
     31 C         -18.6466  -12.7322  -10.2865 C.ar    1  UNL1       -0.0022
     32 C         -17.9097  -11.9549   -9.3820 C.ar    1  UNL1        0.0067
     33 C         -18.2347  -10.6008   -9.2124 C.ar    1  UNL1       -0.0051
     34 C         -19.2962  -10.0281   -9.9306 C.ar    1  UNL1       -0.0105
     35 C         -19.6676   -8.5909   -9.7055 C.3     1  UNL1        0.0953
     36 N         -20.2940   -8.0220  -10.9031 N.3     1  UNL1       -0.2934
     37 H         -20.5621   -7.0387  -10.6617 H       1  UNL1        0.1236
     38 C         -16.7403  -12.5505   -8.6476 C.3     1  UNL1        0.1636
     39 O         -15.7047  -12.8389   -9.5461 O.3     1  UNL1       -0.3772
     40 H         -15.9726  -13.6619  -10.0328 H       1  UNL1        0.2109
@<TRIPOS>BOND
     1    18    19    1
     2    19    20    1
     3    19    21    1
     4    21    22    1
     5    22    23    1
     6    23    16    1
     7    16    15    1
     8    15    14    1
     9    14    13    1
    10    13    12    1
    11    12     1    1
    12     1    26    1
    13    26    27    1
    14    27    28    1
    15    28    29    1
    16    29    30   ar
    17    30    31   ar
    18    31    32   ar
    19    32    38    1
    20    38    39    1
    21    32    33   ar
    22    33    34   ar
    23    34    35    1
    24    35    36    1
    25     1     2    1
    26     2     3    1
    27     3     4    1
    28     4     5    1
    29     5     6    1
    30     6     7   ar
    31     7     8   ar
    32     8     9   ar
    33     9    10   ar
    34    10    11   ar
    35    23    24    1
    36    24    25    1
    37    25    19    1
    38    36    27    1
    39    11     2    1
    40    34    29   ar
    41    11     6   ar
    42    16    17    1
    43    39    40    1
    44    36    37    1
@<TRIPOS>MOLECULE
*****
 40 44 0 0 0
SMALL
GASTEIGER

@<TRIPOS>ATOM
      1 N         -24.8338   -7.7661  -12.7644 N.3     1  UNL1       -0.2679
      2 C         -24.2322   -8.0766  -11.4151 C.3     1  UNL1        0.0978
      3 C         -23.5152   -9.4599  -11.2952 C.3     1  UNL1        0.0224
      4 C         -22.6870   -9.6646   -9.9945 C.3     1  UNL1        0.0065
      5 C         -22.7012   -8.4646   -9.0369 C.3     1  UNL1        0.0277
      6 C         -22.4992   -7.1982   -9.8119 C.ar    1  UNL1       -0.0073
      7 C         -21.5850   -6.2188   -9.4035 C.ar    1  UNL1       -0.0015
      8 C         -21.3972   -5.0792  -10.1861 C.ar    1  UNL1        0.0203
      9 C         -22.1254   -4.9353  -11.3680 C.ar    1  UNL1        0.0985
     10 N         -23.0166   -5.8923  -11.7394 N.ar    1  UNL1       -0.2471
     11 C         -23.2321   -7.0095  -10.9937 C.ar    1  UNL1        0.0695
     12 C         -24.2784   -8.6202  -13.8578 C.3     1  UNL1        0.0725
     13 C         -23.3977   -7.8392  -14.8594 C.3     1  UNL1        0.0188
     14 C         -22.0100   -8.4773  -15.0916 C.3     1  UNL1        0.0185
     15 C         -21.9986   -9.4521  -16.2794 C.3     1  UNL1        0.0686
     16 N         -21.1731  -10.6305  -15.9736 N.3     1  UNL1       -0.2985
     17 H         -20.9796  -10.6011  -14.9440 H       1  UNL1        0.1232
     18 C         -24.8337  -14.4278  -14.7567 C.3     1  UNL1        0.0000
     19 C         -24.4491  -12.9549  -15.0131 C.3     1  UNL1        0.0001
     20 C         -25.5959  -12.0594  -14.4967 C.3     1  UNL1        0.0000
     21 C         -24.2628  -12.7406  -16.5489 C.3     1  UNL1        0.0014
     22 C         -23.2818  -11.6018  -16.8530 C.3     1  UNL1        0.0157
     23 C         -21.8533  -11.8967  -16.3129 C.3     1  UNL1        0.0540
     24 C         -21.8871  -12.8362  -15.0758 C.3     1  UNL1        0.0157
     25 C         -23.1444  -12.6109  -14.2286 C.3     1  UNL1        0.0014
     26 C         -26.3263   -7.9080  -12.6810 C.3     1  UNL1        0.0886
     27 C         -27.1491   -6.7208  -13.2771 C.3     1  UNL1        0.0748
     28 C         -26.2913   -5.7325  -14.1078 C.3     1  UNL1        0.0432
     29 C         -27.0861   -4.8946  -15.0758 C.ar    1  UNL1       -0.0235
     30 C         -26.4208   -3.9286  -15.8453 C.ar    1  UNL1       -0.0047
     31 C         -27.1230   -3.1543  -16.7712 C.ar    1  UNL1       -0.0022
     32 C         -28.5050   -3.3252  -16.9319 C.ar    1  UNL1        0.0067
     33 C         -29.1709   -4.3035  -16.1787 C.ar    1  UNL1       -0.0051
     34 C         -28.4655   -5.0981  -15.2614 C.ar    1  UNL1       -0.0105
     35 C         -29.1955   -6.1085  -14.4244 C.3     1  UNL1        0.0953
     36 N         -28.3055   -7.2107  -14.0459 N.3     1  UNL1       -0.2934
     37 H         -28.8655   -7.8505  -13.4344 H       1  UNL1        0.1236
     38 C         -29.2565   -2.5113  -17.9490 C.3     1  UNL1        0.1636
     39 O         -28.3585   -1.8950  -18.8303 O.3     1  UNL1       -0.3772
     40 H         -27.9572   -1.1316  -18.3383 H       1  UNL1        0.2109
@<TRIPOS>BOND
     1    18    19    1
     2    19    20    1
     3    19    21    1
     4    21    22    1
     5    22    23    1
     6    23    16    1
     7    16    15    1
     8    15    14    1
     9    14    13    1
    10    13    12    1
    11    12     1    1
    12     1    26    1
    13    26    27    1
    14    27    28    1
    15    28    29    1
    16    29    30   ar
    17    30    31   ar
    18    31    32   ar
    19    32    38    1
    20    38    39    1
    21    32    33   ar
    22    33    34   ar
    23    34    35    1
    24    35    36    1
    25     1     2    1
    26     2     3    1
    27     3     4    1
    28     4     5    1
    29     5     6    1
    30     6     7   ar
    31     7     8   ar
    32     8     9   ar
    33     9    10   ar
    34    10    11   ar
    35    23    24    1
    36    24    25    1
    37    25    19    1
    38    36    27    1
    39    11     2    1
    40    34    29   ar
    41    11     6   ar
    42    16    17    1
    43    39    40    1
    44    36    37    1
@<TRIPOS>MOLECULE
*****
 40 44 0 0 0
SMALL
GASTEIGER

@<TRIPOS>ATOM
      1 N         -23.3877   -7.3396  -12.1763 N.3     1  UNL1       -0.2679
      2 C         -24.7345   -7.4265  -11.4999 C.3     1  UNL1        0.0978
      3 C         -25.9613   -7.5972  -12.4527 C.3     1  UNL1        0.0224
      4 C         -27.3048   -7.9371  -11.7461 C.3     1  UNL1        0.0065
      5 C         -27.2063   -8.0586  -10.2187 C.3     1  UNL1        0.0277
      6 C         -25.9931   -8.8585   -9.8535 C.ar    1  UNL1       -0.0073
      7 C         -26.0468   -9.8974   -8.9157 C.ar    1  UNL1       -0.0015
      8 C         -24.9002  -10.6453   -8.6462 C.ar    1  UNL1        0.0203
      9 C         -23.7155  -10.3450   -9.3199 C.ar    1  UNL1        0.0985
     10 N         -23.6825   -9.3244  -10.2173 N.ar    1  UNL1       -0.2471
     11 C         -24.7789   -8.5684  -10.4945 C.ar    1  UNL1        0.0695
     12 C         -23.4785   -6.8679  -13.5914 C.3     1  UNL1        0.0725
     13 C         -23.3688   -8.0097  -14.6271 C.3     1  UNL1        0.0188
     14 C         -21.9256   -8.5206  -14.8345 C.3     1  UNL1        0.0185
     15 C         -21.6952   -9.9088  -14.2175 C.3     1  UNL1        0.0686
     16 N         -22.5484  -10.0972  -13.0343 N.3     1  UNL1       -0.2985
     17 H         -23.3778   -9.4689  -13.1606 H       1  UNL1        0.1232
     18 C         -25.6791  -14.1820  -14.7115 C.3     1  UNL1        0.0000
     19 C         -24.6132  -13.0982  -14.9805 C.3     1  UNL1        0.0001
     20 C         -24.4737  -12.9267  -16.5086 C.3     1  UNL1        0.0000
     21 C         -23.2516  -13.5665  -14.3756 C.3     1  UNL1        0.0014
     22 C         -22.3589  -12.3808  -13.9894 C.3     1  UNL1        0.0157
     23 C         -23.0042  -11.4941  -12.8864 C.3     1  UNL1        0.0540
     24 C         -24.5561  -11.5597  -12.9283 C.3     1  UNL1        0.0157
     25 C         -25.0761  -11.7437  -14.3584 C.3     1  UNL1        0.0014
     26 C         -22.4906   -6.4444  -11.3708 C.3     1  UNL1        0.0886
     27 C         -21.1937   -7.1160  -10.8152 C.3     1  UNL1        0.0748
     28 C         -21.0113   -6.9329   -9.2868 C.3     1  UNL1        0.0432
     29 C         -20.0894   -7.9429   -8.6539 C.ar    1  UNL1       -0.0235
     30 C         -19.8094   -7.8436   -7.2829 C.ar    1  UNL1       -0.0047
     31 C         -18.9811   -8.7793   -6.6598 C.ar    1  UNL1       -0.0022
     32 C         -18.4086   -9.8216   -7.4021 C.ar    1  UNL1        0.0067
     33 C         -18.7016   -9.9362   -8.7692 C.ar    1  UNL1       -0.0051
     34 C         -19.5500   -9.0097   -9.3955 C.ar    1  UNL1       -0.0105
     35 C         -19.8181   -9.1119  -10.8692 C.3     1  UNL1        0.0953
     36 N         -21.1247   -8.5353  -11.2013 N.3     1  UNL1       -0.2934
     37 H         -21.2256   -8.6031  -12.2416 H       1  UNL1        0.1236
     38 C         -17.5394  -10.8456   -6.7257 C.3     1  UNL1        0.1636
     39 O         -16.6142  -11.3692   -7.6383 O.3     1  UNL1       -0.3772
     40 H         -17.1146  -12.0008   -8.2185 H       1  UNL1        0.2109
@<TRIPOS>BOND
     1    18    19    1
     2    19    20    1
     3    19    21    1
     4    21    22    1
     5    22    23    1
     6    23    16    1
     7    16    15    1
     8    15    14    1
     9    14    13    1
    10    13    12    1
    11    12     1    1
    12     1    26    1
    13    26    27    1
    14    27    28    1
    15    28    29    1
    16    29    30   ar
    17    30    31   ar
    18    31    32   ar
    19    32    38    1
    20    38    39    1
    21    32    33   ar
    22    33    34   ar
    23    34    35    1
    24    35    36    1
    25     1     2    1
    26     2     3    1
    27     3     4    1
    28     4     5    1
    29     5     6    1
    30     6     7   ar
    31     7     8   ar
    32     8     9   ar
    33     9    10   ar
    34    10    11   ar
    35    23    24    1
    36    24    25    1
    37    25    19    1
    38    36    27    1
    39    11     2    1
    40    34    29   ar
    41    11     6   ar
    42    16    17    1
    43    39    40    1
    44    36    37    1
@<TRIPOS>MOLECULE
*****
 40 44 0 0 0
SMALL
GASTEIGER

@<TRIPOS>ATOM
      1 N         -24.6240   -7.2772  -12.8289 N.3     1  UNL1       -0.2679
      2 C         -24.1595   -7.6552  -11.4431 C.3     1  UNL1        0.0978
      3 C         -23.6351   -9.1182  -11.2799 C.3     1  UNL1        0.0224
      4 C         -22.9296   -9.4204   -9.9269 C.3     1  UNL1        0.0065
      5 C         -22.8548   -8.2236   -8.9681 C.3     1  UNL1        0.0277
      6 C         -22.4407   -6.9974   -9.7232 C.ar    1  UNL1       -0.0073
      7 C         -21.4384   -6.1409   -9.2503 C.ar    1  UNL1       -0.0015
      8 C         -21.0540   -5.0386  -10.0144 C.ar    1  UNL1        0.0203
      9 C         -21.6762   -4.8089  -11.2423 C.ar    1  UNL1        0.0985
     10 N         -22.6554   -5.6460  -11.6766 N.ar    1  UNL1       -0.2471
     11 C         -23.0619   -6.7225  -10.9511 C.ar    1  UNL1        0.0695
     12 C         -24.3044   -8.3185  -13.8521 C.3     1  UNL1        0.0725
     13 C         -23.1694   -7.9041  -14.8157 C.3     1  UNL1        0.0188
     14 C         -21.8566   -8.6894  -14.5997 C.3     1  UNL1        0.0185
     15 C         -22.0721  -10.2107  -14.5904 C.3     1  UNL1        0.0686
     16 N         -21.3705  -10.8396  -15.7199 N.3     1  UNL1       -0.2985
     17 H         -20.5824  -11.3957  -15.3102 H       1  UNL1        0.1232
     18 C         -24.7315  -15.0783  -15.9101 C.3     1  UNL1        0.0000
     19 C         -24.3154  -13.7090  -15.3314 C.3     1  UNL1        0.0001
     20 C         -25.1108  -13.4732  -14.0292 C.3     1  UNL1        0.0000
     21 C         -24.6609  -12.5948  -16.3699 C.3     1  UNL1        0.0014
     22 C         -23.7402  -11.3764  -16.2296 C.3     1  UNL1        0.0157
     23 C         -22.2505  -11.7310  -16.5023 C.3     1  UNL1        0.0540
     24 C         -21.9413  -13.2171  -16.1700 C.3     1  UNL1        0.0157
     25 C         -22.7906  -13.7234  -14.9988 C.3     1  UNL1        0.0014
     26 C         -26.0989   -6.9976  -12.7932 C.3     1  UNL1        0.0886
     27 C         -26.6858   -6.3191  -14.0726 C.3     1  UNL1        0.0748
     28 C         -28.2354   -6.3112  -14.1101 C.3     1  UNL1        0.0432
     29 C         -28.8213   -5.2705  -15.0291 C.ar    1  UNL1       -0.0235
     30 C         -30.2141   -5.2044  -15.1820 C.ar    1  UNL1       -0.0047
     31 C         -30.7908   -4.2344  -16.0046 C.ar    1  UNL1       -0.0022
     32 C         -29.9815   -3.3237  -16.6980 C.ar    1  UNL1        0.0067
     33 C         -28.5894   -3.3737  -16.5325 C.ar    1  UNL1       -0.0051
     34 C         -28.0065   -4.3341  -15.6908 C.ar    1  UNL1       -0.0105
     35 C         -26.5129   -4.4112  -15.5588 C.3     1  UNL1        0.0953
     36 N         -26.1341   -4.9662  -14.2555 N.3     1  UNL1       -0.2934
     37 H         -25.0886   -5.0289  -14.2499 H       1  UNL1        0.1236
     38 C         -30.6036   -2.2612  -17.5615 C.3     1  UNL1        0.1636
     39 O         -29.7009   -1.8594  -18.5548 O.3     1  UNL1       -0.3772
     40 H         -29.0314   -1.2761  -18.1103 H       1  UNL1        0.2109
@<TRIPOS>BOND
     1    18    19    1
     2    19    20    1
     3    19    21    1
     4    21    22    1
     5    22    23    1
     6    23    16    1
     7    16    15    1
     8    15    14    1
     9    14    13    1
    10    13    12    1
    11    12     1    1
    12     1    26    1
    13    26    27    1
    14    27    28    1
    15    28    29    1
    16    29    30   ar
    17    30    31   ar
    18    31    32   ar
    19    32    38    1
    20    38    39    1
    21    32    33   ar
    22    33    34   ar
    23    34    35    1
    24    35    36    1
    25     1     2    1
    26     2     3    1
    27     3     4    1
    28     4     5    1
    29     5     6    1
    30     6     7   ar
    31     7     8   ar
    32     8     9   ar
    33     9    10   ar
    34    10    11   ar
    35    23    24    1
    36    24    25    1
    37    25    19    1
    38    36    27    1
    39    11     2    1
    40    34    29   ar
    41    11     6   ar
    42    16    17    1
    43    39    40    1
    44    36    37    1
@<TRIPOS>MOLECULE
*****
 40 44 0 0 0
SMALL
GASTEIGER

@<TRIPOS>ATOM
      1 N         -21.1140   -9.3188  -12.1373 N.3     1  UNL1       -0.2679
      2 C         -22.4063   -8.7377  -12.6580 C.3     1  UNL1        0.0978
      3 C         -22.9403   -7.4823  -11.8959 C.3     1  UNL1        0.0224
      4 C         -24.1236   -6.7444  -12.5851 C.3     1  UNL1        0.0065
      5 C         -24.5730   -7.3675  -13.9144 C.3     1  UNL1        0.0277
      6 C         -23.3723   -7.7073  -14.7438 C.ar    1  UNL1       -0.0073
      7 C         -23.2896   -7.3669  -16.0999 C.ar    1  UNL1       -0.0015
      8 C         -22.1296   -7.6615  -16.8170 C.ar    1  UNL1        0.0203
      9 C         -21.0670   -8.2912  -16.1673 C.ar    1  UNL1        0.0985
     10 N         -21.1732   -8.6239  -14.8535 N.ar    1  UNL1       -0.2471
     11 C         -22.2940   -8.3617  -14.1285 C.ar    1  UNL1        0.0695
     12 C         -20.3113   -8.3348  -11.3493 C.3     1  UNL1        0.0725
     13 C         -20.0064   -8.8048   -9.9090 C.3     1  UNL1        0.0188
     14 C         -20.1947   -7.7007   -8.8448 C.3     1  UNL1        0.0185
     15 C         -19.8121   -8.1692   -7.4324 C.3     1  UNL1        0.0686
     16 N         -18.6141   -7.4594   -6.9585 N.3     1  UNL1       -0.2985
     17 H         -18.9334   -6.5132   -6.6404 H       1  UNL1        0.1232
     18 C         -18.1407   -8.3467   -1.6399 C.3     1  UNL1        0.0000
     19 C         -18.9850   -8.2962   -2.9312 C.3     1  UNL1        0.0001
     20 C         -20.4769   -8.3179   -2.5339 C.3     1  UNL1        0.0000
     21 C         -18.6526   -9.5491   -3.8024 C.3     1  UNL1        0.0014
     22 C         -18.8784   -9.2839   -5.2959 C.3     1  UNL1        0.0157
     23 C         -17.9513   -8.1597   -5.8399 C.3     1  UNL1        0.0540
     24 C         -17.5604   -7.1464   -4.7286 C.3     1  UNL1        0.0157
     25 C         -18.6845   -6.9722   -3.7011 C.3     1  UNL1        0.0014
     26 C         -21.4195  -10.5386  -11.3167 C.3     1  UNL1        0.0886
     27 C         -21.7950  -11.8192  -12.1296 C.3     1  UNL1        0.0748
     28 C         -23.3157  -11.9543  -12.3986 C.3     1  UNL1        0.0432
     29 C         -23.6558  -12.8584  -13.5553 C.ar    1  UNL1       -0.0235
     30 C         -25.0044  -13.0960  -13.8595 C.ar    1  UNL1       -0.0047
     31 C         -25.3540  -13.9066  -14.9415 C.ar    1  UNL1       -0.0022
     32 C         -24.3589  -14.5036  -15.7279 C.ar    1  UNL1        0.0067
     33 C         -23.0092  -14.2528  -15.4393 C.ar    1  UNL1       -0.0051
     34 C         -22.6533  -13.4222  -14.3651 C.ar    1  UNL1       -0.0105
     35 C         -21.2059  -13.1996  -14.0339 C.3     1  UNL1        0.0953
     36 N         -21.0163  -11.9027  -13.3766 N.3     1  UNL1       -0.2934
     37 H         -19.9985  -11.8338  -13.1393 H       1  UNL1        0.1236
     38 C         -24.7350  -15.3536  -16.9101 C.3     1  UNL1        0.1636
     39 O         -26.0654  -15.7771  -16.7940 O.3     1  UNL1       -0.3772
     40 H         -26.0738  -16.5031  -16.1166 H       1  UNL1        0.2109
@<TRIPOS>BOND
     1    18    19    1
     2    19    20    1
     3    19    21    1
     4    21    22    1
     5    22    23    1
     6    23    16    1
     7    16    15    1
     8    15    14    1
     9    14    13    1
    10    13    12    1
    11    12     1    1
    12     1    26    1
    13    26    27    1
    14    27    28    1
    15    28    29    1
    16    29    30   ar
    17    30    31   ar
    18    31    32   ar
    19    32    38    1
    20    38    39    1
    21    32    33   ar
    22    33    34   ar
    23    34    35    1
    24    35    36    1
    25     1     2    1
    26     2     3    1
    27     3     4    1
    28     4     5    1
    29     5     6    1
    30     6     7   ar
    31     7     8   ar
    32     8     9   ar
    33     9    10   ar
    34    10    11   ar
    35    23    24    1
    36    24    25    1
    37    25    19    1
    38    36    27    1
    39    11     2    1
    40    34    29   ar
    41    11     6   ar
    42    16    17    1
    43    39    40    1
    44    36    37    1
@<TRIPOS>MOLECULE
*****
 40 44 0 0 0
SMALL
GASTEIGER

@<TRIPOS>ATOM
      1 N         -21.8804  -12.3038  -13.9476 N.3     1  UNL1       -0.2679
      2 C         -22.7502  -13.1596  -14.8364 C.3     1  UNL1        0.0978
      3 C         -22.1543  -14.5489  -15.2324 C.3     1  UNL1        0.0224
      4 C         -23.1488  -15.5197  -15.9311 C.3     1  UNL1        0.0065
      5 C         -24.5653  -14.9561  -16.1126 C.3     1  UNL1        0.0277
      6 C         -25.0056  -14.2814  -14.8492 C.ar    1  UNL1       -0.0073
      7 C         -26.2670  -14.5146  -14.2870 C.ar    1  UNL1       -0.0015
      8 C         -26.6113  -13.9001  -13.0826 C.ar    1  UNL1        0.0203
      9 C         -25.6882  -13.0618  -12.4558 C.ar    1  UNL1        0.0985
     10 N         -24.4739  -12.8396  -13.0253 N.ar    1  UNL1       -0.2471
     11 C         -24.1112  -13.4135  -14.2041 C.ar    1  UNL1        0.0695
     12 C         -20.6404  -13.0067  -13.4986 C.3     1  UNL1        0.0725
     13 C         -20.3748  -12.8744  -11.9819 C.3     1  UNL1        0.0188
     14 C         -20.9594  -11.5860  -11.3614 C.3     1  UNL1        0.0185
     15 C         -19.8906  -10.7238  -10.6720 C.3     1  UNL1        0.0686
     16 N         -20.5021   -9.5364  -10.0557 N.3     1  UNL1       -0.2985
     17 H         -19.7141   -8.9007   -9.7849 H       1  UNL1        0.1232
     18 C         -23.1968   -5.0433  -11.4157 C.3     1  UNL1        0.0000
     19 C         -21.8858   -5.7774  -11.0617 C.3     1  UNL1        0.0001
     20 C         -20.8112   -4.7173  -10.7369 C.3     1  UNL1        0.0000
     21 C         -21.4339   -6.6274  -12.2915 C.3     1  UNL1        0.0014
     22 C         -20.6031   -7.8458  -11.8708 C.3     1  UNL1        0.0157
     23 C         -21.4128   -8.8297  -10.9789 C.3     1  UNL1        0.0540
     24 C         -22.5271   -8.0995  -10.1793 C.3     1  UNL1        0.0157
     25 C         -22.1112   -6.6729   -9.8034 C.3     1  UNL1        0.0014
     26 C         -21.5420  -11.0315  -14.6697 C.3     1  UNL1        0.0886
     27 C         -22.7187  -10.0158  -14.8298 C.3     1  UNL1        0.0748
     28 C         -23.6982  -10.0131  -13.6283 C.3     1  UNL1        0.0432
     29 C         -24.5205   -8.7560  -13.5104 C.ar    1  UNL1       -0.0235
     30 C         -25.4779   -8.6623  -12.4894 C.ar    1  UNL1       -0.0047
     31 C         -26.2375   -7.5008  -12.3353 C.ar    1  UNL1       -0.0022
     32 C         -26.0605   -6.4194  -13.2096 C.ar    1  UNL1        0.0067
     33 C         -25.0905   -6.5012  -14.2198 C.ar    1  UNL1       -0.0051
     34 C         -24.3105   -7.6591  -14.3656 C.ar    1  UNL1       -0.0105
     35 C         -23.3095   -7.7560  -15.4804 C.3     1  UNL1        0.0953
     36 N         -22.2151   -8.6627  -15.1193 N.3     1  UNL1       -0.2934
     37 H         -21.5821   -8.7136  -15.9521 H       1  UNL1        0.1236
     38 C         -26.8584   -5.1579  -13.0265 C.3     1  UNL1        0.1636
     39 O         -26.8724   -4.7897  -11.6748 O.3     1  UNL1       -0.3772
     40 H         -27.5092   -5.4015  -11.2209 H       1  UNL1        0.2109
@<TRIPOS>BOND
     1    18    19    1
     2    19    20    1
     3    19    21    1
     4    21    22    1
     5    22    23    1
     6    23    16    1
     7    16    15    1
     8    15    14    1
     9    14    13    1
    10    13    12    1
    11    12     1    1
    12     1    26    1
    13    26    27    1
    14    27    28    1
    15    28    29    1
    16    29    30   ar
    17    30    31   ar
    18    31    32   ar
    19    32    38    1
    20    38    39    1
    21    32    33   ar
    22    33    34   ar
    23    34    35    1
    24    35    36    1
    25     1     2    1
    26     2     3    1
    27     3     4    1
    28     4     5    1
    29     5     6    1
    30     6     7   ar
    31     7     8   ar
    32     8     9   ar
    33     9    10   ar
    34    10    11   ar
    35    23    24    1
    36    24    25    1
    37    25    19    1
    38    36    27    1
    39    11     2    1
    40    34    29   ar
    41    11     6   ar
    42    16    17    1
    43    39    40    1
    44    36    37    1
@<TRIPOS>MOLECULE
*****
 40 44 0 0 0
SMALL
GASTEIGER

@<TRIPOS>ATOM
      1 N         -21.7825   -8.5361   -9.9413 N.3     1  UNL1       -0.2679
      2 C         -20.3905   -8.9835   -9.5654 C.3     1  UNL1        0.0978
      3 C         -20.0770   -9.0078   -8.0347 C.3     1  UNL1        0.0224
      4 C         -18.7414   -9.7032   -7.6445 C.3     1  UNL1        0.0065
      5 C         -17.9463  -10.2637   -8.8323 C.3     1  UNL1        0.0277
      6 C         -18.8723  -10.9836   -9.7646 C.ar    1  UNL1       -0.0073
      7 C         -18.5713  -12.2542  -10.2713 C.ar    1  UNL1       -0.0015
      8 C         -19.4890  -12.9044  -11.0970 C.ar    1  UNL1        0.0203
      9 C         -20.6965  -12.2754  -11.4033 C.ar    1  UNL1        0.0985
     10 N         -20.9633  -11.0368  -10.9107 N.ar    1  UNL1       -0.2471
     11 C         -20.0857  -10.3705  -10.1128 C.ar    1  UNL1        0.0695
     12 C         -22.7633   -8.6914   -8.8244 C.3     1  UNL1        0.0725
     13 C         -23.7315   -9.8803   -9.0188 C.3     1  UNL1        0.0188
     14 C         -24.6976   -9.7030  -10.2113 C.3     1  UNL1        0.0185
     15 C         -24.4401  -10.7168  -11.3369 C.3     1  UNL1        0.0686
     16 N         -23.3624  -10.2461  -12.2204 N.3     1  UNL1       -0.2985
     17 H         -22.4780  -10.6912  -11.8766 H       1  UNL1        0.1232
     18 C         -24.6659  -13.9986  -15.8972 C.3     1  UNL1        0.0000
     19 C         -24.9769  -13.1996  -14.6136 C.3     1  UNL1        0.0001
     20 C         -26.1230  -13.9145  -13.8655 C.3     1  UNL1        0.0000
     21 C         -25.4253  -11.7575  -15.0115 C.3     1  UNL1        0.0014
     22 C         -25.1139  -10.7370  -13.9098 C.3     1  UNL1        0.0157
     23 C         -23.5882  -10.6202  -13.6311 C.3     1  UNL1        0.0540
     24 C         -22.8386  -11.9402  -13.9631 C.3     1  UNL1        0.0157
     25 C         -23.7140  -13.1700  -13.6971 C.3     1  UNL1        0.0014
     26 C         -21.7299   -7.1113  -10.4124 C.3     1  UNL1        0.0886
     27 C         -22.1480   -6.8791  -11.9000 C.3     1  UNL1        0.0748
     28 C         -21.1795   -7.5292  -12.9209 C.3     1  UNL1        0.0432
     29 C         -21.7849   -7.7553  -14.2822 C.ar    1  UNL1       -0.0235
     30 C         -20.9850   -8.2918  -15.3021 C.ar    1  UNL1       -0.0047
     31 C         -21.5220   -8.5393  -16.5671 C.ar    1  UNL1       -0.0022
     32 C         -22.8652   -8.2408  -16.8354 C.ar    1  UNL1        0.0067
     33 C         -23.6738   -7.7225  -15.8129 C.ar    1  UNL1       -0.0051
     34 C         -23.1434   -7.4912  -14.5340 C.ar    1  UNL1       -0.0105
     35 C         -24.0038   -6.8903  -13.4604 C.3     1  UNL1        0.0953
     36 N         -23.5397   -7.3008  -12.1314 N.3     1  UNL1       -0.2934
     37 H         -24.1551   -6.8153  -11.4368 H       1  UNL1        0.1236
     38 C         -23.4512   -8.5334  -18.1891 C.3     1  UNL1        0.1636
     39 O         -23.7497   -9.8979  -18.2991 O.3     1  UNL1       -0.3772
     40 H         -22.8856  -10.3669  -18.4383 H       1  UNL1        0.2109
@<TRIPOS>BOND
     1    18    19    1
     2    19    20    1
     3    19    21    1
     4    21    22    1
     5    22    23    1
     6    23    16    1
     7    16    15    1
     8    15    14    1
     9    14    13    1
    10    13    12    1
    11    12     1    1
    12     1    26    1
    13    26    27    1
    14    27    28    1
    15    28    29    1
    16    29    30   ar
    17    30    31   ar
    18    31    32   ar
    19    32    38    1
    20    38    39    1
    21    32    33   ar
    22    33    34   ar
    23    34    35    1
    24    35    36    1
    25     1     2    1
    26     2     3    1
    27     3     4    1
    28     4     5    1
    29     5     6    1
    30     6     7   ar
    31     7     8   ar
    32     8     9   ar
    33     9    10   ar
    34    10    11   ar
    35    23    24    1
    36    24    25    1
    37    25    19    1
    38    36    27    1
    39    11     2    1
    40    34    29   ar
    41    11     6   ar
    42    16    17    1
    43    39    40    1
    44    36    37    1
@<TRIPOS>MOLECULE
*****
 40 44 0 0 0
SMALL
GASTEIGER

@<TRIPOS>ATOM
      1 N         -24.0270   -8.2886  -13.4291 N.3     1  UNL1       -0.2679
      2 C         -25.5185   -8.2637  -13.1972 C.3     1  UNL1        0.0978
      3 C         -25.9713   -8.2422  -11.7017 C.3     1  UNL1        0.0224
      4 C         -27.4845   -7.9636  -11.4732 C.3     1  UNL1        0.0065
      5 C         -28.2919   -7.7455  -12.7607 C.3     1  UNL1        0.0277
      6 C         -27.5367   -6.8364  -13.6819 C.ar    1  UNL1       -0.0073
      7 C         -28.1520   -5.7512  -14.3187 C.ar    1  UNL1       -0.0015
      8 C         -27.3943   -4.9046  -15.1283 C.ar    1  UNL1        0.0203
      9 C         -26.0306   -5.1538  -15.2888 C.ar    1  UNL1        0.0985
     10 N         -25.4560   -6.2200  -14.6713 N.ar    1  UNL1       -0.2471
     11 C         -26.1681   -7.0714  -13.8849 C.ar    1  UNL1        0.0695
     12 C         -23.6360   -7.7158  -14.7529 C.3     1  UNL1        0.0725
     13 C         -22.1144   -7.7667  -15.0185 C.3     1  UNL1        0.0188
     14 C         -21.7360   -8.5345  -16.3047 C.3     1  UNL1        0.0185
     15 C         -22.8107   -9.5487  -16.7259 C.3     1  UNL1        0.0686
     16 N         -22.2761  -10.9182  -16.6799 N.3     1  UNL1       -0.2985
     17 H         -21.2379  -10.8381  -16.7990 H       1  UNL1        0.1232
     18 C         -25.4851  -14.1588  -13.7643 C.3     1  UNL1        0.0000
     19 C         -24.6172  -13.8830  -15.0108 C.3     1  UNL1        0.0001
     20 C         -24.9408  -14.9572  -16.0717 C.3     1  UNL1        0.0000
     21 C         -23.1108  -13.9751  -14.6090 C.3     1  UNL1        0.0014
     22 C         -22.2240  -13.1075  -15.5106 C.3     1  UNL1        0.0157
     23 C         -22.5764  -11.5964  -15.4028 C.3     1  UNL1        0.0540
     24 C         -24.0653  -11.3776  -15.0160 C.3     1  UNL1        0.0157
     25 C         -24.9664  -12.4765  -15.5904 C.3     1  UNL1        0.0014
     26 C         -23.3435   -7.5596  -12.3083 C.3     1  UNL1        0.0886
     27 C         -22.4512   -8.4422  -11.3775 C.3     1  UNL1        0.0748
     28 C         -22.3415   -9.9159  -11.8457 C.3     1  UNL1        0.0432
     29 C         -21.1439  -10.6465  -11.2955 C.ar    1  UNL1       -0.0235
     30 C         -20.9696  -12.0022  -11.6113 C.ar    1  UNL1       -0.0047
     31 C         -19.8564  -12.7015  -11.1404 C.ar    1  UNL1       -0.0022
     32 C         -18.9068  -12.0583  -10.3343 C.ar    1  UNL1        0.0067
     33 C         -19.0669  -10.6978  -10.0323 C.ar    1  UNL1       -0.0051
     34 C         -20.1737   -9.9856  -10.5204 C.ar    1  UNL1       -0.0105
     35 C         -20.3620   -8.5426  -10.1510 C.3     1  UNL1        0.0953
     36 N         -21.1230   -7.8359  -11.1861 N.3     1  UNL1       -0.2934
     37 H         -21.2509   -6.8539  -10.8451 H       1  UNL1        0.1236
     38 C         -17.6935  -12.8035   -9.8505 C.3     1  UNL1        0.1636
     39 O         -17.4922  -13.9513  -10.6284 O.3     1  UNL1       -0.3772
     40 H         -18.1675  -14.6163  -10.3324 H       1  UNL1        0.2109
@<TRIPOS>BOND
     1    18    19    1
     2    19    20    1
     3    19    21    1
     4    21    22    1
     5    22    23    1
     6    23    16    1
     7    16    15    1
     8    15    14    1
     9    14    13    1
    10    13    12    1
    11    12     1    1
    12     1    26    1
    13    26    27    1
    14    27    28    1
    15    28    29    1
    16    29    30   ar
    17    30    31   ar
    18    31    32   ar
    19    32    38    1
    20    38    39    1
    21    32    33   ar
    22    33    34   ar
    23    34    35    1
    24    35    36    1
    25     1     2    1
    26     2     3    1
    27     3     4    1
    28     4     5    1
    29     5     6    1
    30     6     7   ar
    31     7     8   ar
    32     8     9   ar
    33     9    10   ar
    34    10    11   ar
    35    23    24    1
    36    24    25    1
    37    25    19    1
    38    36    27    1
    39    11     2    1
    40    34    29   ar
    41    11     6   ar
    42    16    17    1
    43    39    40    1
    44    36    37    1
