@<TRIPOS>MOLECULE
*****
 44 48 0 0 0
SMALL
GASTEIGER

@<TRIPOS>ATOM
      1 C          -8.4851  -17.0217   21.4947 C.3     1  UNL1        0.1562
      2 C          -9.6640  -17.9903   21.6224 C.3     1  UNL1        0.0622
      3 C         -10.0623  -18.0153   23.1143 C.3     1  UNL1        0.1294
      4 O          -9.3686  -19.0704   23.7369 O.3     1  UNL1       -0.3808
      5 C          -9.5350  -16.6568   23.6387 C.3     1  UNL1        0.1264
      6 N          -8.4901  -16.2350   22.7180 N.am    1  UNL1       -0.2544
      7 C          -7.8163  -14.9657   22.8278 C.2     1  UNL1        0.3081
      8 O          -7.3197  -14.4280   21.8019 O.2     1  UNL1       -0.2522
      9 N          -7.7445  -14.2703   24.0791 N.am    1  UNL1       -0.2681
     10 H          -9.5978  -19.0566   24.7036 H       1  UNL1        0.2107
     11 H          -7.9313  -13.2422   24.0790 H       1  UNL1        0.1564
     12 C         -11.5729  -18.2202   23.3311 C.ar    1  UNL1        0.0310
     13 C         -12.4943  -17.9047   22.3058 C.ar    1  UNL1        0.0026
     14 C         -13.8701  -18.0351   22.5105 C.ar    1  UNL1        0.0295
     15 C         -14.3586  -18.4413   23.7510 C.ar    1  UNL1        0.1424
     16 F         -15.6945  -18.5612   23.9487 F       1  UNL1       -0.2041
     17 C         -13.4724  -18.6926   24.7978 C.ar    1  UNL1        0.0590
     18 C         -12.0930  -18.5639   24.6038 C.ar    1  UNL1        0.1406
     19 F         -11.2804  -18.7451   25.6742 F       1  UNL1       -0.2044
     20 C          -7.3280  -14.8917   25.3045 C.ar    1  UNL1        0.0516
     21 C          -5.9688  -15.1679   25.5139 C.ar    1  UNL1        0.0156
     22 C          -5.5455  -15.7701   26.7027 C.ar    1  UNL1        0.0127
     23 C          -6.4791  -16.1139   27.6860 C.ar    1  UNL1        0.0578
     24 CL         -5.9471  -16.8694   29.1769 Cl      1  UNL1       -0.0822
     25 C          -7.8385  -15.8631   27.4750 C.ar    1  UNL1        0.0127
     26 C          -8.2635  -15.2605   26.2876 C.ar    1  UNL1        0.0156
     27 O          -7.0850  -18.6402   20.4414 O.2     1  UNL1       -0.2729
     28 C          -7.1694  -17.7391   21.3188 C.2     1  UNL1        0.2454
     29 N          -6.0461  -17.4378   22.1657 N.am    1  UNL1       -0.2662
     30 H          -6.2009  -16.7880   22.9664 H       1  UNL1        0.1564
     31 C          -4.7135  -17.9357   21.9514 C.ar    1  UNL1        0.1623
     32 N          -4.3665  -18.5013   20.7615 N.ar    1  UNL1       -0.2205
     33 C          -3.1131  -18.9665   20.5176 C.ar    1  UNL1        0.1693
     34 C          -2.1200  -18.8705   21.5031 C.ar    1  UNL1        0.2488
     35 C          -2.4541  -18.2962   22.7374 C.ar    1  UNL1        0.1032
     36 C          -3.7482  -17.8246   22.9649 C.ar    1  UNL1        0.1776
     37 F          -4.0564  -17.2678   24.1632 F       1  UNL1       -0.2010
     38 N          -0.7883  -19.3680   21.2606 N.am    1  UNL1       -0.0841
     39 C          -0.4743  -20.6380   21.6643 C.2     1  UNL1        0.2905
     40 C           0.8003  -21.1624   21.4410 C.2     1  UNL1        0.0758
     41 C           1.7597  -20.3810   20.8025 C.2     1  UNL1        0.0161
     42 C           1.4392  -19.0867   20.3985 C.2     1  UNL1        0.1156
     43 C           0.1548  -18.5859   20.6383 C.2     1  UNL1        0.4230
     44 O          -0.1157  -17.4042   20.2887 O.2     1  UNL1       -0.2135
@<TRIPOS>BOND
     1    27    28    2
     2    28    29   am
     3    29    31    1
     4    31    32   ar
     5    32    33   ar
     6    33    34   ar
     7    34    38    1
     8    38    39    1
     9    39    40    2
    10    40    41    1
    11    41    42    2
    12    42    43    1
    13    43    44    2
    14    34    35   ar
    15    35    36   ar
    16    36    37    1
    17    28     1    1
    18     1     2    1
    19     2     3    1
    20     3     4    1
    21     3    12    1
    22    12    13   ar
    23    13    14   ar
    24    14    15   ar
    25    15    16    1
    26    15    17   ar
    27    17    18   ar
    28    18    19    1
    29     3     5    1
    30     5     6    1
    31     6     7   am
    32     7     8    2
    33     7     9   am
    34     9    20    1
    35    20    21   ar
    36    21    22   ar
    37    22    23   ar
    38    23    24    1
    39    23    25   ar
    40    25    26   ar
    41    36    31   ar
    42     6     1    1
    43    26    20   ar
    44    43    38    1
    45    18    12   ar
    46    29    30    1
    47     4    10    1
    48     9    11    1
@<TRIPOS>MOLECULE
*****
 44 48 0 0 0
SMALL
GASTEIGER

@<TRIPOS>ATOM
      1 C          -6.9806  -17.3965   21.2076 C.3     1  UNL1        0.1562
      2 C          -8.2222  -18.2859   21.0990 C.3     1  UNL1        0.0622
      3 C          -8.9893  -18.1472   22.4321 C.3     1  UNL1        0.1294
      4 O          -8.5590  -19.1725   23.2956 O.3     1  UNL1       -0.3808
      5 C          -8.5132  -16.7740   22.9670 C.3     1  UNL1        0.1264
      6 N          -7.2391  -16.4971   22.3210 N.am    1  UNL1       -0.2544
      7 C          -6.5225  -15.2599   22.5024 C.2     1  UNL1        0.3081
      8 O          -5.7413  -14.8495   21.6027 O.2     1  UNL1       -0.2522
      9 N          -6.7210  -14.4526   23.6700 N.am    1  UNL1       -0.2681
     10 H          -9.0260  -19.0543   24.1646 H       1  UNL1        0.2107
     11 H          -6.8240  -13.4210   23.5399 H       1  UNL1        0.1564
     12 C         -10.5162  -18.2517   22.2621 C.ar    1  UNL1        0.0310
     13 C         -11.1063  -18.1238   20.9834 C.ar    1  UNL1        0.0026
     14 C         -12.4938  -18.1624   20.8248 C.ar    1  UNL1        0.0295
     15 C         -13.3231  -18.2868   21.9380 C.ar    1  UNL1        0.1424
     16 F         -14.6695  -18.3179   21.7817 F       1  UNL1       -0.2041
     17 C         -12.7668  -18.3463   23.2151 C.ar    1  UNL1        0.0590
     18 C         -11.3788  -18.3073   23.3851 C.ar    1  UNL1        0.1406
     19 F         -10.8931  -18.2908   24.6512 F       1  UNL1       -0.2044
     20 C          -6.6794  -14.9747   25.0068 C.ar    1  UNL1        0.0516
     21 C          -7.8527  -15.0063   25.7748 C.ar    1  UNL1        0.0156
     22 C          -7.8307  -15.5140   27.0774 C.ar    1  UNL1        0.0127
     23 C          -6.6327  -15.9813   27.6279 C.ar    1  UNL1        0.0578
     24 CL         -6.6060  -16.6180   29.2621 Cl      1  UNL1       -0.0822
     25 C          -5.4541  -15.9318   26.8770 C.ar    1  UNL1        0.0127
     26 C          -5.4742  -15.4253   25.5744 C.ar    1  UNL1        0.0156
     27 O          -5.8259  -19.3897   21.8270 O.2     1  UNL1       -0.2729
     28 C          -5.7213  -18.1949   21.4388 C.2     1  UNL1        0.2454
     29 N          -4.4254  -17.5941   21.2676 N.am    1  UNL1       -0.2662
     30 H          -4.3850  -16.5687   21.0823 H       1  UNL1        0.1564
     31 C          -3.1855  -18.3234   21.2872 C.ar    1  UNL1        0.1623
     32 N          -3.0098  -19.4158   20.4922 N.ar    1  UNL1       -0.2205
     33 C          -1.8466  -20.1185   20.4718 C.ar    1  UNL1        0.1693
     34 C          -0.7707  -19.7270   21.2815 C.ar    1  UNL1        0.2488
     35 C          -0.9290  -18.6085   22.1115 C.ar    1  UNL1        0.1032
     36 C          -2.1329  -17.9019   22.1153 C.ar    1  UNL1        0.1776
     37 F          -2.2705  -16.8189   22.9210 F       1  UNL1       -0.2010
     38 N           0.4660  -20.4688   21.2759 N.am    1  UNL1       -0.0841
     39 C           0.4199  -21.8303   21.4130 C.2     1  UNL1        0.2905
     40 C           1.5927  -22.5878   21.4037 C.2     1  UNL1        0.0758
     41 C           2.8201  -21.9473   21.2554 C.2     1  UNL1        0.0161
     42 C           2.8643  -20.5611   21.1225 C.2     1  UNL1        0.1156
     43 C           1.6732  -19.8269   21.1386 C.2     1  UNL1        0.4230
     44 O           1.7285  -18.5702   21.0409 O.2     1  UNL1       -0.2135
@<TRIPOS>BOND
     1    27    28    2
     2    28    29   am
     3    29    31    1
     4    31    32   ar
     5    32    33   ar
     6    33    34   ar
     7    34    38    1
     8    38    39    1
     9    39    40    2
    10    40    41    1
    11    41    42    2
    12    42    43    1
    13    43    44    2
    14    34    35   ar
    15    35    36   ar
    16    36    37    1
    17    28     1    1
    18     1     2    1
    19     2     3    1
    20     3     4    1
    21     3    12    1
    22    12    13   ar
    23    13    14   ar
    24    14    15   ar
    25    15    16    1
    26    15    17   ar
    27    17    18   ar
    28    18    19    1
    29     3     5    1
    30     5     6    1
    31     6     7   am
    32     7     8    2
    33     7     9   am
    34     9    20    1
    35    20    21   ar
    36    21    22   ar
    37    22    23   ar
    38    23    24    1
    39    23    25   ar
    40    25    26   ar
    41    36    31   ar
    42     6     1    1
    43    26    20   ar
    44    43    38    1
    45    18    12   ar
    46    29    30    1
    47     4    10    1
    48     9    11    1
