@<TRIPOS>MOLECULE
*****
 50 55 0 0 0
SMALL
GASTEIGER

@<TRIPOS>ATOM
      1 O         -61.9899  -45.2045  -28.1962 O.2     1  UNL1       -0.2701
      2 C         -62.6782  -44.1502  -28.1237 C.2     1  UNL1        0.2483
      3 N         -63.3350  -43.6367  -29.2986 N.am    1  UNL1       -0.2945
      4 H         -63.9396  -42.7900  -29.2070 H       1  UNL1        0.1501
      5 C         -62.8109  -43.4603  -26.8197 C.ar    1  UNL1        0.0808
      6 C         -62.3501  -44.0693  -25.6407 C.ar    1  UNL1        0.0080
      7 C         -62.4756  -43.4206  -24.4097 C.ar    1  UNL1        0.0148
      8 C         -63.0665  -42.1479  -24.3279 C.ar    1  UNL1        0.0502
      9 C         -63.5381  -41.5441  -25.5059 C.ar    1  UNL1        0.0443
     10 C         -63.4144  -42.1911  -26.7393 C.ar    1  UNL1        0.1457
     11 F         -63.8585  -41.5607  -27.8566 F       1  UNL1       -0.2040
     12 N         -63.1997  -41.4776  -23.0548 N.pl3   1  UNL1       -0.3040
     13 C         -62.0319  -41.3275  -22.1714 C.3     1  UNL1        0.1123
     14 C         -62.1200  -40.0214  -21.3730 C.3     1  UNL1        0.1136
     15 N         -63.4441  -39.8488  -20.7634 N.pl3   1  UNL1       -0.2894
     16 C         -64.5353  -40.7754  -21.0838 C.3     1  UNL1        0.1136
     17 C         -64.5367  -41.0758  -22.5843 C.3     1  UNL1        0.1123
     18 C         -63.7014  -38.6678  -19.9896 C.ar    1  UNL1        0.1371
     19 N         -63.2356  -37.4697  -20.4362 N.ar    1  UNL1       -0.2288
     20 C         -63.4516  -36.3103  -19.7620 C.ar    1  UNL1        0.1042
     21 C         -64.1862  -36.3131  -18.5673 C.ar    1  UNL1        0.0910
     22 C         -64.6378  -37.5429  -18.0657 C.ar    1  UNL1        0.0140
     23 C         -64.4054  -38.7261  -18.7727 C.ar    1  UNL1        0.0616
     24 I         -65.0430  -40.5508  -17.9057 I       1  UNL1       -0.0396
     25 C         -64.3887  -35.0414  -17.7838 C.3     1  UNL1        0.4200
     26 F         -65.4268  -34.2980  -18.3185 F       1  UNL1       -0.1658
     27 F         -64.6945  -35.3257  -16.4641 F       1  UNL1       -0.1658
     28 F         -63.2286  -34.2909  -17.8261 F       1  UNL1       -0.1658
     29 C         -63.3235  -44.3007  -30.6119 C.3     1  UNL1        0.1535
     30 C         -64.5283  -45.1934  -30.7975 C.2     1  UNL1        0.2443
     31 O         -65.6913  -44.7051  -30.7639 O.2     1  UNL1       -0.2730
     32 N         -64.3493  -46.6134  -30.9214 N.am    1  UNL1       -0.2825
     33 H         -63.4520  -47.0233  -30.5758 H       1  UNL1        0.1549
     34 C         -65.3645  -47.5132  -31.3982 C.ar    1  UNL1        0.0535
     35 C         -65.7920  -48.5669  -30.5786 C.ar    1  UNL1        0.0353
     36 C         -66.7613  -49.4575  -31.0462 C.ar    1  UNL1        0.1002
     37 N         -67.2748  -49.3120  -32.2961 N.ar    1  UNL1       -0.2422
     38 C         -66.8666  -48.3121  -33.1213 C.ar    1  UNL1        0.1002
     39 C         -65.8999  -47.3988  -32.6926 C.ar    1  UNL1        0.0353
     40 C         -63.1991  -43.2777  -31.7606 C.3     1  UNL1        0.0569
     41 C         -61.9647  -43.5205  -32.5803 C.ar    1  UNL1       -0.0017
     42 C         -61.8074  -43.2648  -33.9396 C.ar    1  UNL1        0.0681
     43 N         -60.5378  -43.5267  -34.3251 N.ar    1  UNL1       -0.3523
     44 C         -59.8906  -43.9351  -33.2196 C.ar    1  UNL1        0.0563
     45 C         -58.5492  -44.2999  -33.1117 C.ar    1  UNL1        0.0170
     46 C         -58.0708  -44.6788  -31.8439 C.ar    1  UNL1        0.0015
     47 C         -58.9331  -44.6811  -30.7247 C.ar    1  UNL1        0.0001
     48 C         -60.2819  -44.3059  -30.8631 C.ar    1  UNL1        0.0012
     49 C         -60.7277  -43.9400  -32.1332 C.ar    1  UNL1        0.0131
     50 H         -60.1408  -43.4169  -35.2846 H       1  UNL1        0.1660
@<TRIPOS>BOND
     1     1     2    2
     2     2     3   am
     3     3    29    1
     4    29    40    1
     5    40    41    1
     6    41    42   ar
     7    42    43   ar
     8    43    44   ar
     9    44    45   ar
    10    45    46   ar
    11    46    47   ar
    12    47    48   ar
    13    48    49   ar
    14    29    30    1
    15    30    31    2
    16    30    32   am
    17    32    34    1
    18    34    35   ar
    19    35    36   ar
    20    36    37   ar
    21    37    38   ar
    22    38    39   ar
    23     2     5    1
    24     5     6   ar
    25     6     7   ar
    26     7     8   ar
    27     8    12    1
    28    12    13    1
    29    13    14    1
    30    14    15    1
    31    15    18    1
    32    18    19   ar
    33    19    20   ar
    34    20    21   ar
    35    21    25    1
    36    25    26    1
    37    25    27    1
    38    25    28    1
    39    21    22   ar
    40    22    23   ar
    41    23    24    1
    42    15    16    1
    43    16    17    1
    44     8     9   ar
    45     9    10   ar
    46    10    11    1
    47    49    41   ar
    48    39    34   ar
    49    10     5   ar
    50    49    44   ar
    51    17    12    1
    52    23    18   ar
    53     3     4    1
    54    43    50    1
    55    32    33    1
@<TRIPOS>MOLECULE
*****
 50 55 0 0 0
SMALL
GASTEIGER

@<TRIPOS>ATOM
      1 O         -63.8474  -53.6291  -22.6820 O.2     1  UNL1       -0.2701
      2 C         -64.5521  -52.8735  -23.4049 C.2     1  UNL1        0.2483
      3 N         -65.9211  -53.2206  -23.6895 N.am    1  UNL1       -0.2945
      4 H         -66.5019  -52.5574  -24.2497 H       1  UNL1        0.1501
      5 C         -63.9601  -51.6266  -23.9422 C.ar    1  UNL1        0.0808
      6 C         -64.6329  -50.8845  -24.9271 C.ar    1  UNL1        0.0080
      7 C         -64.0754  -49.7089  -25.4360 C.ar    1  UNL1        0.0148
      8 C         -62.8309  -49.2478  -24.9734 C.ar    1  UNL1        0.0502
      9 C         -62.1527  -49.9966  -23.9966 C.ar    1  UNL1        0.0443
     10 C         -62.7077  -51.1739  -23.4859 C.ar    1  UNL1        0.1457
     11 F         -62.0320  -51.8525  -22.5236 F       1  UNL1       -0.2040
     12 N         -62.2520  -48.0338  -25.5014 N.pl3   1  UNL1       -0.3040
     13 C         -61.1820  -48.1017  -26.5100 C.3     1  UNL1        0.1123
     14 C         -61.2679  -46.9115  -27.4728 C.3     1  UNL1        0.1136
     15 N         -61.4249  -45.6428  -26.7514 N.pl3   1  UNL1       -0.2894
     16 C         -61.6425  -45.6359  -25.3007 C.3     1  UNL1        0.1136
     17 C         -62.6361  -46.7357  -24.9201 C.3     1  UNL1        0.1123
     18 C         -61.5348  -44.4266  -27.5053 C.ar    1  UNL1        0.1371
     19 N         -60.6313  -43.4317  -27.2916 N.ar    1  UNL1       -0.2288
     20 C         -60.6675  -42.2592  -27.9766 C.ar    1  UNL1        0.1042
     21 C         -61.6505  -42.0403  -28.9527 C.ar    1  UNL1        0.0910
     22 C         -62.6184  -43.0347  -29.1582 C.ar    1  UNL1        0.0140
     23 C         -62.5660  -44.2346  -28.4433 C.ar    1  UNL1        0.0616
     24 I         -64.1136  -45.6488  -28.7482 I       1  UNL1       -0.0396
     25 C         -61.7322  -40.7242  -29.6830 C.3     1  UNL1        0.4200
     26 F         -60.8022  -39.8292  -29.1828 F       1  UNL1       -0.1658
     27 F         -61.4817  -40.8997  -31.0330 F       1  UNL1       -0.1658
     28 F         -62.9988  -40.1935  -29.5248 F       1  UNL1       -0.1658
     29 C         -66.6119  -54.3945  -23.1322 C.3     1  UNL1        0.1535
     30 C         -67.9516  -54.0252  -22.5390 C.2     1  UNL1        0.2443
     31 O         -68.5892  -53.0303  -22.9815 O.2     1  UNL1       -0.2730
     32 N         -68.4550  -54.7556  -21.4090 N.am    1  UNL1       -0.2825
     33 H         -67.7706  -55.3013  -20.8376 H       1  UNL1        0.1549
     34 C         -69.8199  -54.7016  -20.9599 C.ar    1  UNL1        0.0535
     35 C         -70.1698  -53.8285  -19.9208 C.ar    1  UNL1        0.0353
     36 C         -71.4898  -53.7891  -19.4653 C.ar    1  UNL1        0.1002
     37 N         -72.4260  -54.6057  -20.0164 N.ar    1  UNL1       -0.2422
     38 C         -72.1134  -55.4767  -21.0120 C.ar    1  UNL1        0.1002
     39 C         -70.8053  -55.5473  -21.4978 C.ar    1  UNL1        0.0353
     40 C         -66.7515  -55.5179  -24.1809 C.3     1  UNL1        0.0569
     41 C         -67.4693  -55.0362  -25.4087 C.ar    1  UNL1       -0.0017
     42 C         -66.8845  -54.5749  -26.5848 C.ar    1  UNL1        0.0681
     43 N         -67.8341  -54.3039  -27.5090 N.ar    1  UNL1       -0.3523
     44 C         -69.0111  -54.5999  -26.9303 C.ar    1  UNL1        0.0563
     45 C         -70.2804  -54.5029  -27.4989 C.ar    1  UNL1        0.0170
     46 C         -71.3833  -54.8875  -26.7144 C.ar    1  UNL1        0.0015
     47 C         -71.1945  -55.3582  -25.3957 C.ar    1  UNL1        0.0001
     48 C         -69.9015  -55.4474  -24.8488 C.ar    1  UNL1        0.0012
     49 C         -68.8287  -55.0545  -25.6493 C.ar    1  UNL1        0.0131
     50 H         -67.6788  -53.9518  -28.4796 H       1  UNL1        0.1660
@<TRIPOS>BOND
     1     1     2    2
     2     2     3   am
     3     3    29    1
     4    29    40    1
     5    40    41    1
     6    41    42   ar
     7    42    43   ar
     8    43    44   ar
     9    44    45   ar
    10    45    46   ar
    11    46    47   ar
    12    47    48   ar
    13    48    49   ar
    14    29    30    1
    15    30    31    2
    16    30    32   am
    17    32    34    1
    18    34    35   ar
    19    35    36   ar
    20    36    37   ar
    21    37    38   ar
    22    38    39   ar
    23     2     5    1
    24     5     6   ar
    25     6     7   ar
    26     7     8   ar
    27     8    12    1
    28    12    13    1
    29    13    14    1
    30    14    15    1
    31    15    18    1
    32    18    19   ar
    33    19    20   ar
    34    20    21   ar
    35    21    25    1
    36    25    26    1
    37    25    27    1
    38    25    28    1
    39    21    22   ar
    40    22    23   ar
    41    23    24    1
    42    15    16    1
    43    16    17    1
    44     8     9   ar
    45     9    10   ar
    46    10    11    1
    47    49    41   ar
    48    39    34   ar
    49    10     5   ar
    50    49    44   ar
    51    17    12    1
    52    23    18   ar
    53     3     4    1
    54    43    50    1
    55    32    33    1
@<TRIPOS>MOLECULE
*****
 50 55 0 0 0
SMALL
GASTEIGER

@<TRIPOS>ATOM
      1 O         -60.6016  -47.1926  -24.4751 O.2     1  UNL1       -0.2701
      2 C         -61.6260  -46.4790  -24.6536 C.2     1  UNL1        0.2483
      3 N         -62.5871  -46.8388  -25.6648 N.am    1  UNL1       -0.2945
      4 H         -63.4524  -46.2624  -25.7637 H       1  UNL1        0.1501
      5 C         -61.8314  -45.2819  -23.8058 C.ar    1  UNL1        0.0808
      6 C         -61.9833  -45.4106  -22.4152 C.ar    1  UNL1        0.0080
      7 C         -62.1785  -44.2827  -21.6141 C.ar    1  UNL1        0.0148
      8 C         -62.2280  -42.9992  -22.1845 C.ar    1  UNL1        0.0502
      9 C         -62.0878  -42.8718  -23.5769 C.ar    1  UNL1        0.0443
     10 C         -61.8930  -43.9988  -24.3814 C.ar    1  UNL1        0.1457
     11 F         -61.7348  -43.8289  -25.7190 F       1  UNL1       -0.2040
     12 N         -62.4331  -41.8324  -21.3573 N.pl3   1  UNL1       -0.3040
     13 C         -61.4379  -40.7477  -21.3474 C.3     1  UNL1        0.1123
     14 C         -62.1171  -39.3905  -21.1289 C.3     1  UNL1        0.1136
     15 N         -63.0664  -39.4349  -20.0102 N.pl3   1  UNL1       -0.2894
     16 C         -63.3880  -40.7099  -19.3599 C.3     1  UNL1        0.1136
     17 C         -63.5674  -41.8010  -20.4177 C.3     1  UNL1        0.1123
     18 C         -63.8008  -38.2475  -19.6778 C.ar    1  UNL1        0.1371
     19 N         -63.1808  -37.2613  -18.9745 N.ar    1  UNL1       -0.2288
     20 C         -63.8104  -36.1063  -18.6354 C.ar    1  UNL1        0.1042
     21 C         -65.1417  -35.8875  -19.0185 C.ar    1  UNL1        0.0910
     22 C         -65.8137  -36.9092  -19.7058 C.ar    1  UNL1        0.0140
     23 C         -65.1500  -38.0915  -20.0455 C.ar    1  UNL1        0.0616
     24 I         -66.2586  -39.6202  -21.0057 I       1  UNL1       -0.0396
     25 C         -65.8668  -34.6326  -18.6044 C.3     1  UNL1        0.4200
     26 F         -67.1804  -34.6609  -19.0399 F       1  UNL1       -0.1658
     27 F         -65.8702  -34.5041  -17.2262 F       1  UNL1       -0.1658
     28 F         -65.2321  -33.5362  -19.1578 F       1  UNL1       -0.1658
     29 C         -62.5035  -48.0519  -26.4938 C.3     1  UNL1        0.1535
     30 C         -62.8334  -49.2949  -25.7005 C.2     1  UNL1        0.2443
     31 O         -63.7886  -50.0392  -26.0551 O.2     1  UNL1       -0.2730
     32 N         -62.1143  -49.5777  -24.4895 N.am    1  UNL1       -0.2825
     33 H         -61.6131  -48.7869  -24.0246 H       1  UNL1        0.1549
     34 C         -62.1242  -50.8543  -23.8280 C.ar    1  UNL1        0.0535
     35 C         -60.9377  -51.3519  -23.2720 C.ar    1  UNL1        0.0353
     36 C         -60.9369  -52.6020  -22.6486 C.ar    1  UNL1        0.1002
     37 N         -62.0778  -53.3387  -22.5964 N.ar    1  UNL1       -0.2422
     38 C         -63.2392  -52.8919  -23.1432 C.ar    1  UNL1        0.1002
     39 C         -63.2840  -51.6465  -23.7751 C.ar    1  UNL1        0.0353
     40 C         -63.3882  -47.9370  -27.7530 C.3     1  UNL1        0.0569
     41 C         -63.2882  -46.5722  -28.3711 C.ar    1  UNL1       -0.0017
     42 C         -64.3467  -45.7277  -28.6942 C.ar    1  UNL1        0.0681
     43 N         -63.8821  -44.5446  -29.1563 N.ar    1  UNL1       -0.3523
     44 C         -62.5409  -44.6314  -29.1178 C.ar    1  UNL1        0.0563
     45 C         -61.6197  -43.6490  -29.4787 C.ar    1  UNL1        0.0170
     46 C         -60.2518  -43.9472  -29.3387 C.ar    1  UNL1        0.0015
     47 C         -59.8403  -45.2048  -28.8436 C.ar    1  UNL1        0.0001
     48 C         -60.7926  -46.1762  -28.4851 C.ar    1  UNL1        0.0012
     49 C         -62.1407  -45.8529  -28.6396 C.ar    1  UNL1        0.0131
     50 H         -64.4531  -43.7263  -29.4642 H       1  UNL1        0.1660
@<TRIPOS>BOND
     1     1     2    2
     2     2     3   am
     3     3    29    1
     4    29    40    1
     5    40    41    1
     6    41    42   ar
     7    42    43   ar
     8    43    44   ar
     9    44    45   ar
    10    45    46   ar
    11    46    47   ar
    12    47    48   ar
    13    48    49   ar
    14    29    30    1
    15    30    31    2
    16    30    32   am
    17    32    34    1
    18    34    35   ar
    19    35    36   ar
    20    36    37   ar
    21    37    38   ar
    22    38    39   ar
    23     2     5    1
    24     5     6   ar
    25     6     7   ar
    26     7     8   ar
    27     8    12    1
    28    12    13    1
    29    13    14    1
    30    14    15    1
    31    15    18    1
    32    18    19   ar
    33    19    20   ar
    34    20    21   ar
    35    21    25    1
    36    25    26    1
    37    25    27    1
    38    25    28    1
    39    21    22   ar
    40    22    23   ar
    41    23    24    1
    42    15    16    1
    43    16    17    1
    44     8     9   ar
    45     9    10   ar
    46    10    11    1
    47    49    41   ar
    48    39    34   ar
    49    10     5   ar
    50    49    44   ar
    51    17    12    1
    52    23    18   ar
    53     3     4    1
    54    43    50    1
    55    32    33    1
@<TRIPOS>MOLECULE
*****
 50 55 0 0 0
SMALL
GASTEIGER

@<TRIPOS>ATOM
      1 O         -63.0660  -54.4813  -22.5651 O.2     1  UNL1       -0.2701
      2 C         -63.9757  -53.6573  -22.8545 C.2     1  UNL1        0.2483
      3 N         -65.3561  -53.9969  -22.6202 N.am    1  UNL1       -0.2945
      4 H         -66.0908  -53.2822  -22.8212 H       1  UNL1        0.1501
      5 C         -63.6062  -52.3402  -23.4223 C.ar    1  UNL1        0.0808
      6 C         -64.3872  -51.7548  -24.4327 C.ar    1  UNL1        0.0080
      7 C         -64.0396  -50.5131  -24.9704 C.ar    1  UNL1        0.0148
      8 C         -62.9015  -49.8275  -24.5119 C.ar    1  UNL1        0.0502
      9 C         -62.1138  -50.4188  -23.5095 C.ar    1  UNL1        0.0443
     10 C         -62.4588  -51.6617  -22.9699 C.ar    1  UNL1        0.1457
     11 F         -61.6859  -52.1846  -21.9839 F       1  UNL1       -0.2040
     12 N         -62.5392  -48.5448  -25.0697 N.pl3   1  UNL1       -0.3040
     13 C         -61.1235  -48.2053  -25.2869 C.3     1  UNL1        0.1123
     14 C         -60.9650  -47.2996  -26.5140 C.3     1  UNL1        0.1136
     15 N         -61.9219  -46.1868  -26.4916 N.pl3   1  UNL1       -0.2894
     16 C         -62.9764  -46.1349  -25.4731 C.3     1  UNL1        0.1136
     17 C         -63.5827  -47.5270  -25.2830 C.3     1  UNL1        0.1123
     18 C         -61.9178  -45.2482  -27.5774 C.ar    1  UNL1        0.1371
     19 N         -62.1511  -45.6969  -28.8407 N.ar    1  UNL1       -0.2288
     20 C         -62.1737  -44.8643  -29.9138 C.ar    1  UNL1        0.1042
     21 C         -61.9645  -43.4877  -29.7456 C.ar    1  UNL1        0.0910
     22 C         -61.6784  -43.0098  -28.4581 C.ar    1  UNL1        0.0140
     23 C         -61.6583  -43.8815  -27.3657 C.ar    1  UNL1        0.0616
     24 I         -61.1327  -43.0968  -25.4694 I       1  UNL1       -0.0396
     25 C         -61.9362  -42.5613  -30.9342 C.3     1  UNL1        0.4200
     26 F         -61.0766  -43.0409  -31.9074 F       1  UNL1       -0.1658
     27 F         -63.1982  -42.4442  -31.4908 F       1  UNL1       -0.1658
     28 F         -61.5051  -41.3123  -30.5280 F       1  UNL1       -0.1658
     29 C         -65.8065  -55.2464  -21.9863 C.3     1  UNL1        0.1535
     30 C         -66.8353  -54.9880  -20.9103 C.2     1  UNL1        0.2443
     31 O         -67.3438  -53.8405  -20.7807 O.2     1  UNL1       -0.2730
     32 N         -67.1656  -56.0291  -19.9771 N.am    1  UNL1       -0.2825
     33 H         -66.4853  -56.8143  -19.8624 H       1  UNL1        0.1549
     34 C         -68.3221  -56.0060  -19.1229 C.ar    1  UNL1        0.0535
     35 C         -68.2658  -55.3147  -17.9049 C.ar    1  UNL1        0.0353
     36 C         -69.3789  -55.3086  -17.0609 C.ar    1  UNL1        0.1002
     37 N         -70.5049  -55.9837  -17.4123 N.ar    1  UNL1       -0.2422
     38 C         -70.5833  -56.6791  -18.5776 C.ar    1  UNL1        0.1002
     39 C         -69.4933  -56.7102  -19.4511 C.ar    1  UNL1        0.0353
     40 C         -66.3276  -56.2541  -23.0324 C.3     1  UNL1        0.0569
     41 C         -67.3128  -55.6141  -23.9675 C.ar    1  UNL1       -0.0017
     42 C         -67.0185  -54.9429  -25.1511 C.ar    1  UNL1        0.0681
     43 N         -68.1576  -54.5702  -25.7778 N.ar    1  UNL1       -0.3523
     44 C         -69.1671  -55.0091  -25.0058 C.ar    1  UNL1        0.0563
     45 C         -70.5341  -54.8799  -25.2480 C.ar    1  UNL1        0.0170
     46 C         -71.4234  -55.4360  -24.3101 C.ar    1  UNL1        0.0015
     47 C         -70.9320  -56.1040  -23.1663 C.ar    1  UNL1        0.0001
     48 C         -69.5471  -56.2210  -22.9490 C.ar    1  UNL1        0.0012
     49 C         -68.6909  -55.6555  -23.8940 C.ar    1  UNL1        0.0131
     50 H         -68.2330  -54.0594  -26.6854 H       1  UNL1        0.1660
@<TRIPOS>BOND
     1     1     2    2
     2     2     3   am
     3     3    29    1
     4    29    40    1
     5    40    41    1
     6    41    42   ar
     7    42    43   ar
     8    43    44   ar
     9    44    45   ar
    10    45    46   ar
    11    46    47   ar
    12    47    48   ar
    13    48    49   ar
    14    29    30    1
    15    30    31    2
    16    30    32   am
    17    32    34    1
    18    34    35   ar
    19    35    36   ar
    20    36    37   ar
    21    37    38   ar
    22    38    39   ar
    23     2     5    1
    24     5     6   ar
    25     6     7   ar
    26     7     8   ar
    27     8    12    1
    28    12    13    1
    29    13    14    1
    30    14    15    1
    31    15    18    1
    32    18    19   ar
    33    19    20   ar
    34    20    21   ar
    35    21    25    1
    36    25    26    1
    37    25    27    1
    38    25    28    1
    39    21    22   ar
    40    22    23   ar
    41    23    24    1
    42    15    16    1
    43    16    17    1
    44     8     9   ar
    45     9    10   ar
    46    10    11    1
    47    49    41   ar
    48    39    34   ar
    49    10     5   ar
    50    49    44   ar
    51    17    12    1
    52    23    18   ar
    53     3     4    1
    54    43    50    1
    55    32    33    1
@<TRIPOS>MOLECULE
*****
 50 55 0 0 0
SMALL
GASTEIGER

@<TRIPOS>ATOM
      1 O         -60.7912  -46.1509  -26.7188 O.2     1  UNL1       -0.2701
      2 C         -61.6931  -45.2713  -26.7741 C.2     1  UNL1        0.2483
      3 N         -62.4985  -45.1393  -27.9614 N.am    1  UNL1       -0.2945
      4 H         -63.2719  -44.4374  -27.9687 H       1  UNL1        0.1501
      5 C         -61.9192  -44.3912  -25.6044 C.ar    1  UNL1        0.0808
      6 C         -61.3495  -44.7011  -24.3582 C.ar    1  UNL1        0.0080
      7 C         -61.5627  -43.8729  -23.2535 C.ar    1  UNL1        0.0148
      8 C         -62.3520  -42.7156  -23.3678 C.ar    1  UNL1        0.0502
      9 C         -62.9313  -42.4122  -24.6116 C.ar    1  UNL1        0.0443
     10 C         -62.7204  -43.2394  -25.7190 C.ar    1  UNL1        0.1457
     11 F         -63.2761  -42.8951  -26.9087 F       1  UNL1       -0.2040
     12 N         -62.5757  -41.8602  -22.2251 N.pl3   1  UNL1       -0.3040
     13 C         -61.4335  -41.3153  -21.4733 C.3     1  UNL1        0.1123
     14 C         -61.7662  -39.9281  -20.9111 C.3     1  UNL1        0.1136
     15 N         -63.0725  -39.9153  -20.2417 N.pl3   1  UNL1       -0.2894
     16 C         -63.9536  -41.0860  -20.3110 C.3     1  UNL1        0.1136
     17 C         -63.9486  -41.6555  -21.7313 C.3     1  UNL1        0.1123
     18 C         -63.5448  -38.6871  -19.6688 C.ar    1  UNL1        0.1371
     19 N         -63.0673  -37.5065  -20.1485 N.ar    1  UNL1       -0.2288
     20 C         -63.4781  -36.3064  -19.6624 C.ar    1  UNL1        0.1042
     21 C         -64.4349  -36.2480  -18.6386 C.ar    1  UNL1        0.0910
     22 C         -64.9078  -37.4535  -18.0990 C.ar    1  UNL1        0.0140
     23 C         -64.4730  -38.6791  -18.6113 C.ar    1  UNL1        0.0616
     24 I         -65.1674  -40.4532  -17.6847 I       1  UNL1       -0.0396
     25 C         -64.8606  -34.9247  -18.0559 C.3     1  UNL1        0.4200
     26 F         -63.8307  -34.0029  -18.1325 F       1  UNL1       -0.1658
     27 F         -65.9486  -34.4165  -18.7444 F       1  UNL1       -0.1658
     28 F         -65.2090  -35.1019  -16.7299 F       1  UNL1       -0.1658
     29 C         -62.3967  -46.0218  -29.1346 C.3     1  UNL1        0.1535
     30 C         -63.7537  -46.3222  -29.7275 C.2     1  UNL1        0.2443
     31 O         -64.6431  -45.4279  -29.7625 O.2     1  UNL1       -0.2730
     32 N         -64.0582  -47.6551  -30.1684 N.am    1  UNL1       -0.2825
     33 H         -63.4739  -48.4372  -29.7947 H       1  UNL1        0.1549
     34 C         -65.1750  -47.9879  -31.0105 C.ar    1  UNL1        0.0535
     35 C         -66.0262  -49.0392  -30.6433 C.ar    1  UNL1        0.0353
     36 C         -67.0991  -49.3816  -31.4697 C.ar    1  UNL1        0.1002
     37 N         -67.3061  -48.7088  -32.6323 N.ar    1  UNL1       -0.2422
     38 C         -66.4870  -47.6977  -33.0251 C.ar    1  UNL1        0.1002
     39 C         -65.4029  -47.3225  -32.2274 C.ar    1  UNL1        0.0353
     40 C         -61.4354  -45.4434  -30.1943 C.3     1  UNL1        0.0569
     41 C         -61.8127  -44.0392  -30.5691 C.ar    1  UNL1       -0.0017
     42 C         -62.6399  -43.6544  -31.6205 C.ar    1  UNL1        0.0681
     43 N         -62.8256  -42.3148  -31.6088 N.ar    1  UNL1       -0.3523
     44 C         -62.1318  -41.8527  -30.5539 C.ar    1  UNL1        0.0563
     45 C         -62.0344  -40.5314  -30.1196 C.ar    1  UNL1        0.0170
     46 C         -61.2649  -40.2720  -28.9706 C.ar    1  UNL1        0.0015
     47 C         -60.6203  -41.3274  -28.2874 C.ar    1  UNL1        0.0001
     48 C         -60.7381  -42.6517  -28.7475 C.ar    1  UNL1        0.0012
     49 C         -61.5038  -42.8764  -29.8917 C.ar    1  UNL1        0.0131
     50 H         -63.4046  -41.7584  -32.2763 H       1  UNL1        0.1660
@<TRIPOS>BOND
     1     1     2    2
     2     2     3   am
     3     3    29    1
     4    29    40    1
     5    40    41    1
     6    41    42   ar
     7    42    43   ar
     8    43    44   ar
     9    44    45   ar
    10    45    46   ar
    11    46    47   ar
    12    47    48   ar
    13    48    49   ar
    14    29    30    1
    15    30    31    2
    16    30    32   am
    17    32    34    1
    18    34    35   ar
    19    35    36   ar
    20    36    37   ar
    21    37    38   ar
    22    38    39   ar
    23     2     5    1
    24     5     6   ar
    25     6     7   ar
    26     7     8   ar
    27     8    12    1
    28    12    13    1
    29    13    14    1
    30    14    15    1
    31    15    18    1
    32    18    19   ar
    33    19    20   ar
    34    20    21   ar
    35    21    25    1
    36    25    26    1
    37    25    27    1
    38    25    28    1
    39    21    22   ar
    40    22    23   ar
    41    23    24    1
    42    15    16    1
    43    16    17    1
    44     8     9   ar
    45     9    10   ar
    46    10    11    1
    47    49    41   ar
    48    39    34   ar
    49    10     5   ar
    50    49    44   ar
    51    17    12    1
    52    23    18   ar
    53     3     4    1
    54    43    50    1
    55    32    33    1
@<TRIPOS>MOLECULE
*****
 50 55 0 0 0
SMALL
GASTEIGER

@<TRIPOS>ATOM
      1 O         -60.8023  -46.4923  -26.3633 O.2     1  UNL1       -0.2701
      2 C         -61.9381  -46.0115  -26.1002 C.2     1  UNL1        0.2483
      3 N         -63.0999  -46.4766  -26.8139 N.am    1  UNL1       -0.2945
      4 H         -64.0374  -46.1011  -26.5473 H       1  UNL1        0.1501
      5 C         -62.0608  -44.9788  -25.0455 C.ar    1  UNL1        0.0808
      6 C         -61.9072  -45.3207  -23.6916 C.ar    1  UNL1        0.0080
      7 C         -62.0238  -44.3483  -22.6952 C.ar    1  UNL1        0.0148
      8 C         -62.2985  -43.0108  -23.0287 C.ar    1  UNL1        0.0502
      9 C         -62.4637  -42.6713  -24.3823 C.ar    1  UNL1        0.0443
     10 C         -62.3482  -43.6425  -25.3817 C.ar    1  UNL1        0.1457
     11 F         -62.4880  -43.2669  -26.6787 F       1  UNL1       -0.2040
     12 N         -62.4226  -42.0050  -21.9988 N.pl3   1  UNL1       -0.3040
     13 C         -61.2723  -41.1541  -21.6526 C.3     1  UNL1        0.1123
     14 C         -61.7398  -39.7581  -21.2240 C.3     1  UNL1        0.1136
     15 N         -62.8337  -39.8305  -20.2479 N.pl3   1  UNL1       -0.2894
     16 C         -63.4534  -41.1194  -19.9216 C.3     1  UNL1        0.1136
     17 C         -63.6586  -41.9346  -21.2003 C.3     1  UNL1        0.1123
     18 C         -63.3997  -38.6089  -19.7506 C.ar    1  UNL1        0.1371
     19 N         -62.9503  -37.4227  -20.2433 N.ar    1  UNL1       -0.2288
     20 C         -63.4482  -36.2291  -19.8277 C.ar    1  UNL1        0.1042
     21 C         -64.4693  -36.1844  -18.8673 C.ar    1  UNL1        0.0910
     22 C         -64.9167  -37.3933  -18.3138 C.ar    1  UNL1        0.0140
     23 C         -64.3921  -38.6121  -18.7530 C.ar    1  UNL1        0.0616
     24 I         -65.0572  -40.3866  -17.8061 I       1  UNL1       -0.0396
     25 C         -64.9941  -34.8653  -18.3608 C.3     1  UNL1        0.4200
     26 F         -65.9793  -34.3761  -19.2013 F       1  UNL1       -0.1658
     27 F         -65.5369  -35.0102  -17.0958 F       1  UNL1       -0.1658
     28 F         -63.9564  -33.9537  -18.3044 F       1  UNL1       -0.1658
     29 C         -63.0810  -47.5538  -27.8164 C.3     1  UNL1        0.1535
     30 C         -63.3568  -48.9024  -27.1931 C.2     1  UNL1        0.2443
     31 O         -63.4944  -49.9226  -27.9227 O.2     1  UNL1       -0.2730
     32 N         -63.5522  -49.0034  -25.7735 N.am    1  UNL1       -0.2825
     33 H         -63.8070  -48.1331  -25.2536 H       1  UNL1        0.1549
     34 C         -63.5164  -50.2414  -25.0430 C.ar    1  UNL1        0.0535
     35 C         -62.5425  -50.4296  -24.0527 C.ar    1  UNL1        0.0353
     36 C         -62.4888  -51.6393  -23.3562 C.ar    1  UNL1        0.1002
     37 N         -63.3666  -52.6346  -23.6497 N.ar    1  UNL1       -0.2422
     38 C         -64.3097  -52.4894  -24.6177 C.ar    1  UNL1        0.1002
     39 C         -64.3987  -51.2951  -25.3374 C.ar    1  UNL1        0.0353
     40 C         -64.0542  -47.2613  -28.9777 C.3     1  UNL1        0.0569
     41 C         -64.1379  -45.7901  -29.2660 C.ar    1  UNL1       -0.0017
     42 C         -65.2627  -44.9808  -29.1330 C.ar    1  UNL1        0.0681
     43 N         -64.9508  -43.6920  -29.3995 N.ar    1  UNL1       -0.3523
     44 C         -63.6379  -43.6797  -29.6890 C.ar    1  UNL1        0.0563
     45 C         -62.8538  -42.5726  -30.0107 C.ar    1  UNL1        0.0170
     46 C         -61.4855  -42.7861  -30.2597 C.ar    1  UNL1        0.0015
     47 C         -60.9375  -44.0858  -30.1791 C.ar    1  UNL1        0.0001
     48 C         -61.7526  -45.1841  -29.8501 C.ar    1  UNL1        0.0012
     49 C         -63.1057  -44.9414  -29.6134 C.ar    1  UNL1        0.0131
     50 H         -65.5983  -42.8734  -29.3693 H       1  UNL1        0.1660
@<TRIPOS>BOND
     1     1     2    2
     2     2     3   am
     3     3    29    1
     4    29    40    1
     5    40    41    1
     6    41    42   ar
     7    42    43   ar
     8    43    44   ar
     9    44    45   ar
    10    45    46   ar
    11    46    47   ar
    12    47    48   ar
    13    48    49   ar
    14    29    30    1
    15    30    31    2
    16    30    32   am
    17    32    34    1
    18    34    35   ar
    19    35    36   ar
    20    36    37   ar
    21    37    38   ar
    22    38    39   ar
    23     2     5    1
    24     5     6   ar
    25     6     7   ar
    26     7     8   ar
    27     8    12    1
    28    12    13    1
    29    13    14    1
    30    14    15    1
    31    15    18    1
    32    18    19   ar
    33    19    20   ar
    34    20    21   ar
    35    21    25    1
    36    25    26    1
    37    25    27    1
    38    25    28    1
    39    21    22   ar
    40    22    23   ar
    41    23    24    1
    42    15    16    1
    43    16    17    1
    44     8     9   ar
    45     9    10   ar
    46    10    11    1
    47    49    41   ar
    48    39    34   ar
    49    10     5   ar
    50    49    44   ar
    51    17    12    1
    52    23    18   ar
    53     3     4    1
    54    43    50    1
    55    32    33    1
@<TRIPOS>MOLECULE
*****
 50 55 0 0 0
SMALL
GASTEIGER

@<TRIPOS>ATOM
      1 O         -61.1923  -45.8417  -26.7969 O.2     1  UNL1       -0.2701
      2 C         -62.3279  -45.4898  -26.3761 C.2     1  UNL1        0.2483
      3 N         -63.5189  -46.0363  -26.9749 N.am    1  UNL1       -0.2945
      4 H         -64.4481  -45.7693  -26.5798 H       1  UNL1        0.1501
      5 C         -62.4182  -44.5238  -25.2569 C.ar    1  UNL1        0.0808
      6 C         -62.6415  -43.1599  -25.5086 C.ar    1  UNL1        0.0080
      7 C         -62.7257  -42.2470  -24.4544 C.ar    1  UNL1        0.0148
      8 C         -62.5871  -42.6758  -23.1231 C.ar    1  UNL1        0.0502
      9 C         -62.3520  -44.0384  -22.8723 C.ar    1  UNL1        0.0443
     10 C         -62.2665  -44.9543  -23.9253 C.ar    1  UNL1        0.1457
     11 F         -62.0656  -46.2657  -23.6376 F       1  UNL1       -0.2040
     12 N         -62.6708  -41.7320  -22.0322 N.pl3   1  UNL1       -0.3040
     13 C         -61.4938  -40.9338  -21.6520 C.3     1  UNL1        0.1123
     14 C         -61.9183  -39.5551  -21.1324 C.3     1  UNL1        0.1136
     15 N         -63.0007  -39.6589  -20.1464 N.pl3   1  UNL1       -0.2894
     16 C         -63.6500  -40.9490  -19.8899 C.3     1  UNL1        0.1136
     17 C         -63.8938  -41.6790  -21.2125 C.3     1  UNL1        0.1123
     18 C         -63.5275  -38.4559  -19.5674 C.ar    1  UNL1        0.1371
     19 N         -63.0540  -37.2537  -19.9943 N.ar    1  UNL1       -0.2288
     20 C         -63.5145  -36.0753  -19.4995 C.ar    1  UNL1        0.1042
     21 C         -64.5206  -36.0633  -18.5224 C.ar    1  UNL1        0.0910
     22 C         -64.9918  -37.2919  -18.0361 C.ar    1  UNL1        0.0140
     23 C         -64.5055  -38.4946  -18.5564 C.ar    1  UNL1        0.0616
     24 I         -65.2037  -40.3061  -17.7083 I       1  UNL1       -0.0396
     25 C         -65.0034  -34.7646  -17.9290 C.3     1  UNL1        0.4200
     26 F         -64.0656  -33.7636  -18.1153 F       1  UNL1       -0.1658
     27 F         -66.1867  -34.3660  -18.5264 F       1  UNL1       -0.1658
     28 F         -65.2176  -34.9349  -16.5740 F       1  UNL1       -0.1658
     29 C         -63.5205  -47.0593  -28.0328 C.3     1  UNL1        0.1535
     30 C         -63.1433  -46.4763  -29.3748 C.2     1  UNL1        0.2443
     31 O         -63.7514  -46.8406  -30.4186 O.2     1  UNL1       -0.2730
     32 N         -62.0295  -45.5741  -29.4708 N.am    1  UNL1       -0.2825
     33 H         -61.3275  -45.5827  -28.6964 H       1  UNL1        0.1549
     34 C         -61.7703  -44.7350  -30.6093 C.ar    1  UNL1        0.0535
     35 C         -60.4754  -44.6776  -31.1428 C.ar    1  UNL1        0.0353
     36 C         -60.2133  -43.8463  -32.2344 C.ar    1  UNL1        0.1002
     37 N         -61.2058  -43.0848  -32.7655 N.ar    1  UNL1       -0.2422
     38 C         -62.4667  -43.1042  -32.2583 C.ar    1  UNL1        0.1002
     39 C         -62.7720  -43.9224  -31.1677 C.ar    1  UNL1        0.0353
     40 C         -62.6158  -48.2540  -27.6642 C.3     1  UNL1        0.0569
     41 C         -63.0160  -48.8602  -26.3501 C.ar    1  UNL1       -0.0017
     42 C         -64.2589  -49.3986  -26.0285 C.ar    1  UNL1        0.0681
     43 N         -64.2352  -49.9304  -24.7852 N.ar    1  UNL1       -0.3523
     44 C         -62.9864  -49.7417  -24.3240 C.ar    1  UNL1        0.0563
     45 C         -62.4720  -50.1386  -23.0904 C.ar    1  UNL1        0.0170
     46 C         -61.1207  -49.8551  -22.8195 C.ar    1  UNL1        0.0015
     47 C         -60.3223  -49.1919  -23.7781 C.ar    1  UNL1        0.0001
     48 C         -60.8679  -48.8049  -25.0157 C.ar    1  UNL1        0.0012
     49 C         -62.2115  -49.0956  -25.2530 C.ar    1  UNL1        0.0131
     50 H         -65.0247  -50.4049  -24.2934 H       1  UNL1        0.1660
@<TRIPOS>BOND
     1     1     2    2
     2     2     3   am
     3     3    29    1
     4    29    40    1
     5    40    41    1
     6    41    42   ar
     7    42    43   ar
     8    43    44   ar
     9    44    45   ar
    10    45    46   ar
    11    46    47   ar
    12    47    48   ar
    13    48    49   ar
    14    29    30    1
    15    30    31    2
    16    30    32   am
    17    32    34    1
    18    34    35   ar
    19    35    36   ar
    20    36    37   ar
    21    37    38   ar
    22    38    39   ar
    23     2     5    1
    24     5     6   ar
    25     6     7   ar
    26     7     8   ar
    27     8    12    1
    28    12    13    1
    29    13    14    1
    30    14    15    1
    31    15    18    1
    32    18    19   ar
    33    19    20   ar
    34    20    21   ar
    35    21    25    1
    36    25    26    1
    37    25    27    1
    38    25    28    1
    39    21    22   ar
    40    22    23   ar
    41    23    24    1
    42    15    16    1
    43    16    17    1
    44     8     9   ar
    45     9    10   ar
    46    10    11    1
    47    49    41   ar
    48    39    34   ar
    49    10     5   ar
    50    49    44   ar
    51    17    12    1
    52    23    18   ar
    53     3     4    1
    54    43    50    1
    55    32    33    1
@<TRIPOS>MOLECULE
*****
 50 55 0 0 0
SMALL
GASTEIGER

@<TRIPOS>ATOM
      1 O         -60.6866  -45.5980  -27.0114 O.2     1  UNL1       -0.2701
      2 C         -60.8839  -44.3554  -27.0972 C.2     1  UNL1        0.2483
      3 N         -60.7255  -43.6868  -28.3636 N.am    1  UNL1       -0.2945
      4 H         -60.9408  -42.6666  -28.4238 H       1  UNL1        0.1501
      5 C         -61.2905  -43.6014  -25.8889 C.ar    1  UNL1        0.0808
      6 C         -60.4667  -43.5797  -24.7512 C.ar    1  UNL1        0.0080
      7 C         -60.8491  -42.8701  -23.6101 C.ar    1  UNL1        0.0148
      8 C         -62.0654  -42.1665  -23.5786 C.ar    1  UNL1        0.0502
      9 C         -62.8948  -42.1981  -24.7126 C.ar    1  UNL1        0.0443
     10 C         -62.5151  -42.9079  -25.8559 C.ar    1  UNL1        0.1457
     11 F         -63.3329  -42.8899  -26.9393 F       1  UNL1       -0.2040
     12 N         -62.4634  -41.4350  -22.3978 N.pl3   1  UNL1       -0.3040
     13 C         -61.4820  -41.1482  -21.3388 C.3     1  UNL1        0.1123
     14 C         -61.7913  -39.8080  -20.6612 C.3     1  UNL1        0.1136
     15 N         -63.2105  -39.6984  -20.3027 N.pl3   1  UNL1       -0.2894
     16 C         -64.1678  -40.7199  -20.7408 C.3     1  UNL1        0.1136
     17 C         -63.8850  -41.1063  -22.1943 C.3     1  UNL1        0.1123
     18 C         -63.6739  -38.4967  -19.6696 C.ar    1  UNL1        0.1371
     19 N         -63.2324  -37.2942  -20.1290 N.ar    1  UNL1       -0.2288
     20 C         -63.6376  -36.1168  -19.5860 C.ar    1  UNL1        0.1042
     21 C         -64.5508  -36.1059  -18.5216 C.ar    1  UNL1        0.0910
     22 C         -64.9849  -37.3351  -18.0035 C.ar    1  UNL1        0.0140
     23 C         -64.5565  -38.5369  -18.5744 C.ar    1  UNL1        0.0616
     24 I         -65.1880  -40.3503  -17.6796 I       1  UNL1       -0.0396
     25 C         -64.9685  -34.8087  -17.8774 C.3     1  UNL1        0.4200
     26 F         -65.2545  -34.9989  -16.5365 F       1  UNL1       -0.1658
     27 F         -63.9574  -33.8684  -17.9754 F       1  UNL1       -0.1658
     28 F         -66.0962  -34.3261  -18.5148 F       1  UNL1       -0.1658
     29 C         -60.4045  -44.3696  -29.6271 C.3     1  UNL1        0.1535
     30 C         -61.0333  -45.7418  -29.6964 C.2     1  UNL1        0.2443
     31 O         -60.3225  -46.7537  -29.9474 O.2     1  UNL1       -0.2730
     32 N         -62.4573  -45.8793  -29.5657 N.am    1  UNL1       -0.2825
     33 H         -63.0462  -45.0329  -29.7369 H       1  UNL1        0.1549
     34 C         -63.1246  -47.1276  -29.3125 C.ar    1  UNL1        0.0535
     35 C         -64.1500  -47.5476  -30.1708 C.ar    1  UNL1        0.0353
     36 C         -64.8171  -48.7482  -29.9160 C.ar    1  UNL1        0.1002
     37 N         -64.4840  -49.4965  -28.8315 N.ar    1  UNL1       -0.2422
     38 C         -63.5075  -49.1063  -27.9702 C.ar    1  UNL1        0.1002
     39 C         -62.8146  -47.9129  -28.1888 C.ar    1  UNL1        0.0353
     40 C         -60.7944  -43.5100  -30.8480 C.3     1  UNL1        0.0569
     41 C         -61.8286  -42.4826  -30.4880 C.ar    1  UNL1       -0.0017
     42 C         -61.5990  -41.1414  -30.1939 C.ar    1  UNL1        0.0681
     43 N         -62.7703  -40.4945  -29.9975 N.ar    1  UNL1       -0.3523
     44 C         -63.7364  -41.4126  -30.1751 C.ar    1  UNL1        0.0563
     45 C         -65.1144  -41.2156  -30.0962 C.ar    1  UNL1        0.0170
     46 C         -65.9514  -42.3200  -30.3401 C.ar    1  UNL1        0.0015
     47 C         -65.3987  -43.5809  -30.6573 C.ar    1  UNL1        0.0001
     48 C         -64.0041  -43.7496  -30.7322 C.ar    1  UNL1        0.0012
     49 C         -63.2005  -42.6375  -30.4806 C.ar    1  UNL1        0.0131
     50 H         -62.8950  -39.4830  -29.7701 H       1  UNL1        0.1660
@<TRIPOS>BOND
     1     1     2    2
     2     2     3   am
     3     3    29    1
     4    29    40    1
     5    40    41    1
     6    41    42   ar
     7    42    43   ar
     8    43    44   ar
     9    44    45   ar
    10    45    46   ar
    11    46    47   ar
    12    47    48   ar
    13    48    49   ar
    14    29    30    1
    15    30    31    2
    16    30    32   am
    17    32    34    1
    18    34    35   ar
    19    35    36   ar
    20    36    37   ar
    21    37    38   ar
    22    38    39   ar
    23     2     5    1
    24     5     6   ar
    25     6     7   ar
    26     7     8   ar
    27     8    12    1
    28    12    13    1
    29    13    14    1
    30    14    15    1
    31    15    18    1
    32    18    19   ar
    33    19    20   ar
    34    20    21   ar
    35    21    25    1
    36    25    26    1
    37    25    27    1
    38    25    28    1
    39    21    22   ar
    40    22    23   ar
    41    23    24    1
    42    15    16    1
    43    16    17    1
    44     8     9   ar
    45     9    10   ar
    46    10    11    1
    47    49    41   ar
    48    39    34   ar
    49    10     5   ar
    50    49    44   ar
    51    17    12    1
    52    23    18   ar
    53     3     4    1
    54    43    50    1
    55    32    33    1
@<TRIPOS>MOLECULE
*****
 50 55 0 0 0
SMALL
GASTEIGER

@<TRIPOS>ATOM
      1 O         -61.3101  -41.8462  -19.7177 O.2     1  UNL1       -0.2701
      2 C         -62.0222  -41.3750  -20.6458 C.2     1  UNL1        0.2483
      3 N         -62.9426  -40.3008  -20.3728 N.am    1  UNL1       -0.2945
      4 H         -63.4875  -39.8922  -21.1646 H       1  UNL1        0.1501
      5 C         -61.8897  -41.9292  -22.0130 C.ar    1  UNL1        0.0808
      6 C         -62.9806  -41.9121  -22.8980 C.ar    1  UNL1        0.0080
      7 C         -62.8580  -42.4355  -24.1876 C.ar    1  UNL1        0.0148
      8 C         -61.6420  -42.9902  -24.6226 C.ar    1  UNL1        0.0502
      9 C         -60.5545  -43.0179  -23.7331 C.ar    1  UNL1        0.0443
     10 C         -60.6743  -42.4954  -22.4416 C.ar    1  UNL1        0.1457
     11 F         -59.5912  -42.5173  -21.6235 F       1  UNL1       -0.2040
     12 N         -61.5152  -43.5347  -25.9549 N.pl3   1  UNL1       -0.3040
     13 C         -62.7027  -44.0354  -26.6662 C.3     1  UNL1        0.1123
     14 C         -62.5676  -43.8054  -28.1761 C.3     1  UNL1        0.1136
     15 N         -61.2581  -44.2426  -28.6745 N.pl3   1  UNL1       -0.2894
     16 C         -60.2114  -44.6667  -27.7383 C.3     1  UNL1        0.1136
     17 C         -60.1746  -43.7190  -26.5374 C.3     1  UNL1        0.1123
     18 C         -60.9605  -44.0855  -30.0697 C.ar    1  UNL1        0.1371
     19 N         -59.8362  -44.6616  -30.5754 N.ar    1  UNL1       -0.2288
     20 C         -59.4982  -44.5641  -31.8875 C.ar    1  UNL1        0.1042
     21 C         -60.3217  -43.8620  -32.7798 C.ar    1  UNL1        0.0910
     22 C         -61.4624  -43.2231  -32.2715 C.ar    1  UNL1        0.0140
     23 C         -61.7940  -43.3335  -30.9182 C.ar    1  UNL1        0.0616
     24 I         -63.4833  -42.2679  -30.2122 I       1  UNL1       -0.0396
     25 C         -59.9314  -43.7035  -34.2270 C.3     1  UNL1        0.4200
     26 F         -59.2732  -44.8330  -34.6823 F       1  UNL1       -0.1658
     27 F         -61.0522  -43.5082  -35.0154 F       1  UNL1       -0.1658
     28 F         -59.0938  -42.6113  -34.3558 F       1  UNL1       -0.1658
     29 C         -63.0791  -39.6380  -19.0660 C.3     1  UNL1        0.1535
     30 C         -63.4746  -38.1871  -19.2138 C.2     1  UNL1        0.2443
     31 O         -62.8757  -37.4472  -20.0420 O.2     1  UNL1       -0.2730
     32 N         -64.4730  -37.6297  -18.3441 N.am    1  UNL1       -0.2825
     33 H         -64.6735  -38.1304  -17.4487 H       1  UNL1        0.1549
     34 C         -65.1387  -36.3778  -18.5826 C.ar    1  UNL1        0.0535
     35 C         -64.7615  -35.2454  -17.8478 C.ar    1  UNL1        0.0353
     36 C         -65.4210  -34.0322  -18.0593 C.ar    1  UNL1        0.1002
     37 N         -66.4343  -33.9552  -18.9617 N.ar    1  UNL1       -0.2422
     38 C         -66.8358  -35.0401  -19.6755 C.ar    1  UNL1        0.1002
     39 C         -66.2023  -36.2723  -19.4954 C.ar    1  UNL1        0.0353
     40 C         -64.0595  -40.3974  -18.1475 C.3     1  UNL1        0.0569
     41 C         -64.8686  -41.4002  -18.9185 C.ar    1  UNL1       -0.0017
     42 C         -65.0970  -42.7280  -18.5684 C.ar    1  UNL1        0.0681
     43 N         -65.9392  -43.3106  -19.4519 N.ar    1  UNL1       -0.3523
     44 C         -66.2520  -42.3598  -20.3496 C.ar    1  UNL1        0.0563
     45 C         -67.1080  -42.4793  -21.4436 C.ar    1  UNL1        0.0170
     46 C         -67.3099  -41.3424  -22.2476 C.ar    1  UNL1        0.0015
     47 C         -66.6619  -40.1248  -21.9416 C.ar    1  UNL1        0.0001
     48 C         -65.8050  -40.0331  -20.8296 C.ar    1  UNL1        0.0012
     49 C         -65.6212  -41.1783  -20.0546 C.ar    1  UNL1        0.0131
     50 H         -66.2862  -44.2952  -19.4284 H       1  UNL1        0.1660
@<TRIPOS>BOND
     1     1     2    2
     2     2     3   am
     3     3    29    1
     4    29    40    1
     5    40    41    1
     6    41    42   ar
     7    42    43   ar
     8    43    44   ar
     9    44    45   ar
    10    45    46   ar
    11    46    47   ar
    12    47    48   ar
    13    48    49   ar
    14    29    30    1
    15    30    31    2
    16    30    32   am
    17    32    34    1
    18    34    35   ar
    19    35    36   ar
    20    36    37   ar
    21    37    38   ar
    22    38    39   ar
    23     2     5    1
    24     5     6   ar
    25     6     7   ar
    26     7     8   ar
    27     8    12    1
    28    12    13    1
    29    13    14    1
    30    14    15    1
    31    15    18    1
    32    18    19   ar
    33    19    20   ar
    34    20    21   ar
    35    21    25    1
    36    25    26    1
    37    25    27    1
    38    25    28    1
    39    21    22   ar
    40    22    23   ar
    41    23    24    1
    42    15    16    1
    43    16    17    1
    44     8     9   ar
    45     9    10   ar
    46    10    11    1
    47    49    41   ar
    48    39    34   ar
    49    10     5   ar
    50    49    44   ar
    51    17    12    1
    52    23    18   ar
    53     3     4    1
    54    43    50    1
    55    32    33    1
