@<TRIPOS>MOLECULE
*****
 50 55 0 0 0
SMALL
GASTEIGER

@<TRIPOS>ATOM
      1 O          -8.6454  -12.2171   31.3491 O.2     1  UNL1       -0.2701
      2 C          -9.0857  -12.2443   30.1670 C.2     1  UNL1        0.2484
      3 N         -10.2487  -11.4748   29.8219 N.am    1  UNL1       -0.2945
      4 H         -10.4600  -11.3083   28.8119 H       1  UNL1        0.1501
      5 C          -8.3718  -13.0439   29.1458 C.ar    1  UNL1        0.0817
      6 C          -9.0182  -14.1390   28.5468 C.ar    1  UNL1        0.0194
      7 C          -8.3651  -14.9140   27.5824 C.ar    1  UNL1        0.0712
      8 CL         -9.1989  -16.3003   26.8933 Cl      1  UNL1       -0.0810
      9 C          -7.0532  -14.5932   27.1963 C.ar    1  UNL1        0.0609
     10 C          -6.4099  -13.4948   27.7800 C.ar    1  UNL1        0.0451
     11 C          -7.0612  -12.7201   28.7441 C.ar    1  UNL1        0.1457
     12 F          -6.4257  -11.6288   29.2410 F       1  UNL1       -0.2040
     13 N          -6.3709  -15.3711   26.2035 N.pl3   1  UNL1       -0.3033
     14 C          -5.5229  -16.4917   26.6151 C.3     1  UNL1        0.1123
     15 C          -4.2858  -16.5666   25.7160 C.3     1  UNL1        0.1136
     16 N          -4.6381  -16.4819   24.2868 N.pl3   1  UNL1       -0.2897
     17 C          -6.0286  -16.2041   23.8909 C.3     1  UNL1        0.1136
     18 C          -6.6450  -15.1209   24.7843 C.3     1  UNL1        0.1123
     19 C          -3.6671  -16.8435   23.2773 C.ar    1  UNL1        0.1318
     20 C          -3.2320  -15.9170   22.3130 C.ar    1  UNL1        0.0343
     21 C          -2.2917  -16.3040   21.3569 C.ar    1  UNL1        0.0083
     22 C          -1.7672  -17.6045   21.3658 C.ar    1  UNL1        0.0906
     23 C          -2.2471  -18.5088   22.3248 C.ar    1  UNL1        0.1041
     24 N          -3.1643  -18.1100   23.2449 N.ar    1  UNL1       -0.2292
     25 C          -0.7897  -18.0489   20.3078 C.3     1  UNL1        0.4200
     26 F          -0.1972  -16.9552   19.7004 F       1  UNL1       -0.1658
     27 F           0.1922  -18.8263   20.8929 F       1  UNL1       -0.1658
     28 F          -1.4314  -18.7915   19.3317 F       1  UNL1       -0.1658
     29 C         -11.0337  -10.7602   30.8326 C.3     1  UNL1        0.1535
     30 C         -11.3442  -11.6803   31.9858 C.2     1  UNL1        0.2443
     31 O         -11.4447  -11.2035   33.1492 O.2     1  UNL1       -0.2730
     32 N         -11.6344  -13.0656   31.7344 N.am    1  UNL1       -0.2825
     33 H         -11.6713  -13.3794   30.7380 H       1  UNL1        0.1549
     34 C         -12.1347  -13.9691   32.7324 C.ar    1  UNL1        0.0535
     35 C         -13.1991  -14.8446   32.4635 C.ar    1  UNL1        0.0353
     36 C         -13.6542  -15.7025   33.4679 C.ar    1  UNL1        0.1002
     37 N         -13.0775  -15.6793   34.6988 N.ar    1  UNL1       -0.2422
     38 C         -12.0582  -14.8290   34.9915 C.ar    1  UNL1        0.1002
     39 C         -11.5764  -13.9521   34.0176 C.ar    1  UNL1        0.0353
     40 C         -10.2645   -9.5174   31.3198 C.3     1  UNL1        0.0569
     41 C         -10.9428   -8.2440   30.8964 C.ar    1  UNL1       -0.0017
     42 C         -12.3020   -7.9629   30.9968 C.ar    1  UNL1        0.0681
     43 N         -12.5458   -6.6778   30.6531 N.ar    1  UNL1       -0.3523
     44 C         -11.3513   -6.1405   30.3507 C.ar    1  UNL1        0.0563
     45 C         -11.0873   -4.8209   29.9860 C.ar    1  UNL1        0.0170
     46 C          -9.7477   -4.4564   29.7593 C.ar    1  UNL1        0.0015
     47 C          -8.7133   -5.4072   29.9031 C.ar    1  UNL1        0.0001
     48 C          -9.0090   -6.7314   30.2735 C.ar    1  UNL1        0.0012
     49 C         -10.3473   -7.0647   30.4884 C.ar    1  UNL1        0.0131
     50 H         -13.4722   -6.1958   30.6541 H       1  UNL1        0.1660
@<TRIPOS>BOND
     1     1     2    2
     2     2     3   am
     3     3    29    1
     4    29    40    1
     5    40    41    1
     6    41    42   ar
     7    42    43   ar
     8    43    44   ar
     9    44    45   ar
    10    45    46   ar
    11    46    47   ar
    12    47    48   ar
    13    48    49   ar
    14    29    30    1
    15    30    31    2
    16    30    32   am
    17    32    34    1
    18    34    35   ar
    19    35    36   ar
    20    36    37   ar
    21    37    38   ar
    22    38    39   ar
    23     2     5    1
    24     5     6   ar
    25     6     7   ar
    26     7     8    1
    27     7     9   ar
    28     9    13    1
    29    13    14    1
    30    14    15    1
    31    15    16    1
    32    16    19    1
    33    19    20   ar
    34    20    21   ar
    35    21    22   ar
    36    22    25    1
    37    25    26    1
    38    25    27    1
    39    25    28    1
    40    22    23   ar
    41    23    24   ar
    42    16    17    1
    43    17    18    1
    44     9    10   ar
    45    10    11   ar
    46    11    12    1
    47    49    41   ar
    48    39    34   ar
    49    11     5   ar
    50    49    44   ar
    51    18    13    1
    52    24    19   ar
    53     3     4    1
    54    43    50    1
    55    32    33    1
@<TRIPOS>MOLECULE
*****
 50 55 0 0 0
SMALL
GASTEIGER

@<TRIPOS>ATOM
      1 O         -10.1166  -11.2745   30.1381 O.2     1  UNL1       -0.2701
      2 C          -9.0859  -11.9326   30.4488 C.2     1  UNL1        0.2484
      3 N          -8.6053  -11.9068   31.8023 N.am    1  UNL1       -0.2945
      4 H          -7.9140  -12.6304   32.1043 H       1  UNL1        0.1501
      5 C          -8.4094  -12.7502   29.4165 C.ar    1  UNL1        0.0817
      6 C          -9.0813  -13.8483   28.8520 C.ar    1  UNL1        0.0194
      7 C          -8.4635  -14.6401   27.8780 C.ar    1  UNL1        0.0712
      8 CL         -9.3275  -16.0291   27.2330 Cl      1  UNL1       -0.0810
      9 C          -7.1621  -14.3336   27.4475 C.ar    1  UNL1        0.0609
     10 C          -6.4937  -13.2324   27.9968 C.ar    1  UNL1        0.0451
     11 C          -7.1096  -12.4409   28.9703 C.ar    1  UNL1        0.1457
     12 F          -6.4518  -11.3479   29.4333 F       1  UNL1       -0.2040
     13 N          -6.5161  -15.1290   26.4443 N.pl3   1  UNL1       -0.3033
     14 C          -5.6435  -16.2347   26.8445 C.3     1  UNL1        0.1123
     15 C          -4.4444  -16.3217   25.8964 C.3     1  UNL1        0.1136
     16 N          -4.8565  -16.2709   24.4816 N.pl3   1  UNL1       -0.2897
     17 C          -6.2642  -16.0107   24.1382 C.3     1  UNL1        0.1136
     18 C          -6.8507  -14.9120   25.0326 C.3     1  UNL1        0.1123
     19 C          -3.9258  -16.6485   23.4406 C.ar    1  UNL1        0.1318
     20 C          -3.7727  -15.8736   22.2772 C.ar    1  UNL1        0.0343
     21 C          -2.8620  -16.2704   21.2967 C.ar    1  UNL1        0.0083
     22 C          -2.0882  -17.4261   21.4756 C.ar    1  UNL1        0.0906
     23 C          -2.2898  -18.1888   22.6355 C.ar    1  UNL1        0.1041
     24 N          -3.1834  -17.7837   23.5758 N.ar    1  UNL1       -0.2292
     25 C          -1.1387  -17.8921   20.4015 C.3     1  UNL1        0.4200
     26 F          -0.3718  -16.8376   19.9369 F       1  UNL1       -0.1658
     27 F          -0.3029  -18.8621   20.9223 F       1  UNL1       -0.1658
     28 F          -1.8364  -18.4247   19.3312 F       1  UNL1       -0.1658
     29 C          -9.1917  -11.0264   32.8169 C.3     1  UNL1        0.1535
     30 C          -8.9625   -9.5850   32.4394 C.2     1  UNL1        0.2443
     31 O          -7.9204   -8.9978   32.8396 O.2     1  UNL1       -0.2730
     32 N          -9.8710   -8.9311   31.5375 N.am    1  UNL1       -0.2825
     33 H         -10.6428   -9.5046   31.1275 H       1  UNL1        0.1549
     34 C          -9.6308   -7.6367   30.9634 C.ar    1  UNL1        0.0535
     35 C          -8.3635   -7.2701   30.4824 C.ar    1  UNL1        0.0353
     36 C          -8.1772   -5.9976   29.9361 C.ar    1  UNL1        0.1002
     37 N          -9.2133   -5.1191   29.8828 N.ar    1  UNL1       -0.2422
     38 C         -10.4453   -5.4415   30.3579 C.ar    1  UNL1        0.1002
     39 C         -10.6729   -6.7011   30.9160 C.ar    1  UNL1        0.0353
     40 C         -10.6973  -11.3176   32.9649 C.3     1  UNL1        0.0569
     41 C         -10.9431  -12.6494   33.6181 C.ar    1  UNL1       -0.0017
     42 C         -10.3170  -13.1324   34.7632 C.ar    1  UNL1        0.0681
     43 N         -10.8759  -14.3015   35.1504 N.ar    1  UNL1       -0.3523
     44 C         -11.8589  -14.5539   34.2689 C.ar    1  UNL1        0.0563
     45 C         -12.7509  -15.6254   34.2834 C.ar    1  UNL1        0.0170
     46 C         -13.7413  -15.6704   33.2854 C.ar    1  UNL1        0.0015
     47 C         -13.8191  -14.6538   32.3081 C.ar    1  UNL1        0.0001
     48 C         -12.9063  -13.5837   32.3188 C.ar    1  UNL1        0.0012
     49 C         -11.9327  -13.5676   33.3188 C.ar    1  UNL1        0.0131
     50 H         -10.6142  -14.8732   35.9842 H       1  UNL1        0.1660
@<TRIPOS>BOND
     1     1     2    2
     2     2     3   am
     3     3    29    1
     4    29    40    1
     5    40    41    1
     6    41    42   ar
     7    42    43   ar
     8    43    44   ar
     9    44    45   ar
    10    45    46   ar
    11    46    47   ar
    12    47    48   ar
    13    48    49   ar
    14    29    30    1
    15    30    31    2
    16    30    32   am
    17    32    34    1
    18    34    35   ar
    19    35    36   ar
    20    36    37   ar
    21    37    38   ar
    22    38    39   ar
    23     2     5    1
    24     5     6   ar
    25     6     7   ar
    26     7     8    1
    27     7     9   ar
    28     9    13    1
    29    13    14    1
    30    14    15    1
    31    15    16    1
    32    16    19    1
    33    19    20   ar
    34    20    21   ar
    35    21    22   ar
    36    22    25    1
    37    25    26    1
    38    25    27    1
    39    25    28    1
    40    22    23   ar
    41    23    24   ar
    42    16    17    1
    43    17    18    1
    44     9    10   ar
    45    10    11   ar
    46    11    12    1
    47    49    41   ar
    48    39    34   ar
    49    11     5   ar
    50    49    44   ar
    51    18    13    1
    52    24    19   ar
    53     3     4    1
    54    43    50    1
    55    32    33    1
@<TRIPOS>MOLECULE
*****
 50 55 0 0 0
SMALL
GASTEIGER

@<TRIPOS>ATOM
      1 O         -10.5132  -12.3869   29.8427 O.2     1  UNL1       -0.2701
      2 C          -9.2656  -12.5130   29.9823 C.2     1  UNL1        0.2484
      3 N          -8.6155  -11.9416   31.1289 N.am    1  UNL1       -0.2945
      4 H          -7.6452  -12.2515   31.3632 H       1  UNL1        0.1501
      5 C          -8.4976  -13.2808   28.9761 C.ar    1  UNL1        0.0817
      6 C          -9.1083  -14.3598   28.3137 C.ar    1  UNL1        0.0194
      7 C          -8.4039  -15.1048   27.3618 C.ar    1  UNL1        0.0712
      8 CL         -9.1961  -16.4727   26.5915 Cl      1  UNL1       -0.0810
      9 C          -7.0754  -14.7697   27.0524 C.ar    1  UNL1        0.0609
     10 C          -6.4670  -13.6870   27.6995 C.ar    1  UNL1        0.0451
     11 C          -7.1696  -12.9422   28.6511 C.ar    1  UNL1        0.1457
     12 F          -6.5645  -11.8642   29.2110 F       1  UNL1       -0.2040
     13 N          -6.3405  -15.5168   26.0736 N.pl3   1  UNL1       -0.3033
     14 C          -5.4726  -16.6162   26.5003 C.3     1  UNL1        0.1123
     15 C          -4.2070  -16.6454   25.6390 C.3     1  UNL1        0.1136
     16 N          -4.5179  -16.5560   24.2005 N.pl3   1  UNL1       -0.2897
     17 C          -5.9033  -16.3149   23.7647 C.3     1  UNL1        0.1136
     18 C          -6.5784  -15.2598   24.6491 C.3     1  UNL1        0.1123
     19 C          -3.5064  -16.8783   23.2179 C.ar    1  UNL1        0.1318
     20 C          -3.1260  -15.9556   22.2271 C.ar    1  UNL1        0.0343
     21 C          -2.1439  -16.3037   21.2984 C.ar    1  UNL1        0.0083
     22 C          -1.5241  -17.5600   21.3609 C.ar    1  UNL1        0.0906
     23 C          -1.9507  -18.4641   22.3450 C.ar    1  UNL1        0.1041
     24 N          -2.9099  -18.1037   23.2377 N.ar    1  UNL1       -0.2292
     25 C          -0.4991  -17.9660   20.3329 C.3     1  UNL1        0.4200
     26 F          -1.0847  -18.7207   19.3312 F       1  UNL1       -0.1658
     27 F           0.0594  -16.8315   19.7743 F       1  UNL1       -0.1658
     28 F           0.5031  -18.7224   20.9155 F       1  UNL1       -0.1658
     29 C          -9.3323  -11.0901   32.0826 C.3     1  UNL1        0.1535
     30 C         -10.5200  -11.8322   32.6406 C.2     1  UNL1        0.2443
     31 O         -11.6241  -11.2340   32.7600 O.2     1  UNL1       -0.2730
     32 N         -10.4143  -13.2378   32.9226 N.am    1  UNL1       -0.2825
     33 H          -9.5171  -13.7146   32.6772 H       1  UNL1        0.1549
     34 C         -11.5352  -14.0693   33.2617 C.ar    1  UNL1        0.0535
     35 C         -12.3403  -14.6564   32.2724 C.ar    1  UNL1        0.0353
     36 C         -13.4228  -15.4545   32.6513 C.ar    1  UNL1        0.1002
     37 N         -13.6995  -15.6496   33.9679 N.ar    1  UNL1       -0.2422
     38 C         -12.9478  -15.0782   34.9457 C.ar    1  UNL1        0.1002
     39 C         -11.8597  -14.2699   34.6100 C.ar    1  UNL1        0.0353
     40 C          -8.3852  -10.6488   33.2147 C.3     1  UNL1        0.0569
     41 C          -7.0930  -10.1012   32.6752 C.ar    1  UNL1       -0.0017
     42 C          -5.9871  -10.8454   32.2753 C.ar    1  UNL1        0.0681
     43 N          -5.0548  -10.0425   31.7136 N.ar    1  UNL1       -0.3523
     44 C          -5.5679   -8.8003   31.7418 C.ar    1  UNL1        0.0563
     45 C          -4.9930   -7.6378   31.2298 C.ar    1  UNL1        0.0170
     46 C          -5.7301   -6.4433   31.3227 C.ar    1  UNL1        0.0015
     47 C          -7.0117   -6.4376   31.9161 C.ar    1  UNL1        0.0001
     48 C          -7.5675   -7.6260   32.4231 C.ar    1  UNL1        0.0012
     49 C          -6.8116   -8.7948   32.3200 C.ar    1  UNL1        0.0131
     50 H          -4.1369  -10.3368   31.3122 H       1  UNL1        0.1660
@<TRIPOS>BOND
     1     1     2    2
     2     2     3   am
     3     3    29    1
     4    29    40    1
     5    40    41    1
     6    41    42   ar
     7    42    43   ar
     8    43    44   ar
     9    44    45   ar
    10    45    46   ar
    11    46    47   ar
    12    47    48   ar
    13    48    49   ar
    14    29    30    1
    15    30    31    2
    16    30    32   am
    17    32    34    1
    18    34    35   ar
    19    35    36   ar
    20    36    37   ar
    21    37    38   ar
    22    38    39   ar
    23     2     5    1
    24     5     6   ar
    25     6     7   ar
    26     7     8    1
    27     7     9   ar
    28     9    13    1
    29    13    14    1
    30    14    15    1
    31    15    16    1
    32    16    19    1
    33    19    20   ar
    34    20    21   ar
    35    21    22   ar
    36    22    25    1
    37    25    26    1
    38    25    27    1
    39    25    28    1
    40    22    23   ar
    41    23    24   ar
    42    16    17    1
    43    17    18    1
    44     9    10   ar
    45    10    11   ar
    46    11    12    1
    47    49    41   ar
    48    39    34   ar
    49    11     5   ar
    50    49    44   ar
    51    18    13    1
    52    24    19   ar
    53     3     4    1
    54    43    50    1
    55    32    33    1
@<TRIPOS>MOLECULE
*****
 50 55 0 0 0
SMALL
GASTEIGER

@<TRIPOS>ATOM
      1 O          -9.4134  -10.8111   30.0748 O.2     1  UNL1       -0.2701
      2 C          -8.9589  -11.9459   30.3869 C.2     1  UNL1        0.2484
      3 N          -9.1142  -12.4307   31.7303 N.am    1  UNL1       -0.2945
      4 H          -8.9602  -13.4472   31.9190 H       1  UNL1        0.1501
      5 C          -8.3030  -12.7744   29.3500 C.ar    1  UNL1        0.0817
      6 C          -9.0000  -13.8558   28.7837 C.ar    1  UNL1        0.0194
      7 C          -8.4022  -14.6575   27.8054 C.ar    1  UNL1        0.0712
      8 CL         -9.2978  -16.0253   27.1582 Cl      1  UNL1       -0.0810
      9 C          -7.0956  -14.3777   27.3722 C.ar    1  UNL1        0.0609
     10 C          -6.4021  -13.2930   27.9233 C.ar    1  UNL1        0.0451
     11 C          -6.9981  -12.4917   28.9012 C.ar    1  UNL1        0.1457
     12 F          -6.3155  -11.4148   29.3659 F       1  UNL1       -0.2040
     13 N          -6.4697  -15.1834   26.3646 N.pl3   1  UNL1       -0.3033
     14 C          -5.6356  -16.3207   26.7583 C.3     1  UNL1        0.1123
     15 C          -4.4344  -16.4368   25.8160 C.3     1  UNL1        0.1136
     16 N          -4.8363  -16.3585   24.3995 N.pl3   1  UNL1       -0.2897
     17 C          -6.2329  -16.0496   24.0510 C.3     1  UNL1        0.1136
     18 C          -6.7889  -14.9415   24.9533 C.3     1  UNL1        0.1123
     19 C          -3.9122  -16.7556   23.3599 C.ar    1  UNL1        0.1318
     20 C          -3.6631  -15.9331   22.2467 C.ar    1  UNL1        0.0343
     21 C          -2.7622  -16.3509   21.2660 C.ar    1  UNL1        0.0083
     22 C          -2.0927  -17.5762   21.3956 C.ar    1  UNL1        0.0906
     23 C          -2.3890  -18.3822   22.5048 C.ar    1  UNL1        0.1041
     24 N          -3.2712  -17.9554   23.4464 N.ar    1  UNL1       -0.2292
     25 C          -1.1564  -18.0609   20.3182 C.3     1  UNL1        0.4200
     26 F          -1.8543  -18.7384   19.3333 F       1  UNL1       -0.1658
     27 F          -0.5150  -16.9758   19.7507 F       1  UNL1       -0.1658
     28 F          -0.2082  -18.9201   20.8462 F       1  UNL1       -0.1658
     29 C          -9.6639  -11.5916   32.7989 C.3     1  UNL1        0.1535
     30 C          -8.6910  -10.4914   33.1389 C.2     1  UNL1        0.2443
     31 O          -8.0213  -10.5641   34.2054 O.2     1  UNL1       -0.2730
     32 N          -8.4527   -9.4336   32.1952 N.am    1  UNL1       -0.2825
     33 H          -8.9325   -9.4943   31.2685 H       1  UNL1        0.1549
     34 C          -7.4070   -8.4593   32.3371 C.ar    1  UNL1        0.0535
     35 C          -7.6914   -7.0911   32.4750 C.ar    1  UNL1        0.0353
     36 C          -6.6401   -6.1802   32.6059 C.ar    1  UNL1        0.1002
     37 N          -5.3526   -6.6162   32.5875 N.ar    1  UNL1       -0.2422
     38 C          -5.0487   -7.9324   32.4368 C.ar    1  UNL1        0.1002
     39 C          -6.0694   -8.8752   32.2982 C.ar    1  UNL1        0.0353
     40 C         -11.0207  -11.0038   32.3663 C.3     1  UNL1        0.0569
     41 C         -12.0866  -12.0620   32.2961 C.ar    1  UNL1       -0.0017
     42 C         -13.0290  -12.2150   31.2836 C.ar    1  UNL1        0.0681
     43 N         -13.7424  -13.3490   31.4689 N.ar    1  UNL1       -0.3523
     44 C         -13.2494  -13.9211   32.5810 C.ar    1  UNL1        0.0563
     45 C         -13.6333  -15.1366   33.1461 C.ar    1  UNL1        0.0170
     46 C         -12.9465  -15.5750   34.2927 C.ar    1  UNL1        0.0015
     47 C         -11.9015  -14.7993   34.8413 C.ar    1  UNL1        0.0001
     48 C         -11.5346  -13.5774   34.2492 C.ar    1  UNL1        0.0012
     49 C         -12.2360  -13.1665   33.1146 C.ar    1  UNL1        0.0131
     50 H         -14.5007  -13.7177   30.8529 H       1  UNL1        0.1660
@<TRIPOS>BOND
     1     1     2    2
     2     2     3   am
     3     3    29    1
     4    29    40    1
     5    40    41    1
     6    41    42   ar
     7    42    43   ar
     8    43    44   ar
     9    44    45   ar
    10    45    46   ar
    11    46    47   ar
    12    47    48   ar
    13    48    49   ar
    14    29    30    1
    15    30    31    2
    16    30    32   am
    17    32    34    1
    18    34    35   ar
    19    35    36   ar
    20    36    37   ar
    21    37    38   ar
    22    38    39   ar
    23     2     5    1
    24     5     6   ar
    25     6     7   ar
    26     7     8    1
    27     7     9   ar
    28     9    13    1
    29    13    14    1
    30    14    15    1
    31    15    16    1
    32    16    19    1
    33    19    20   ar
    34    20    21   ar
    35    21    22   ar
    36    22    25    1
    37    25    26    1
    38    25    27    1
    39    25    28    1
    40    22    23   ar
    41    23    24   ar
    42    16    17    1
    43    17    18    1
    44     9    10   ar
    45    10    11   ar
    46    11    12    1
    47    49    41   ar
    48    39    34   ar
    49    11     5   ar
    50    49    44   ar
    51    18    13    1
    52    24    19   ar
    53     3     4    1
    54    43    50    1
    55    32    33    1
@<TRIPOS>MOLECULE
*****
 50 55 0 0 0
SMALL
GASTEIGER

@<TRIPOS>ATOM
      1 O          -8.3017  -11.8771   31.1899 O.2     1  UNL1       -0.2701
      2 C          -8.9219  -12.2005   30.1399 C.2     1  UNL1        0.2484
      3 N         -10.2719  -11.7508   29.9426 N.am    1  UNL1       -0.2945
      4 H         -10.6874  -11.8115   28.9854 H       1  UNL1        0.1501
      5 C          -8.2318  -13.0108   29.1108 C.ar    1  UNL1        0.0817
      6 C          -8.8954  -14.1061   28.5313 C.ar    1  UNL1        0.0194
      7 C          -8.2648  -14.8911   27.5600 C.ar    1  UNL1        0.0712
      8 CL         -9.1192  -16.2771   26.8958 Cl      1  UNL1       -0.0810
      9 C          -6.9586  -14.5804   27.1473 C.ar    1  UNL1        0.0609
     10 C          -6.2983  -13.4820   27.7116 C.ar    1  UNL1        0.0451
     11 C          -6.9271  -12.6972   28.6825 C.ar    1  UNL1        0.1457
     12 F          -6.2762  -11.6065   29.1603 F       1  UNL1       -0.2040
     13 N          -6.2994  -15.3687   26.1471 N.pl3   1  UNL1       -0.3033
     14 C          -5.4940  -16.5243   26.5473 C.3     1  UNL1        0.1123
     15 C          -4.2558  -16.6312   25.6530 C.3     1  UNL1        0.1136
     16 N          -4.5975  -16.5147   24.2234 N.pl3   1  UNL1       -0.2897
     17 C          -5.9752  -16.1821   23.8249 C.3     1  UNL1        0.1136
     18 C          -6.5571  -15.0897   24.7302 C.3     1  UNL1        0.1123
     19 C          -3.6349  -16.8970   23.2136 C.ar    1  UNL1        0.1318
     20 C          -3.1919  -15.9843   22.2397 C.ar    1  UNL1        0.0343
     21 C          -2.2600  -16.3912   21.2836 C.ar    1  UNL1        0.0083
     22 C          -1.7518  -17.6981   21.3019 C.ar    1  UNL1        0.0906
     23 C          -2.2392  -18.5881   22.2704 C.ar    1  UNL1        0.1041
     24 N          -3.1480  -18.1699   23.1903 N.ar    1  UNL1       -0.2292
     25 C          -0.7838  -18.1637   20.2442 C.3     1  UNL1        0.4200
     26 F          -1.4174  -18.9904   19.3326 F       1  UNL1       -0.1658
     27 F          -0.2745  -17.0648   19.5779 F       1  UNL1       -0.1658
     28 F           0.2610  -18.8692   20.8156 F       1  UNL1       -0.1658
     29 C         -11.0125  -11.0384   30.9877 C.3     1  UNL1        0.1535
     30 C         -11.0927   -9.5713   30.6501 C.2     1  UNL1        0.2443
     31 O         -12.2063   -8.9819   30.7090 O.2     1  UNL1       -0.2730
     32 N          -9.8882   -8.8357   30.3771 N.am    1  UNL1       -0.2825
     33 H          -8.9790   -9.3420   30.4753 H       1  UNL1        0.1549
     34 C          -9.8396   -7.4064   30.2454 C.ar    1  UNL1        0.0535
     35 C         -11.0092   -6.6294   30.2342 C.ar    1  UNL1        0.0353
     36 C         -10.9118   -5.2422   30.0994 C.ar    1  UNL1        0.1002
     37 N          -9.6938   -4.6528   29.9683 N.ar    1  UNL1       -0.2422
     38 C          -8.5472   -5.3826   29.9574 C.ar    1  UNL1        0.1002
     39 C          -8.6005   -6.7721   30.0848 C.ar    1  UNL1        0.0353
     40 C         -12.4227  -11.6394   31.1413 C.3     1  UNL1        0.0569
     41 C         -12.4757  -12.6537   32.2500 C.ar    1  UNL1       -0.0017
     42 C         -13.3836  -13.7023   32.3634 C.ar    1  UNL1        0.0681
     43 N         -13.0573  -14.4997   33.4059 N.ar    1  UNL1       -0.3523
     44 C         -11.9434  -13.9728   33.9430 C.ar    1  UNL1        0.0563
     45 C         -11.2029  -14.4750   35.0124 C.ar    1  UNL1        0.0170
     46 C         -10.0332  -13.7871   35.3831 C.ar    1  UNL1        0.0015
     47 C          -9.6327  -12.6276   34.6834 C.ar    1  UNL1        0.0001
     48 C         -10.3987  -12.1444   33.6073 C.ar    1  UNL1        0.0012
     49 C         -11.5559  -12.8456   33.2645 C.ar    1  UNL1        0.0131
     50 H         -13.5550  -15.3662   33.7094 H       1  UNL1        0.1660
@<TRIPOS>BOND
     1     1     2    2
     2     2     3   am
     3     3    29    1
     4    29    40    1
     5    40    41    1
     6    41    42   ar
     7    42    43   ar
     8    43    44   ar
     9    44    45   ar
    10    45    46   ar
    11    46    47   ar
    12    47    48   ar
    13    48    49   ar
    14    29    30    1
    15    30    31    2
    16    30    32   am
    17    32    34    1
    18    34    35   ar
    19    35    36   ar
    20    36    37   ar
    21    37    38   ar
    22    38    39   ar
    23     2     5    1
    24     5     6   ar
    25     6     7   ar
    26     7     8    1
    27     7     9   ar
    28     9    13    1
    29    13    14    1
    30    14    15    1
    31    15    16    1
    32    16    19    1
    33    19    20   ar
    34    20    21   ar
    35    21    22   ar
    36    22    25    1
    37    25    26    1
    38    25    27    1
    39    25    28    1
    40    22    23   ar
    41    23    24   ar
    42    16    17    1
    43    17    18    1
    44     9    10   ar
    45    10    11   ar
    46    11    12    1
    47    49    41   ar
    48    39    34   ar
    49    11     5   ar
    50    49    44   ar
    51    18    13    1
    52    24    19   ar
    53     3     4    1
    54    43    50    1
    55    32    33    1
