@<TRIPOS>MOLECULE
*****
 48 53 0 0 0
SMALL
GASTEIGER

@<TRIPOS>ATOM
      1 O          14.9045   82.1653   24.5598 O.2     1  UNL1       -0.2701
      2 C          13.6643   82.3610   24.4341 C.2     1  UNL1        0.2484
      3 N          13.2007   83.5715   23.8144 N.am    1  UNL1       -0.2945
      4 H          12.2035   83.6314   23.5101 H       1  UNL1        0.1501
      5 C          12.7165   81.3229   24.9144 C.ar    1  UNL1        0.0831
      6 C          11.4559   81.7167   25.3941 C.ar    1  UNL1        0.0082
      7 C          10.5284   80.7677   25.8274 C.ar    1  UNL1        0.0171
      8 C          10.8316   79.3983   25.7805 C.ar    1  UNL1        0.0780
      9 C          12.0898   78.9965   25.2970 C.ar    1  UNL1        0.1807
     10 F          12.4282   77.6835   25.2593 F       1  UNL1       -0.2005
     11 C          13.0232   79.9464   24.8668 C.ar    1  UNL1        0.1729
     12 F          14.2029   79.5031   24.3664 F       1  UNL1       -0.2016
     13 N           9.8571   78.4255   26.2117 N.pl3   1  UNL1       -0.3023
     14 C           8.7308   78.0839   25.3328 C.3     1  UNL1        0.1123
     15 C           7.5313   77.5999   26.1529 C.3     1  UNL1        0.1122
     16 N           7.9155   76.5344   27.0929 N.pl3   1  UNL1       -0.3040
     17 C           9.3326   76.3268   27.4274 C.3     1  UNL1        0.1122
     18 C          10.0872   77.6598   27.4464 C.3     1  UNL1        0.1123
     19 C           6.9060   75.6424   27.6163 C.ar    1  UNL1        0.0488
     20 C           6.8368   74.3069   27.1804 C.ar    1  UNL1        0.0154
     21 C           5.8623   73.4441   27.6881 C.ar    1  UNL1        0.0135
     22 C           4.9436   73.8973   28.6392 C.ar    1  UNL1        0.0683
     23 CL          3.7322   72.7807   29.2539 Cl      1  UNL1       -0.0814
     24 C           5.0030   75.2271   29.0861 C.ar    1  UNL1        0.0694
     25 CL          3.8711   75.8356   30.2866 Cl      1  UNL1       -0.0813
     26 C           5.9795   76.0909   28.5763 C.ar    1  UNL1        0.0268
     27 C          14.0901   84.7178   23.5747 C.3     1  UNL1        0.1535
     28 C          14.7536   84.6098   22.2163 C.2     1  UNL1        0.2443
     29 O          16.0111   84.6509   22.1229 O.2     1  UNL1       -0.2730
     30 N          13.9651   84.3116   21.0531 N.am    1  UNL1       -0.2825
     31 H          13.0393   83.8473   21.1954 H       1  UNL1        0.1549
     32 C          14.4069   84.5466   19.7053 C.ar    1  UNL1        0.0535
     33 C          15.4380   83.7619   19.1705 C.ar    1  UNL1        0.0353
     34 C          15.8544   83.9711   17.8535 C.ar    1  UNL1        0.1002
     35 N          15.2514   84.9203   17.0902 N.ar    1  UNL1       -0.2422
     36 C          14.2367   85.6842   17.5743 C.ar    1  UNL1        0.1002
     37 C          13.7903   85.5085   18.8865 C.ar    1  UNL1        0.0353
     38 C          13.3202   86.0477   23.7661 C.3     1  UNL1        0.0569
     39 C          13.7867   87.1326   22.8314 C.ar    1  UNL1       -0.0017
     40 C          15.0211   87.7774   22.8517 C.ar    1  UNL1        0.0681
     41 N          15.1229   88.6376   21.8134 N.ar    1  UNL1       -0.3523
     42 C          13.9668   88.5415   21.1353 C.ar    1  UNL1        0.0563
     43 C          13.6153   89.2175   19.9675 C.ar    1  UNL1        0.0170
     44 C          12.3552   88.9466   19.4043 C.ar    1  UNL1        0.0015
     45 C          11.4827   88.0200   20.0157 C.ar    1  UNL1        0.0001
     46 C          11.8628   87.3543   21.1948 C.ar    1  UNL1        0.0012
     47 C          13.1227   87.6366   21.7271 C.ar    1  UNL1        0.0131
     48 H          15.9423   89.2419   21.5810 H       1  UNL1        0.1660
@<TRIPOS>BOND
     1     1     2    2
     2     2     3   am
     3     3    27    1
     4    27    38    1
     5    38    39    1
     6    39    40   ar
     7    40    41   ar
     8    41    42   ar
     9    42    43   ar
    10    43    44   ar
    11    44    45   ar
    12    45    46   ar
    13    46    47   ar
    14    27    28    1
    15    28    29    2
    16    28    30   am
    17    30    32    1
    18    32    33   ar
    19    33    34   ar
    20    34    35   ar
    21    35    36   ar
    22    36    37   ar
    23     2     5    1
    24     5     6   ar
    25     6     7   ar
    26     7     8   ar
    27     8    13    1
    28    13    14    1
    29    14    15    1
    30    15    16    1
    31    16    19    1
    32    19    20   ar
    33    20    21   ar
    34    21    22   ar
    35    22    23    1
    36    22    24   ar
    37    24    25    1
    38    24    26   ar
    39    16    17    1
    40    17    18    1
    41     8     9   ar
    42     9    10    1
    43     9    11   ar
    44    11    12    1
    45    47    39   ar
    46    37    32   ar
    47    11     5   ar
    48    47    42   ar
    49    18    13    1
    50    26    19   ar
    51     3     4    1
    52    41    48    1
    53    30    31    1
@<TRIPOS>MOLECULE
*****
 48 53 0 0 0
SMALL
GASTEIGER

@<TRIPOS>ATOM
      1 O          10.8289   76.3088   24.2036 O.2     1  UNL1       -0.2701
      2 C           9.7591   76.7743   24.6842 C.2     1  UNL1        0.2484
      3 N           9.8093   77.5618   25.8849 N.am    1  UNL1       -0.2945
      4 H           8.9723   78.1261   26.1522 H       1  UNL1        0.1501
      5 C           8.4767   76.5103   23.9825 C.ar    1  UNL1        0.0831
      6 C           8.4379   76.5771   22.5795 C.ar    1  UNL1        0.0082
      7 C           7.2580   76.3076   21.8841 C.ar    1  UNL1        0.0171
      8 C           6.0880   75.9514   22.5723 C.ar    1  UNL1        0.0780
      9 C           6.1205   75.8778   23.9765 C.ar    1  UNL1        0.1807
     10 F           5.0036   75.5605   24.6777 F       1  UNL1       -0.2005
     11 C           7.3011   76.1524   24.6761 C.ar    1  UNL1        0.1729
     12 F           7.2901   76.0216   26.0257 F       1  UNL1       -0.2016
     13 N           4.8796   75.6550   21.8415 N.pl3   1  UNL1       -0.3023
     14 C           3.8989   76.7200   21.5930 C.3     1  UNL1        0.1123
     15 C           2.4937   76.1342   21.4265 C.3     1  UNL1        0.1122
     16 N           2.4770   75.0470   20.4344 N.pl3   1  UNL1       -0.3040
     17 C           3.7360   74.4037   20.0293 C.3     1  UNL1        0.1122
     18 C           4.7158   74.3390   21.2051 C.3     1  UNL1        0.1123
     19 C           1.2327   74.6752   19.7999 C.ar    1  UNL1        0.0488
     20 C           0.3194   75.6610   19.3849 C.ar    1  UNL1        0.0154
     21 C          -0.8822   75.3015   18.7696 C.ar    1  UNL1        0.0135
     22 C          -1.1915   73.9551   18.5560 C.ar    1  UNL1        0.0683
     23 CL         -2.7139   73.5432   17.7784 Cl      1  UNL1       -0.0814
     24 C          -0.2876   72.9603   18.9620 C.ar    1  UNL1        0.0694
     25 CL         -0.6344   71.2554   18.7057 Cl      1  UNL1       -0.0813
     26 C           0.9160   73.3216   19.5789 C.ar    1  UNL1        0.0268
     27 C          11.0080   77.6161   26.7350 C.3     1  UNL1        0.1535
     28 C          12.1193   78.3864   26.0504 C.2     1  UNL1        0.2443
     29 O          11.9420   79.5912   25.7206 O.2     1  UNL1       -0.2730
     30 N          13.4217   77.7966   25.9102 N.am    1  UNL1       -0.2825
     31 H          13.6793   77.0192   26.5599 H       1  UNL1        0.1549
     32 C          14.4148   78.2620   24.9806 C.ar    1  UNL1        0.0535
     33 C          14.7796   77.4508   23.8973 C.ar    1  UNL1        0.0353
     34 C          15.7270   77.9088   22.9784 C.ar    1  UNL1        0.1002
     35 N          16.2800   79.1416   23.1261 N.ar    1  UNL1       -0.2422
     36 C          15.9331   79.9586   24.1556 C.ar    1  UNL1        0.1002
     37 C          14.9906   79.5390   25.0976 C.ar    1  UNL1        0.0353
     38 C          10.6535   78.1821   28.1322 C.3     1  UNL1        0.0569
     39 C           9.3280   77.6841   28.6452 C.ar    1  UNL1       -0.0017
     40 C           8.1437   78.4111   28.7401 C.ar    1  UNL1        0.0681
     41 N           7.1349   77.6189   29.1677 N.ar    1  UNL1       -0.3523
     42 C           7.6683   76.3978   29.3418 C.ar    1  UNL1        0.0563
     43 C           7.0075   75.2388   29.7469 C.ar    1  UNL1        0.0170
     44 C           7.7571   74.0523   29.8395 C.ar    1  UNL1        0.0015
     45 C           9.1353   74.0511   29.5328 C.ar    1  UNL1        0.0001
     46 C           9.7765   75.2359   29.1288 C.ar    1  UNL1        0.0012
     47 C           9.0059   76.3970   29.0377 C.ar    1  UNL1        0.0131
     48 H           6.1404   77.9000   29.3172 H       1  UNL1        0.1660
@<TRIPOS>BOND
     1     1     2    2
     2     2     3   am
     3     3    27    1
     4    27    38    1
     5    38    39    1
     6    39    40   ar
     7    40    41   ar
     8    41    42   ar
     9    42    43   ar
    10    43    44   ar
    11    44    45   ar
    12    45    46   ar
    13    46    47   ar
    14    27    28    1
    15    28    29    2
    16    28    30   am
    17    30    32    1
    18    32    33   ar
    19    33    34   ar
    20    34    35   ar
    21    35    36   ar
    22    36    37   ar
    23     2     5    1
    24     5     6   ar
    25     6     7   ar
    26     7     8   ar
    27     8    13    1
    28    13    14    1
    29    14    15    1
    30    15    16    1
    31    16    19    1
    32    19    20   ar
    33    20    21   ar
    34    21    22   ar
    35    22    23    1
    36    22    24   ar
    37    24    25    1
    38    24    26   ar
    39    16    17    1
    40    17    18    1
    41     8     9   ar
    42     9    10    1
    43     9    11   ar
    44    11    12    1
    45    47    39   ar
    46    37    32   ar
    47    11     5   ar
    48    47    42   ar
    49    18    13    1
    50    26    19   ar
    51     3     4    1
    52    41    48    1
    53    30    31    1
@<TRIPOS>MOLECULE
*****
 48 53 0 0 0
SMALL
GASTEIGER

@<TRIPOS>ATOM
      1 O          10.5637   77.0002   24.4877 O.2     1  UNL1       -0.2701
      2 C           9.4621   77.5906   24.6608 C.2     1  UNL1        0.2484
      3 N           9.3841   78.6777   25.5970 N.am    1  UNL1       -0.2945
      4 H           8.5473   79.3021   25.5748 H       1  UNL1        0.1501
      5 C           8.2781   77.1562   23.8757 C.ar    1  UNL1        0.0831
      6 C           7.1354   76.7021   24.5554 C.ar    1  UNL1        0.0082
      7 C           5.9940   76.3125   23.8525 C.ar    1  UNL1        0.0171
      8 C           5.9601   76.3788   22.4511 C.ar    1  UNL1        0.0780
      9 C           7.0987   76.8370   21.7641 C.ar    1  UNL1        0.1807
     10 F           7.1122   76.8920   20.4089 F       1  UNL1       -0.2005
     11 C           8.2459   77.2233   22.4666 C.ar    1  UNL1        0.1729
     12 F           9.2989   77.7013   21.7585 F       1  UNL1       -0.2016
     13 N           4.7675   75.9930   21.7364 N.pl3   1  UNL1       -0.3023
     14 C           3.7989   77.0192   21.3283 C.3     1  UNL1        0.1123
     15 C           2.3947   76.4202   21.2057 C.3     1  UNL1        0.1122
     16 N           2.3950   75.2134   20.3631 N.pl3   1  UNL1       -0.3040
     17 C           3.6596   74.5197   20.0753 C.3     1  UNL1        0.1122
     18 C           4.6113   74.6059   21.2726 C.3     1  UNL1        0.1123
     19 C           1.1639   74.7653   19.7528 C.ar    1  UNL1        0.0488
     20 C           0.1928   75.6941   19.3371 C.ar    1  UNL1        0.0154
     21 C          -0.9961   75.2610   18.7452 C.ar    1  UNL1        0.0135
     22 C          -1.2351   73.8967   18.5558 C.ar    1  UNL1        0.0683
     23 CL         -2.7438   73.3915   17.8071 Cl      1  UNL1       -0.0814
     24 C          -0.2731   72.9584   18.9626 C.ar    1  UNL1        0.0694
     25 CL         -0.5307   71.2335   18.7364 Cl      1  UNL1       -0.0813
     26 C           0.9178   73.3934   19.5563 C.ar    1  UNL1        0.0268
     27 C          10.4540   78.9522   26.5678 C.3     1  UNL1        0.1535
     28 C          11.7425   79.3197   25.8595 C.2     1  UNL1        0.2443
     29 O          11.8771   80.4652   25.3478 O.2     1  UNL1       -0.2730
     30 N          12.8646   78.4236   25.8981 N.am    1  UNL1       -0.2825
     31 H          12.9019   77.7191   26.6696 H       1  UNL1        0.1549
     32 C          13.9721   78.4884   24.9836 C.ar    1  UNL1        0.0535
     33 C          14.8849   79.5478   25.0795 C.ar    1  UNL1        0.0353
     34 C          15.9756   79.6021   24.2082 C.ar    1  UNL1        0.1002
     35 N          16.1586   78.6235   23.2829 N.ar    1  UNL1       -0.2422
     36 C          15.3013   77.5740   23.1776 C.ar    1  UNL1        0.1002
     37 C          14.1970   77.4818   24.0285 C.ar    1  UNL1        0.0353
     38 C           9.9971   80.0265   27.5852 C.3     1  UNL1        0.0569
     39 C           9.4730   79.4325   28.8661 C.ar    1  UNL1       -0.0017
     40 C          10.1314   79.3808   30.0924 C.ar    1  UNL1        0.0681
     41 N           9.3259   78.8504   31.0401 N.ar    1  UNL1       -0.3523
     42 C           8.1642   78.5684   30.4266 C.ar    1  UNL1        0.0563
     43 C           7.0137   78.0325   31.0039 C.ar    1  UNL1        0.0170
     44 C           5.8913   77.8406   30.1784 C.ar    1  UNL1        0.0015
     45 C           5.9440   78.1807   28.8090 C.ar    1  UNL1        0.0001
     46 C           7.1189   78.7176   28.2528 C.ar    1  UNL1        0.0012
     47 C           8.2150   78.9049   29.0977 C.ar    1  UNL1        0.0131
     48 H           9.5590   78.7045   32.0476 H       1  UNL1        0.1660
@<TRIPOS>BOND
     1     1     2    2
     2     2     3   am
     3     3    27    1
     4    27    38    1
     5    38    39    1
     6    39    40   ar
     7    40    41   ar
     8    41    42   ar
     9    42    43   ar
    10    43    44   ar
    11    44    45   ar
    12    45    46   ar
    13    46    47   ar
    14    27    28    1
    15    28    29    2
    16    28    30   am
    17    30    32    1
    18    32    33   ar
    19    33    34   ar
    20    34    35   ar
    21    35    36   ar
    22    36    37   ar
    23     2     5    1
    24     5     6   ar
    25     6     7   ar
    26     7     8   ar
    27     8    13    1
    28    13    14    1
    29    14    15    1
    30    15    16    1
    31    16    19    1
    32    19    20   ar
    33    20    21   ar
    34    21    22   ar
    35    22    23    1
    36    22    24   ar
    37    24    25    1
    38    24    26   ar
    39    16    17    1
    40    17    18    1
    41     8     9   ar
    42     9    10    1
    43     9    11   ar
    44    11    12    1
    45    47    39   ar
    46    37    32   ar
    47    11     5   ar
    48    47    42   ar
    49    18    13    1
    50    26    19   ar
    51     3     4    1
    52    41    48    1
    53    30    31    1
@<TRIPOS>MOLECULE
*****
 48 53 0 0 0
SMALL
GASTEIGER

@<TRIPOS>ATOM
      1 O          10.0791   77.1276   26.1739 O.2     1  UNL1       -0.2701
      2 C           8.8955   77.4407   26.4789 C.2     1  UNL1        0.2484
      3 N           8.6451   78.1363   27.7109 N.am    1  UNL1       -0.2945
      4 H           7.7145   78.5879   27.8539 H       1  UNL1        0.1501
      5 C           7.7933   77.0972   25.5440 C.ar    1  UNL1        0.0831
      6 C           8.1081   76.6592   24.2466 C.ar    1  UNL1        0.0082
      7 C           7.1003   76.3007   23.3497 C.ar    1  UNL1        0.0171
      8 C           5.7508   76.3581   23.7305 C.ar    1  UNL1        0.0780
      9 C           5.4284   76.7911   25.0293 C.ar    1  UNL1        0.1807
     10 F           4.1344   76.8829   25.4256 F       1  UNL1       -0.2005
     11 C           6.4369   77.1558   25.9285 C.ar    1  UNL1        0.1729
     12 F           6.0740   77.5212   27.1829 F       1  UNL1       -0.2016
     13 N           4.7187   75.9654   22.8017 N.pl3   1  UNL1       -0.3023
     14 C           3.8190   76.9817   22.2401 C.3     1  UNL1        0.1123
     15 C           2.4750   76.3594   21.8506 C.3     1  UNL1        0.1122
     16 N           2.6570   75.1709   21.0016 N.pl3   1  UNL1       -0.3040
     17 C           3.9680   74.5072   20.9396 C.3     1  UNL1        0.1122
     18 C           4.6812   74.5857   22.2930 C.3     1  UNL1        0.1123
     19 C           1.5693   74.7130   20.1672 C.ar    1  UNL1        0.0488
     20 C           0.8851   75.6109   19.3283 C.ar    1  UNL1        0.0154
     21 C          -0.1648   75.1678   18.5202 C.ar    1  UNL1        0.0135
     22 C          -0.5476   73.8234   18.5333 C.ar    1  UNL1        0.0683
     23 CL         -1.8739   73.3047   17.5017 Cl      1  UNL1       -0.0814
     24 C           0.1288   72.9150   19.3632 C.ar    1  UNL1        0.0694
     25 CL         -0.3160   71.2141   19.4046 Cl      1  UNL1       -0.0813
     26 C           1.1803   73.3603   20.1730 C.ar    1  UNL1        0.0268
     27 C           9.6641   78.2520   28.7648 C.3     1  UNL1        0.1535
     28 C           9.7249   79.6679   29.3020 C.2     1  UNL1        0.2443
     29 O          10.3868   80.5485   28.6870 O.2     1  UNL1       -0.2730
     30 N           8.9122   80.0461   30.4246 N.am    1  UNL1       -0.2825
     31 H           8.0660   79.4685   30.6327 H       1  UNL1        0.1549
     32 C           9.1534   81.2123   31.2301 C.ar    1  UNL1        0.0535
     33 C           9.6791   82.3664   30.6333 C.ar    1  UNL1        0.0353
     34 C           9.8930   83.5094   31.4075 C.ar    1  UNL1        0.1002
     35 N           9.5778   83.5064   32.7296 N.ar    1  UNL1       -0.2422
     36 C           9.0495   82.4089   33.3329 C.ar    1  UNL1        0.1002
     37 C           8.8207   81.2445   32.5955 C.ar    1  UNL1        0.0353
     38 C           9.4184   77.1968   29.8713 C.3     1  UNL1        0.0569
     39 C           7.9615   76.8536   30.0381 C.ar    1  UNL1       -0.0017
     40 C           7.0101   77.5784   30.7520 C.ar    1  UNL1        0.0681
     41 N           5.7874   77.0173   30.6158 N.ar    1  UNL1       -0.3523
     42 C           5.9552   75.9468   29.8211 C.ar    1  UNL1        0.0563
     43 C           4.9709   75.0676   29.3714 C.ar    1  UNL1        0.0170
     44 C           5.3636   74.0206   28.5184 C.ar    1  UNL1        0.0015
     45 C           6.7164   73.8746   28.1410 C.ar    1  UNL1        0.0001
     46 C           7.6887   74.7752   28.6117 C.ar    1  UNL1        0.0012
     47 C           7.2689   75.8099   29.4505 C.ar    1  UNL1        0.0131
     48 H           4.8935   77.3588   31.0338 H       1  UNL1        0.1660
@<TRIPOS>BOND
     1     1     2    2
     2     2     3   am
     3     3    27    1
     4    27    38    1
     5    38    39    1
     6    39    40   ar
     7    40    41   ar
     8    41    42   ar
     9    42    43   ar
    10    43    44   ar
    11    44    45   ar
    12    45    46   ar
    13    46    47   ar
    14    27    28    1
    15    28    29    2
    16    28    30   am
    17    30    32    1
    18    32    33   ar
    19    33    34   ar
    20    34    35   ar
    21    35    36   ar
    22    36    37   ar
    23     2     5    1
    24     5     6   ar
    25     6     7   ar
    26     7     8   ar
    27     8    13    1
    28    13    14    1
    29    14    15    1
    30    15    16    1
    31    16    19    1
    32    19    20   ar
    33    20    21   ar
    34    21    22   ar
    35    22    23    1
    36    22    24   ar
    37    24    25    1
    38    24    26   ar
    39    16    17    1
    40    17    18    1
    41     8     9   ar
    42     9    10    1
    43     9    11   ar
    44    11    12    1
    45    47    39   ar
    46    37    32   ar
    47    11     5   ar
    48    47    42   ar
    49    18    13    1
    50    26    19   ar
    51     3     4    1
    52    41    48    1
    53    30    31    1
@<TRIPOS>MOLECULE
*****
 48 53 0 0 0
SMALL
GASTEIGER

@<TRIPOS>ATOM
      1 O          14.8967   82.3448   24.0768 O.2     1  UNL1       -0.2701
      2 C          13.7162   82.7187   24.3194 C.2     1  UNL1        0.2484
      3 N          13.3438   84.0839   24.0711 N.am    1  UNL1       -0.2945
      4 H          12.3301   84.3345   24.0560 H       1  UNL1        0.1501
      5 C          12.7370   81.7293   24.8383 C.ar    1  UNL1        0.0831
      6 C          11.4403   82.1583   25.1681 C.ar    1  UNL1        0.0082
      7 C          10.4848   81.2525   25.6318 C.ar    1  UNL1        0.0171
      8 C          10.7965   79.8907   25.7660 C.ar    1  UNL1        0.0780
      9 C          12.0911   79.4533   25.4332 C.ar    1  UNL1        0.1807
     10 F          12.4369   78.1491   25.5727 F       1  UNL1       -0.2005
     11 C          13.0522   80.3605   24.9728 C.ar    1  UNL1        0.1729
     12 F          14.2702   79.8789   24.6216 F       1  UNL1       -0.2016
     13 N           9.7944   78.9603   26.2267 N.pl3   1  UNL1       -0.3023
     14 C           9.2849   79.0599   27.6009 C.3     1  UNL1        0.1123
     15 C           8.7866   77.6983   28.0937 C.3     1  UNL1        0.1122
     16 N           7.8469   77.0899   27.1382 N.pl3   1  UNL1       -0.3040
     17 C           7.7834   77.5853   25.7549 C.3     1  UNL1        0.1122
     18 C           9.1676   78.0317   25.2736 C.3     1  UNL1        0.1123
     19 C           6.9308   76.0661   27.5872 C.ar    1  UNL1        0.0488
     20 C           6.9866   74.7694   27.0453 C.ar    1  UNL1        0.0154
     21 C           6.1026   73.7793   27.4810 C.ar    1  UNL1        0.0135
     22 C           5.1512   74.0647   28.4647 C.ar    1  UNL1        0.0683
     23 CL          4.0563   72.7915   28.9864 Cl      1  UNL1       -0.0814
     24 C           5.0863   75.3539   29.0172 C.ar    1  UNL1        0.0694
     25 CL          3.9097   75.7530   30.2617 Cl      1  UNL1       -0.0813
     26 C           5.9723   76.3454   28.5794 C.ar    1  UNL1        0.0268
     27 C          14.3421   85.1328   23.8150 C.3     1  UNL1        0.1535
     28 C          14.8256   85.0772   22.3797 C.2     1  UNL1        0.2443
     29 O          16.0583   85.1639   22.1249 O.2     1  UNL1       -0.2730
     30 N          13.9018   84.7770   21.3213 N.am    1  UNL1       -0.2825
     31 H          13.0176   84.2780   21.5705 H       1  UNL1        0.1549
     32 C          14.1562   85.0563   19.9341 C.ar    1  UNL1        0.0535
     33 C          13.6415   86.2269   19.3603 C.ar    1  UNL1        0.0353
     34 C          13.9060   86.5139   18.0189 C.ar    1  UNL1        0.1002
     35 N          14.6720   85.6695   17.2790 N.ar    1  UNL1       -0.2422
     36 C          15.2005   84.5362   17.8120 C.ar    1  UNL1        0.1002
     37 C          14.9595   84.2109   19.1491 C.ar    1  UNL1        0.0353
     38 C          13.7799   86.5209   24.2090 C.3     1  UNL1        0.0569
     39 C          14.5882   87.1941   25.2867 C.ar    1  UNL1       -0.0017
     40 C          14.2340   87.3425   26.6256 C.ar    1  UNL1        0.0681
     41 N          15.2381   87.9245   27.3193 N.ar    1  UNL1       -0.3523
     42 C          16.2247   88.1434   26.4336 C.ar    1  UNL1        0.0563
     43 C          17.4781   88.6990   26.6875 C.ar    1  UNL1        0.0170
     44 C          18.3770   88.8140   25.6118 C.ar    1  UNL1        0.0015
     45 C          18.0065   88.3798   24.3205 C.ar    1  UNL1        0.0001
     46 C          16.7343   87.8250   24.0929 C.ar    1  UNL1        0.0012
     47 C          15.8654   87.7155   25.1808 C.ar    1  UNL1        0.0131
     48 H          15.2465   88.1444   28.3401 H       1  UNL1        0.1660
@<TRIPOS>BOND
     1     1     2    2
     2     2     3   am
     3     3    27    1
     4    27    38    1
     5    38    39    1
     6    39    40   ar
     7    40    41   ar
     8    41    42   ar
     9    42    43   ar
    10    43    44   ar
    11    44    45   ar
    12    45    46   ar
    13    46    47   ar
    14    27    28    1
    15    28    29    2
    16    28    30   am
    17    30    32    1
    18    32    33   ar
    19    33    34   ar
    20    34    35   ar
    21    35    36   ar
    22    36    37   ar
    23     2     5    1
    24     5     6   ar
    25     6     7   ar
    26     7     8   ar
    27     8    13    1
    28    13    14    1
    29    14    15    1
    30    15    16    1
    31    16    19    1
    32    19    20   ar
    33    20    21   ar
    34    21    22   ar
    35    22    23    1
    36    22    24   ar
    37    24    25    1
    38    24    26   ar
    39    16    17    1
    40    17    18    1
    41     8     9   ar
    42     9    10    1
    43     9    11   ar
    44    11    12    1
    45    47    39   ar
    46    37    32   ar
    47    11     5   ar
    48    47    42   ar
    49    18    13    1
    50    26    19   ar
    51     3     4    1
    52    41    48    1
    53    30    31    1
@<TRIPOS>MOLECULE
*****
 48 53 0 0 0
SMALL
GASTEIGER

@<TRIPOS>ATOM
      1 O          10.3169   75.1947   26.1541 O.2     1  UNL1       -0.2701
      2 C           9.7067   76.1571   25.6124 C.2     1  UNL1        0.2484
      3 N           8.3544   75.9717   25.1636 N.am    1  UNL1       -0.2945
      4 H           7.7826   76.8129   24.9273 H       1  UNL1        0.1501
      5 C          10.3989   77.4639   25.4707 C.ar    1  UNL1        0.0831
      6 C           9.8232   78.6091   26.0461 C.ar    1  UNL1        0.0082
      7 C          10.4585   79.8489   25.9580 C.ar    1  UNL1        0.0171
      8 C          11.6933   79.9745   25.3031 C.ar    1  UNL1        0.0780
      9 C          12.2780   78.8315   24.7288 C.ar    1  UNL1        0.1807
     10 F          13.4587   78.9179   24.0668 F       1  UNL1       -0.2005
     11 C          11.6404   77.5883   24.8117 C.ar    1  UNL1        0.1729
     12 F          12.2694   76.5102   24.2819 F       1  UNL1       -0.2016
     13 N          12.3505   81.2573   25.2362 N.pl3   1  UNL1       -0.3023
     14 C          13.6633   81.4371   25.8704 C.3     1  UNL1        0.1123
     15 C          13.8784   82.9012   26.2645 C.3     1  UNL1        0.1122
     16 N          13.6187   83.8075   25.1342 N.pl3   1  UNL1       -0.3040
     17 C          12.8621   83.3278   23.9678 C.3     1  UNL1        0.1122
     18 C          11.7869   82.3231   24.3935 C.3     1  UNL1        0.1123
     19 C          14.1822   85.1385   25.1389 C.ar    1  UNL1        0.0488
     20 C          14.5752   85.7525   23.9360 C.ar    1  UNL1        0.0154
     21 C          15.1177   87.0399   23.9405 C.ar    1  UNL1        0.0135
     22 C          15.2748   87.7363   25.1424 C.ar    1  UNL1        0.0683
     23 CL         15.9615   89.3547   25.1062 Cl      1  UNL1       -0.0814
     24 C          14.8835   87.1372   26.3504 C.ar    1  UNL1        0.0694
     25 CL         15.0570   87.9810   27.8835 Cl      1  UNL1       -0.0813
     26 C          14.3405   85.8468   26.3449 C.ar    1  UNL1        0.0268
     27 C           7.7442   74.6386   25.0491 C.3     1  UNL1        0.1535
     28 C           6.5071   74.5362   25.9187 C.2     1  UNL1        0.2443
     29 O           5.4775   75.2072   25.6333 O.2     1  UNL1       -0.2730
     30 N           6.4517   73.5676   26.9781 N.am    1  UNL1       -0.2825
     31 H           7.0925   72.7435   26.9217 H       1  UNL1        0.1549
     32 C           5.5171   73.6277   28.0690 C.ar    1  UNL1        0.0535
     33 C           4.6670   72.5396   28.3100 C.ar    1  UNL1        0.0353
     34 C           3.7738   72.5841   29.3832 C.ar    1  UNL1        0.1002
     35 N           3.7411   73.6710   30.1987 N.ar    1  UNL1       -0.2422
     36 C           4.5656   74.7336   30.0019 C.ar    1  UNL1        0.1002
     37 C           5.4730   74.7305   28.9396 C.ar    1  UNL1        0.0353
     38 C           7.4679   74.2973   23.5641 C.3     1  UNL1        0.0569
     39 C           8.6622   74.5352   22.6780 C.ar    1  UNL1       -0.0017
     40 C           8.9119   75.6627   21.8993 C.ar    1  UNL1        0.0681
     41 N          10.1195   75.5654   21.2989 N.ar    1  UNL1       -0.3523
     42 C          10.6372   74.3893   21.6919 C.ar    1  UNL1        0.0563
     43 C          11.8832   73.8617   21.3552 C.ar    1  UNL1        0.0170
     44 C          12.2401   72.6163   21.9027 C.ar    1  UNL1        0.0015
     45 C          11.3527   71.9317   22.7615 C.ar    1  UNL1        0.0001
     46 C          10.1009   72.4869   23.0822 C.ar    1  UNL1        0.0012
     47 C           9.7765   73.7283   22.5308 C.ar    1  UNL1        0.0131
     48 H          10.5626   76.2710   20.6693 H       1  UNL1        0.1660
@<TRIPOS>BOND
     1     1     2    2
     2     2     3   am
     3     3    27    1
     4    27    38    1
     5    38    39    1
     6    39    40   ar
     7    40    41   ar
     8    41    42   ar
     9    42    43   ar
    10    43    44   ar
    11    44    45   ar
    12    45    46   ar
    13    46    47   ar
    14    27    28    1
    15    28    29    2
    16    28    30   am
    17    30    32    1
    18    32    33   ar
    19    33    34   ar
    20    34    35   ar
    21    35    36   ar
    22    36    37   ar
    23     2     5    1
    24     5     6   ar
    25     6     7   ar
    26     7     8   ar
    27     8    13    1
    28    13    14    1
    29    14    15    1
    30    15    16    1
    31    16    19    1
    32    19    20   ar
    33    20    21   ar
    34    21    22   ar
    35    22    23    1
    36    22    24   ar
    37    24    25    1
    38    24    26   ar
    39    16    17    1
    40    17    18    1
    41     8     9   ar
    42     9    10    1
    43     9    11   ar
    44    11    12    1
    45    47    39   ar
    46    37    32   ar
    47    11     5   ar
    48    47    42   ar
    49    18    13    1
    50    26    19   ar
    51     3     4    1
    52    41    48    1
    53    30    31    1
@<TRIPOS>MOLECULE
*****
 48 53 0 0 0
SMALL
GASTEIGER

@<TRIPOS>ATOM
      1 O          14.4861   82.4371   24.2230 O.2     1  UNL1       -0.2701
      2 C          13.2675   82.6841   24.4378 C.2     1  UNL1        0.2484
      3 N          12.7607   84.0049   24.1864 N.am    1  UNL1       -0.2945
      4 H          11.7270   84.1484   24.1472 H       1  UNL1        0.1501
      5 C          12.3846   81.5945   24.9276 C.ar    1  UNL1        0.0831
      6 C          11.0809   81.9070   25.3483 C.ar    1  UNL1        0.0082
      7 C          10.2133   80.9059   25.7882 C.ar    1  UNL1        0.0171
      8 C          10.6216   79.5634   25.8071 C.ar    1  UNL1        0.0780
      9 C          11.9237   79.2425   25.3829 C.ar    1  UNL1        0.1807
     10 F          12.3625   77.9593   25.4098 F       1  UNL1       -0.2005
     11 C          12.7970   80.2451   24.9461 C.ar    1  UNL1        0.1729
     12 F          14.0247   79.8762   24.5040 F       1  UNL1       -0.2016
     13 N           9.7091   78.5348   26.2443 N.pl3   1  UNL1       -0.3023
     14 C           8.9381   77.7749   25.2513 C.3     1  UNL1        0.1123
     15 C           7.6338   77.2537   25.8617 C.3     1  UNL1        0.1122
     16 N           7.8781   76.5353   27.1229 N.pl3   1  UNL1       -0.3040
     17 C           9.1557   76.7085   27.8305 C.3     1  UNL1        0.1122
     18 C           9.6818   78.1371   27.6603 C.3     1  UNL1        0.1123
     19 C           6.8948   75.5974   27.6153 C.ar    1  UNL1        0.0488
     20 C           6.8340   74.2897   27.1010 C.ar    1  UNL1        0.0154
     21 C           5.8851   73.3825   27.5786 C.ar    1  UNL1        0.0135
     22 C           4.9838   73.7629   28.5772 C.ar    1  UNL1        0.0683
     23 CL          3.8043   72.5921   29.1519 Cl      1  UNL1       -0.0814
     24 C           5.0352   75.0640   29.1025 C.ar    1  UNL1        0.0694
     25 CL          3.9249   75.5810   30.3645 Cl      1  UNL1       -0.0813
     26 C           5.9861   75.9725   28.6227 C.ar    1  UNL1        0.0268
     27 C          13.6500   85.1540   23.9601 C.3     1  UNL1        0.1535
     28 C          14.1475   85.7173   25.2763 C.2     1  UNL1        0.2443
     29 O          14.3833   84.9441   26.2450 O.2     1  UNL1       -0.2730
     30 N          14.4931   87.1079   25.3779 N.am    1  UNL1       -0.2825
     31 H          14.7223   87.6209   24.4963 H       1  UNL1        0.1549
     32 C          14.6138   87.8132   26.6250 C.ar    1  UNL1        0.0535
     33 C          13.5207   87.8574   27.5012 C.ar    1  UNL1        0.0353
     34 C          13.6411   88.5216   28.7243 C.ar    1  UNL1        0.1002
     35 N          14.8177   89.1081   29.0690 N.ar    1  UNL1       -0.2422
     36 C          15.9009   89.0664   28.2489 C.ar    1  UNL1        0.1002
     37 C          15.8231   88.4137   27.0161 C.ar    1  UNL1        0.0353
     38 C          14.7988   84.7659   22.9971 C.3     1  UNL1        0.0569
     39 C          15.2802   85.9252   22.1649 C.ar    1  UNL1       -0.0017
     40 C          14.7540   86.3547   20.9489 C.ar    1  UNL1        0.0681
     41 N          15.3841   87.4752   20.5297 N.ar    1  UNL1       -0.3523
     42 C          16.3016   87.7602   21.4692 C.ar    1  UNL1        0.0563
     43 C          17.1773   88.8450   21.4913 C.ar    1  UNL1        0.0170
     44 C          18.0445   88.9684   22.5917 C.ar    1  UNL1        0.0015
     45 C          18.0205   88.0139   23.6318 C.ar    1  UNL1        0.0001
     46 C          17.1280   86.9281   23.5822 C.ar    1  UNL1        0.0012
     47 C          16.2730   86.8353   22.4819 C.ar    1  UNL1        0.0131
     48 H          15.1848   88.0149   19.6583 H       1  UNL1        0.1660
@<TRIPOS>BOND
     1     1     2    2
     2     2     3   am
     3     3    27    1
     4    27    38    1
     5    38    39    1
     6    39    40   ar
     7    40    41   ar
     8    41    42   ar
     9    42    43   ar
    10    43    44   ar
    11    44    45   ar
    12    45    46   ar
    13    46    47   ar
    14    27    28    1
    15    28    29    2
    16    28    30   am
    17    30    32    1
    18    32    33   ar
    19    33    34   ar
    20    34    35   ar
    21    35    36   ar
    22    36    37   ar
    23     2     5    1
    24     5     6   ar
    25     6     7   ar
    26     7     8   ar
    27     8    13    1
    28    13    14    1
    29    14    15    1
    30    15    16    1
    31    16    19    1
    32    19    20   ar
    33    20    21   ar
    34    21    22   ar
    35    22    23    1
    36    22    24   ar
    37    24    25    1
    38    24    26   ar
    39    16    17    1
    40    17    18    1
    41     8     9   ar
    42     9    10    1
    43     9    11   ar
    44    11    12    1
    45    47    39   ar
    46    37    32   ar
    47    11     5   ar
    48    47    42   ar
    49    18    13    1
    50    26    19   ar
    51     3     4    1
    52    41    48    1
    53    30    31    1
@<TRIPOS>MOLECULE
*****
 48 53 0 0 0
SMALL
GASTEIGER

@<TRIPOS>ATOM
      1 O          10.4963   75.0583   25.6053 O.2     1  UNL1       -0.2701
      2 C           9.7931   76.0896   25.4212 C.2     1  UNL1        0.2484
      3 N           8.3728   75.9538   25.2521 N.am    1  UNL1       -0.2945
      4 H           7.7733   76.8057   25.3259 H       1  UNL1        0.1501
      5 C          10.4529   77.4205   25.4036 C.ar    1  UNL1        0.0831
      6 C          11.6258   77.5928   24.6494 C.ar    1  UNL1        0.0082
      7 C          12.2580   78.8357   24.5861 C.ar    1  UNL1        0.0171
      8 C          11.7269   79.9433   25.2649 C.ar    1  UNL1        0.0780
      9 C          10.5504   79.7794   26.0180 C.ar    1  UNL1        0.1807
     10 F          10.0207   80.8206   26.7072 F       1  UNL1       -0.2005
     11 C           9.9176   78.5330   26.0869 C.ar    1  UNL1        0.1729
     12 F           8.7609   78.4407   26.7885 F       1  UNL1       -0.2016
     13 N          12.3777   81.2280   25.1753 N.pl3   1  UNL1       -0.3023
     14 C          13.7221   81.4044   25.7403 C.3     1  UNL1        0.1123
     15 C          13.9557   82.8652   26.1363 C.3     1  UNL1        0.1122
     16 N          13.6347   83.7816   25.0302 N.pl3   1  UNL1       -0.3040
     17 C          12.8177   83.3114   23.9013 C.3     1  UNL1        0.1122
     18 C          11.7683   82.3005   24.3741 C.3     1  UNL1        0.1123
     19 C          14.1955   85.1136   25.0176 C.ar    1  UNL1        0.0488
     20 C          14.5768   85.7172   23.8057 C.ar    1  UNL1        0.0154
     21 C          15.1168   87.0055   23.7934 C.ar    1  UNL1        0.0135
     22 C          15.2830   87.7134   24.9873 C.ar    1  UNL1        0.0683
     23 CL         15.9662   89.3327   24.9301 Cl      1  UNL1       -0.0814
     24 C          14.9035   87.1248   26.2042 C.ar    1  UNL1        0.0694
     25 CL         15.0888   87.9833   27.7279 Cl      1  UNL1       -0.0813
     26 C          14.3630   85.8335   26.2155 C.ar    1  UNL1        0.0268
     27 C           7.7358   74.6522   25.0021 C.3     1  UNL1        0.1535
     28 C           6.5071   74.4780   25.8722 C.2     1  UNL1        0.2443
     29 O           5.4142   75.0108   25.5352 O.2     1  UNL1       -0.2730
     30 N           6.5446   73.5871   26.9985 N.am    1  UNL1       -0.2825
     31 H           7.2715   72.8358   27.0041 H       1  UNL1        0.1549
     32 C           5.5965   73.6228   28.0788 C.ar    1  UNL1        0.0535
     33 C           4.7253   72.5412   28.2681 C.ar    1  UNL1        0.0353
     34 C           3.8184   72.5612   29.3306 C.ar    1  UNL1        0.1002
     35 N           3.7927   73.6176   30.1854 N.ar    1  UNL1       -0.2422
     36 C           4.6372   74.6725   30.0389 C.ar    1  UNL1        0.1002
     37 C           5.5588   74.6932   28.9890 C.ar    1  UNL1        0.0353
     38 C           7.4358   74.4791   23.4928 C.3     1  UNL1        0.0569
     39 C           8.6572   74.6586   22.6301 C.ar    1  UNL1       -0.0017
     40 C           8.9871   75.7810   21.8743 C.ar    1  UNL1        0.0681
     41 N          10.1968   75.6208   21.2920 N.ar    1  UNL1       -0.3523
     42 C          10.6366   74.4098   21.6738 C.ar    1  UNL1        0.0563
     43 C          11.8544   73.8136   21.3486 C.ar    1  UNL1        0.0170
     44 C          12.1268   72.5407   21.8813 C.ar    1  UNL1        0.0015
     45 C          11.1856   71.8974   22.7142 C.ar    1  UNL1        0.0001
     46 C           9.9639   72.5216   23.0238 C.ar    1  UNL1        0.0012
     47 C           9.7237   73.7887   22.4877 C.ar    1  UNL1        0.0131
     48 H          10.6920   76.3081   20.6813 H       1  UNL1        0.1660
@<TRIPOS>BOND
     1     1     2    2
     2     2     3   am
     3     3    27    1
     4    27    38    1
     5    38    39    1
     6    39    40   ar
     7    40    41   ar
     8    41    42   ar
     9    42    43   ar
    10    43    44   ar
    11    44    45   ar
    12    45    46   ar
    13    46    47   ar
    14    27    28    1
    15    28    29    2
    16    28    30   am
    17    30    32    1
    18    32    33   ar
    19    33    34   ar
    20    34    35   ar
    21    35    36   ar
    22    36    37   ar
    23     2     5    1
    24     5     6   ar
    25     6     7   ar
    26     7     8   ar
    27     8    13    1
    28    13    14    1
    29    14    15    1
    30    15    16    1
    31    16    19    1
    32    19    20   ar
    33    20    21   ar
    34    21    22   ar
    35    22    23    1
    36    22    24   ar
    37    24    25    1
    38    24    26   ar
    39    16    17    1
    40    17    18    1
    41     8     9   ar
    42     9    10    1
    43     9    11   ar
    44    11    12    1
    45    47    39   ar
    46    37    32   ar
    47    11     5   ar
    48    47    42   ar
    49    18    13    1
    50    26    19   ar
    51     3     4    1
    52    41    48    1
    53    30    31    1
@<TRIPOS>MOLECULE
*****
 48 53 0 0 0
SMALL
GASTEIGER

@<TRIPOS>ATOM
      1 O          14.4375   82.8529   24.0624 O.2     1  UNL1       -0.2701
      2 C          13.2433   83.0708   24.4069 C.2     1  UNL1        0.2484
      3 N          12.7227   84.4082   24.3394 N.am    1  UNL1       -0.2945
      4 H          11.6903   84.5505   24.4054 H       1  UNL1        0.1501
      5 C          12.4014   81.9321   24.8555 C.ar    1  UNL1        0.0831
      6 C          11.0441   82.1559   25.1420 C.ar    1  UNL1        0.0082
      7 C          10.2154   81.1051   25.5389 C.ar    1  UNL1        0.0171
      8 C          10.7186   79.7996   25.6476 C.ar    1  UNL1        0.0780
      9 C          12.0751   79.5672   25.3578 C.ar    1  UNL1        0.1807
     10 F          12.6034   78.3234   25.4749 F       1  UNL1       -0.2005
     11 C          12.9091   80.6201   24.9645 C.ar    1  UNL1        0.1729
     12 F          14.1971   80.3335   24.6519 F       1  UNL1       -0.2016
     13 N           9.8475   78.7178   26.0388 N.pl3   1  UNL1       -0.3023
     14 C           8.9460   78.1140   25.0485 C.3     1  UNL1        0.1123
     15 C           7.7172   77.5084   25.7330 C.3     1  UNL1        0.1122
     16 N           8.1012   76.6108   26.8344 N.pl3   1  UNL1       -0.3040
     17 C           9.4592   76.6765   27.3951 C.3     1  UNL1        0.1122
     18 C           9.9872   78.1144   27.3729 C.3     1  UNL1        0.1123
     19 C           7.1685   75.6105   27.3018 C.ar    1  UNL1        0.0488
     20 C           6.9703   74.4228   26.5749 C.ar    1  UNL1        0.0154
     21 C           6.0704   73.4551   27.0279 C.ar    1  UNL1        0.0135
     22 C           5.3561   73.6541   28.2130 C.ar    1  UNL1        0.0683
     23 CL          4.2328   72.4123   28.7499 Cl      1  UNL1       -0.0814
     24 C           5.5465   74.8333   28.9509 C.ar    1  UNL1        0.0694
     25 CL          4.6737   75.1201   30.4505 Cl      1  UNL1       -0.0813
     26 C           6.4481   75.8027   28.4957 C.ar    1  UNL1        0.0268
     27 C          13.5943   85.5786   24.1575 C.3     1  UNL1        0.1535
     28 C          14.0732   86.1065   25.4951 C.2     1  UNL1        0.2443
     29 O          14.8041   85.3890   26.2319 O.2     1  UNL1       -0.2730
     30 N          13.8220   87.4731   25.8598 N.am    1  UNL1       -0.2825
     31 H          13.6291   88.1567   25.0929 H       1  UNL1        0.1549
     32 C          13.8939   87.9674   27.2080 C.ar    1  UNL1        0.0535
     33 C          15.1460   88.1387   27.8143 C.ar    1  UNL1        0.0353
     34 C          15.2214   88.6410   29.1157 C.ar    1  UNL1        0.1002
     35 N          14.0866   88.9765   29.7841 N.ar    1  UNL1       -0.2422
     36 C          12.8592   88.8392   29.2164 C.ar    1  UNL1        0.1002
     37 C          12.7387   88.3395   27.9174 C.ar    1  UNL1        0.0353
     38 C          14.7562   85.2413   23.1909 C.3     1  UNL1        0.0569
     39 C          14.3894   85.4417   21.7440 C.ar    1  UNL1       -0.0017
     40 C          14.7888   84.6561   20.6655 C.ar    1  UNL1        0.0681
     41 N          14.2013   85.0837   19.5252 N.ar    1  UNL1       -0.3523
     42 C          13.4326   86.1299   19.8717 C.ar    1  UNL1        0.0563
     43 C          12.6086   86.8841   19.0373 C.ar    1  UNL1        0.0170
     44 C          11.8637   87.9273   19.6162 C.ar    1  UNL1        0.0015
     45 C          11.9606   88.1932   20.9995 C.ar    1  UNL1        0.0001
     46 C          12.8017   87.4174   21.8171 C.ar    1  UNL1        0.0012
     47 C          13.5232   86.3831   21.2169 C.ar    1  UNL1        0.0131
     48 H          14.3140   84.6718   18.5722 H       1  UNL1        0.1660
@<TRIPOS>BOND
     1     1     2    2
     2     2     3   am
     3     3    27    1
     4    27    38    1
     5    38    39    1
     6    39    40   ar
     7    40    41   ar
     8    41    42   ar
     9    42    43   ar
    10    43    44   ar
    11    44    45   ar
    12    45    46   ar
    13    46    47   ar
    14    27    28    1
    15    28    29    2
    16    28    30   am
    17    30    32    1
    18    32    33   ar
    19    33    34   ar
    20    34    35   ar
    21    35    36   ar
    22    36    37   ar
    23     2     5    1
    24     5     6   ar
    25     6     7   ar
    26     7     8   ar
    27     8    13    1
    28    13    14    1
    29    14    15    1
    30    15    16    1
    31    16    19    1
    32    19    20   ar
    33    20    21   ar
    34    21    22   ar
    35    22    23    1
    36    22    24   ar
    37    24    25    1
    38    24    26   ar
    39    16    17    1
    40    17    18    1
    41     8     9   ar
    42     9    10    1
    43     9    11   ar
    44    11    12    1
    45    47    39   ar
    46    37    32   ar
    47    11     5   ar
    48    47    42   ar
    49    18    13    1
    50    26    19   ar
    51     3     4    1
    52    41    48    1
    53    30    31    1
