@<TRIPOS>MOLECULE
*****
 38 42 0 0 0
SMALL
GASTEIGER

@<TRIPOS>ATOM
      1 C         -23.1565   -7.9037  -10.5650 C.2     1  UNL1        0.2506
      2 O         -24.2187   -7.2670  -10.3259 O.2     1  UNL1       -0.2699
      3 N         -22.9333   -8.4627  -11.8750 N.am    1  UNL1       -0.2680
      4 C         -22.2810   -9.7695  -12.0117 C.3     1  UNL1        0.1412
      5 C         -20.8389   -9.5919  -12.4832 C.3     1  UNL1        0.2269
      6 O         -20.6950   -8.4325  -13.3014 O.3     1  UNL1       -0.4716
      7 C         -21.4807   -8.2163  -14.4359 C.ar    1  UNL1        0.1634
      8 C         -20.8494   -8.1903  -15.6842 C.ar    1  UNL1        0.1735
      9 F         -19.5059   -8.3589  -15.7673 F       1  UNL1       -0.2010
     10 C         -21.5927   -8.0096  -16.8507 C.ar    1  UNL1        0.0328
     11 C         -22.9833   -7.8335  -16.7886 C.ar    1  UNL1        0.0022
     12 C         -23.6144   -7.8333  -15.5327 C.ar    1  UNL1        0.0005
     13 C         -22.8814   -8.0261  -14.3485 C.ar    1  UNL1        0.0339
     14 C         -23.6249   -7.8751  -13.0315 C.3     1  UNL1        0.1236
     15 C         -23.7721   -7.6349  -18.0307 C.ar    1  UNL1        0.0016
     16 C         -24.4337   -6.3985  -18.2752 C.ar    1  UNL1        0.0016
     17 C         -25.1841   -6.2017  -19.4496 C.ar    1  UNL1        0.0206
     18 C         -25.2548   -7.2530  -20.3572 C.ar    1  UNL1        0.0985
     19 N         -25.9107   -7.2851  -21.5311 N.ar    1  UNL1       -0.2241
     20 C         -25.6443   -8.5360  -21.9916 C.ar    1  UNL1        0.1750
     21 N         -24.8619   -9.2635  -21.1585 N.ar    1  UNL1       -0.3349
     22 C         -24.6250   -8.4377  -20.1327 C.ar    1  UNL1        0.0757
     23 C         -23.8725   -8.6756  -18.9861 C.ar    1  UNL1        0.0185
     24 H         -24.5235  -10.2425  -21.2900 H       1  UNL1        0.1675
     25 C         -22.4708   -8.6347   -8.2470 C.ar    1  UNL1        0.0503
     26 C         -21.4791   -8.6923   -7.2473 C.ar    1  UNL1        0.0328
     27 C         -20.2016   -8.1652   -7.4723 C.ar    1  UNL1        0.1069
     28 C         -19.8981   -7.5872   -8.7079 C.ar    1  UNL1        0.0186
     29 C         -20.8675   -7.5212   -9.7075 C.ar    1  UNL1        0.0071
     30 C         -22.1510   -8.0435   -9.4931 C.ar    1  UNL1        0.0667
     31 S         -18.9723   -8.2668   -6.2161 S.O2    1  UNL1        0.0105
     32 C         -19.7447   -8.6783   -4.6684 C.3     1  UNL1        0.1816
     33 O         -18.2638   -6.9471   -6.0912 O.2     1  UNL1       -0.1686
     34 O         -17.9639   -9.3238   -6.5702 O.2     1  UNL1       -0.1686
     35 N         -23.7743   -9.2171   -8.0285 N.pl3   1  UNL1       -0.3325
     36 H         -24.4788   -8.6873   -7.4677 H       1  UNL1        0.1468
     37 C         -25.6811  -10.5343   -8.8588 C.3     1  UNL1        0.0229
     38 C         -24.1907  -10.5266   -8.5337 C.3     1  UNL1        0.0871
@<TRIPOS>BOND
     1    37    38    1
     2    38    35    1
     3    35    25    1
     4    25    26   ar
     5    26    27   ar
     6    27    31    1
     7    31    32    1
     8    31    33    2
     9    31    34    2
    10    27    28   ar
    11    28    29   ar
    12    29    30   ar
    13    30     1    1
    14     1     2    2
    15     1     3   am
    16     3     4    1
    17     4     5    1
    18     5     6    1
    19     6     7    1
    20     7     8   ar
    21     8     9    1
    22     8    10   ar
    23    10    11   ar
    24    11    15    1
    25    15    16   ar
    26    16    17   ar
    27    17    18   ar
    28    18    19   ar
    29    19    20   ar
    30    20    21   ar
    31    21    22   ar
    32    22    23   ar
    33    11    12   ar
    34    12    13   ar
    35    13    14    1
    36    30    25   ar
    37    14     3    1
    38    13     7   ar
    39    23    15   ar
    40    22    18   ar
    41    35    36    1
    42    21    24    1
@<TRIPOS>MOLECULE
*****
 38 42 0 0 0
SMALL
GASTEIGER

@<TRIPOS>ATOM
      1 C         -20.7785   -7.7416   -9.3233 C.2     1  UNL1        0.2506
      2 O         -20.4608   -6.5313   -9.1651 O.2     1  UNL1       -0.2699
      3 N         -22.0694   -8.0803   -9.8684 N.am    1  UNL1       -0.2680
      4 C         -22.7998   -9.2430   -9.3520 C.3     1  UNL1        0.1412
      5 C         -22.7266  -10.3971  -10.3501 C.3     1  UNL1        0.2269
      6 O         -22.6372   -9.9232  -11.6923 O.3     1  UNL1       -0.4716
      7 C         -23.5652   -9.0298  -12.2328 C.ar    1  UNL1        0.1634
      8 C         -24.3677   -9.4677  -13.2918 C.ar    1  UNL1        0.1735
      9 F         -24.2228  -10.7267  -13.7758 F       1  UNL1       -0.2010
     10 C         -25.3316   -8.6253  -13.8460 C.ar    1  UNL1        0.0328
     11 C         -25.4992   -7.3194  -13.3612 C.ar    1  UNL1        0.0022
     12 C         -24.6752   -6.8703  -12.3148 C.ar    1  UNL1        0.0005
     13 C         -23.7072   -7.7107  -11.7373 C.ar    1  UNL1        0.0339
     14 C         -22.7724   -7.0985  -10.7069 C.3     1  UNL1        0.1236
     15 C         -26.5213   -6.4219  -13.9565 C.ar    1  UNL1        0.0016
     16 C         -26.1497   -5.1497  -14.4756 C.ar    1  UNL1        0.0016
     17 C         -27.1121   -4.2922  -15.0411 C.ar    1  UNL1        0.0206
     18 C         -28.4313   -4.7310  -15.0743 C.ar    1  UNL1        0.0985
     19 N         -29.5035   -4.0812  -15.5616 N.ar    1  UNL1       -0.2241
     20 C         -30.5165   -4.9595  -15.3369 C.ar    1  UNL1        0.1750
     21 N         -30.1145   -6.1068  -14.7392 N.ar    1  UNL1       -0.3349
     22 C         -28.7956   -5.9455  -14.5818 C.ar    1  UNL1        0.0757
     23 C         -27.8778   -6.8250  -14.0145 C.ar    1  UNL1        0.0185
     24 H         -30.7014   -6.9262  -14.4660 H       1  UNL1        0.1675
     25 C         -19.3005   -8.9136   -7.6441 C.ar    1  UNL1        0.0503
     26 C         -18.3331   -9.9027   -7.3759 C.ar    1  UNL1        0.0328
     27 C         -17.8646  -10.7430   -8.3931 C.ar    1  UNL1        0.1069
     28 C         -18.3712  -10.6117   -9.6888 C.ar    1  UNL1        0.0186
     29 C         -19.3278   -9.6381   -9.9718 C.ar    1  UNL1        0.0071
     30 C         -19.8030   -8.7892   -8.9618 C.ar    1  UNL1        0.0667
     31 S         -16.6709  -11.9853   -8.0304 S.O2    1  UNL1        0.0105
     32 C         -15.4134  -11.9783   -9.2875 C.3     1  UNL1        0.1816
     33 O         -17.3363  -13.3324   -7.9901 O.2     1  UNL1       -0.1686
     34 O         -16.0430  -11.7173   -6.6913 O.2     1  UNL1       -0.1686
     35 N         -19.8140   -8.0765   -6.5849 N.pl3   1  UNL1       -0.3325
     36 H         -20.5389   -7.3592   -6.8119 H       1  UNL1        0.1468
     37 C         -20.4307   -8.8440   -4.3286 C.3     1  UNL1        0.0229
     38 C         -19.3797   -8.1491   -5.1887 C.3     1  UNL1        0.0871
@<TRIPOS>BOND
     1    37    38    1
     2    38    35    1
     3    35    25    1
     4    25    26   ar
     5    26    27   ar
     6    27    31    1
     7    31    32    1
     8    31    33    2
     9    31    34    2
    10    27    28   ar
    11    28    29   ar
    12    29    30   ar
    13    30     1    1
    14     1     2    2
    15     1     3   am
    16     3     4    1
    17     4     5    1
    18     5     6    1
    19     6     7    1
    20     7     8   ar
    21     8     9    1
    22     8    10   ar
    23    10    11   ar
    24    11    15    1
    25    15    16   ar
    26    16    17   ar
    27    17    18   ar
    28    18    19   ar
    29    19    20   ar
    30    20    21   ar
    31    21    22   ar
    32    22    23   ar
    33    11    12   ar
    34    12    13   ar
    35    13    14    1
    36    30    25   ar
    37    14     3    1
    38    13     7   ar
    39    23    15   ar
    40    22    18   ar
    41    35    36    1
    42    21    24    1
@<TRIPOS>MOLECULE
*****
 38 42 0 0 0
SMALL
GASTEIGER

@<TRIPOS>ATOM
      1 C         -23.4595   -7.9969  -10.6325 C.2     1  UNL1        0.2506
      2 O         -24.5935   -7.4847  -10.4264 O.2     1  UNL1       -0.2699
      3 N         -23.1284   -8.5074  -11.9395 N.am    1  UNL1       -0.2680
      4 C         -22.3313   -9.7322  -12.0665 C.3     1  UNL1        0.1412
      5 C         -20.9014   -9.3899  -12.4810 C.3     1  UNL1        0.2269
      6 O         -20.8567   -8.2090  -13.2796 O.3     1  UNL1       -0.4716
      7 C         -21.6197   -8.0627  -14.4405 C.ar    1  UNL1        0.1634
      8 C         -20.9502   -7.9479  -15.6636 C.ar    1  UNL1        0.1735
      9 F         -19.5942   -7.9664  -15.6978 F       1  UNL1       -0.2010
     10 C         -21.6660   -7.8316  -16.8553 C.ar    1  UNL1        0.0328
     11 C         -23.0689   -7.8104  -16.8439 C.ar    1  UNL1        0.0022
     12 C         -23.7414   -7.8993  -15.6129 C.ar    1  UNL1        0.0005
     13 C         -23.0351   -8.0290  -14.4040 C.ar    1  UNL1        0.0339
     14 C         -23.8382   -7.9812  -13.1144 C.3     1  UNL1        0.1236
     15 C         -23.8291   -7.6802  -18.1125 C.ar    1  UNL1        0.0016
     16 C         -24.5120   -6.4707  -18.4234 C.ar    1  UNL1        0.0016
     17 C         -25.2357   -6.3387  -19.6235 C.ar    1  UNL1        0.0206
     18 C         -25.2585   -7.4266  -20.4893 C.ar    1  UNL1        0.0985
     19 N         -25.8823   -7.5210  -21.6773 N.ar    1  UNL1       -0.2241
     20 C         -25.5755   -8.7825  -22.0800 C.ar    1  UNL1        0.1750
     21 N         -24.7989   -9.4574  -21.1987 N.ar    1  UNL1       -0.3349
     22 C         -24.6079   -8.5860  -20.2014 C.ar    1  UNL1        0.0757
     23 C         -23.8805   -8.7602  -19.0274 C.ar    1  UNL1        0.0185
     24 H         -24.4348  -10.4326  -21.2819 H       1  UNL1        0.1675
     25 C         -21.2646   -7.3254   -9.5792 C.ar    1  UNL1        0.0503
     26 C         -20.3540   -7.4512   -8.5109 C.ar    1  UNL1        0.0328
     27 C         -20.6397   -8.2781   -7.4178 C.ar    1  UNL1        0.1069
     28 C         -21.8487   -8.9777   -7.3753 C.ar    1  UNL1        0.0186
     29 C         -22.7603   -8.8655   -8.4239 C.ar    1  UNL1        0.0071
     30 C         -22.4844   -8.0422   -9.5250 C.ar    1  UNL1        0.0667
     31 S         -19.4963   -8.4038   -6.0849 S.O2    1  UNL1        0.0105
     32 C         -18.3075   -9.6755   -6.4470 C.3     1  UNL1        0.1816
     33 O         -20.2292   -8.7443   -4.8177 O.2     1  UNL1       -0.1686
     34 O         -18.7861   -7.0929   -5.8938 O.2     1  UNL1       -0.1686
     35 N         -20.9875   -6.4389  -10.6853 N.pl3   1  UNL1       -0.3325
     36 H         -20.5728   -6.8332  -11.5595 H       1  UNL1        0.1468
     37 C         -22.5941   -4.6751  -11.2921 C.3     1  UNL1        0.0229
     38 C         -21.2377   -4.9965  -10.6723 C.3     1  UNL1        0.0871
@<TRIPOS>BOND
     1    37    38    1
     2    38    35    1
     3    35    25    1
     4    25    26   ar
     5    26    27   ar
     6    27    31    1
     7    31    32    1
     8    31    33    2
     9    31    34    2
    10    27    28   ar
    11    28    29   ar
    12    29    30   ar
    13    30     1    1
    14     1     2    2
    15     1     3   am
    16     3     4    1
    17     4     5    1
    18     5     6    1
    19     6     7    1
    20     7     8   ar
    21     8     9    1
    22     8    10   ar
    23    10    11   ar
    24    11    15    1
    25    15    16   ar
    26    16    17   ar
    27    17    18   ar
    28    18    19   ar
    29    19    20   ar
    30    20    21   ar
    31    21    22   ar
    32    22    23   ar
    33    11    12   ar
    34    12    13   ar
    35    13    14    1
    36    30    25   ar
    37    14     3    1
    38    13     7   ar
    39    23    15   ar
    40    22    18   ar
    41    35    36    1
    42    21    24    1
@<TRIPOS>MOLECULE
*****
 38 42 0 0 0
SMALL
GASTEIGER

@<TRIPOS>ATOM
      1 C         -22.2554  -10.8758  -12.0517 C.2     1  UNL1        0.2506
      2 O         -23.0349  -11.8461  -12.2561 O.2     1  UNL1       -0.2699
      3 N         -22.5367   -9.5914  -12.6427 N.am    1  UNL1       -0.2680
      4 C         -21.4377   -8.7623  -13.1494 C.3     1  UNL1        0.1412
      5 C         -21.1636   -7.6062  -12.1892 C.3     1  UNL1        0.2269
      6 O         -22.3494   -7.1984  -11.5095 O.3     1  UNL1       -0.4716
      7 C         -23.5155   -6.8406  -12.1904 C.ar    1  UNL1        0.1634
      8 C         -23.9649   -5.5198  -12.0864 C.ar    1  UNL1        0.1735
      9 F         -23.2790   -4.6287  -11.3276 F       1  UNL1       -0.2010
     10 C         -25.1061   -5.1034  -12.7722 C.ar    1  UNL1        0.0328
     11 C         -25.8310   -6.0077  -13.5630 C.ar    1  UNL1        0.0022
     12 C         -25.3946   -7.3411  -13.6466 C.ar    1  UNL1        0.0005
     13 C         -24.2398   -7.7740  -12.9714 C.ar    1  UNL1        0.0339
     14 C         -23.9212   -9.2596  -13.0091 C.3     1  UNL1        0.1236
     15 C         -27.0491   -5.5644  -14.2871 C.ar    1  UNL1        0.0016
     16 C         -28.2927   -6.2243  -14.0781 C.ar    1  UNL1        0.0016
     17 C         -29.4524   -5.8112  -14.7607 C.ar    1  UNL1        0.0206
     18 C         -29.3392   -4.7409  -15.6412 C.ar    1  UNL1        0.0985
     19 N         -30.3074   -4.1864  -16.3925 N.ar    1  UNL1       -0.2241
     20 C         -29.6488   -3.1961  -17.0509 C.ar    1  UNL1        0.1750
     21 N         -28.3327   -3.1215  -16.7382 N.ar    1  UNL1       -0.3349
     22 C         -28.1553   -4.1032  -15.8465 C.ar    1  UNL1        0.0757
     23 C         -26.9845   -4.4777  -15.1931 C.ar    1  UNL1        0.0185
     24 H         -27.6234   -2.4510  -17.1091 H       1  UNL1        0.1675
     25 C         -20.7859  -10.2062  -10.1100 C.ar    1  UNL1        0.0503
     26 C         -19.6161  -10.4241   -9.3548 C.ar    1  UNL1        0.0328
     27 C         -18.7453  -11.4750   -9.6674 C.ar    1  UNL1        0.1069
     28 C         -19.0443  -12.3296  -10.7319 C.ar    1  UNL1        0.0186
     29 C         -20.1967  -12.1279  -11.4898 C.ar    1  UNL1        0.0071
     30 C         -21.0753  -11.0775  -11.1879 C.ar    1  UNL1        0.0667
     31 S         -17.3003  -11.7406   -8.6972 S.O2    1  UNL1        0.0105
     32 C         -17.5151  -10.9850   -7.1021 C.3     1  UNL1        0.1816
     33 O         -16.1085  -11.1362   -9.3854 O.2     1  UNL1       -0.1686
     34 O         -17.0619  -13.2148   -8.5261 O.2     1  UNL1       -0.1686
     35 N         -21.7048   -9.1484   -9.7596 N.pl3   1  UNL1       -0.3325
     36 H         -21.7278   -8.2826  -10.3439 H       1  UNL1        0.1468
     37 C         -24.0711   -9.2136   -9.0840 C.3     1  UNL1        0.0229
     38 C         -22.6191   -9.1914   -8.6170 C.3     1  UNL1        0.0871
@<TRIPOS>BOND
     1    37    38    1
     2    38    35    1
     3    35    25    1
     4    25    26   ar
     5    26    27   ar
     6    27    31    1
     7    31    32    1
     8    31    33    2
     9    31    34    2
    10    27    28   ar
    11    28    29   ar
    12    29    30   ar
    13    30     1    1
    14     1     2    2
    15     1     3   am
    16     3     4    1
    17     4     5    1
    18     5     6    1
    19     6     7    1
    20     7     8   ar
    21     8     9    1
    22     8    10   ar
    23    10    11   ar
    24    11    15    1
    25    15    16   ar
    26    16    17   ar
    27    17    18   ar
    28    18    19   ar
    29    19    20   ar
    30    20    21   ar
    31    21    22   ar
    32    22    23   ar
    33    11    12   ar
    34    12    13   ar
    35    13    14    1
    36    30    25   ar
    37    14     3    1
    38    13     7   ar
    39    23    15   ar
    40    22    18   ar
    41    35    36    1
    42    21    24    1
@<TRIPOS>MOLECULE
*****
 38 42 0 0 0
SMALL
GASTEIGER

@<TRIPOS>ATOM
      1 C         -22.0944  -11.0220  -12.2670 C.2     1  UNL1        0.2506
      2 O         -22.8639  -11.9956  -12.4925 O.2     1  UNL1       -0.2699
      3 N         -22.4087   -9.7195  -12.7988 N.am    1  UNL1       -0.2680
      4 C         -21.3346   -8.8533  -13.2966 C.3     1  UNL1        0.1412
      5 C         -21.0552   -7.7326  -12.2969 C.3     1  UNL1        0.2269
      6 O         -22.2305   -7.3713  -11.5741 O.3     1  UNL1       -0.4716
      7 C         -23.4175   -7.0050  -12.2128 C.ar    1  UNL1        0.1634
      8 C         -23.8841   -5.6968  -12.0450 C.ar    1  UNL1        0.1735
      9 F         -23.1938   -4.8262  -11.2666 F       1  UNL1       -0.2010
     10 C         -25.0473   -5.2713  -12.6868 C.ar    1  UNL1        0.0328
     11 C         -25.7771   -6.1545  -13.4967 C.ar    1  UNL1        0.0022
     12 C         -25.3230   -7.4764  -13.6444 C.ar    1  UNL1        0.0005
     13 C         -24.1462   -7.9176  -13.0141 C.ar    1  UNL1        0.0339
     14 C         -23.8063   -9.3953  -13.1194 C.3     1  UNL1        0.1236
     15 C         -27.0185   -5.7019  -14.1739 C.ar    1  UNL1        0.0016
     16 C         -28.2436   -6.3990  -13.9758 C.ar    1  UNL1        0.0016
     17 C         -29.4250   -5.9773  -14.6142 C.ar    1  UNL1        0.0206
     18 C         -29.3521   -4.8611  -15.4405 C.ar    1  UNL1        0.0985
     19 N         -30.3466   -4.2906  -16.1439 N.ar    1  UNL1       -0.2241
     20 C         -29.7223   -3.2537  -16.7628 C.ar    1  UNL1        0.1750
     21 N         -28.4021   -3.1661  -16.4715 N.ar    1  UNL1       -0.3349
     22 C         -28.1862   -4.1879  -15.6350 C.ar    1  UNL1        0.0757
     23 C         -26.9950   -4.5693  -15.0240 C.ar    1  UNL1        0.0185
     24 H         -27.7146   -2.4620  -16.8208 H       1  UNL1        0.1675
     25 C         -20.1766  -12.4612  -11.4741 C.ar    1  UNL1        0.0503
     26 C         -19.0658  -12.6235  -10.6220 C.ar    1  UNL1        0.0328
     27 C         -18.6780  -11.6025   -9.7459 C.ar    1  UNL1        0.1069
     28 C         -19.3901  -10.4003   -9.7240 C.ar    1  UNL1        0.0186
     29 C         -20.4918  -10.2233  -10.5595 C.ar    1  UNL1        0.0071
     30 C         -20.8912  -11.2395  -11.4395 C.ar    1  UNL1        0.0667
     31 S         -17.2745  -11.8196   -8.7052 S.O2    1  UNL1        0.0105
     32 C         -17.5567  -10.9934   -7.1563 C.3     1  UNL1        0.1816
     33 O         -16.0557  -11.2433   -9.3697 O.2     1  UNL1       -0.1686
     34 O         -17.0418  -13.2838   -8.4577 O.2     1  UNL1       -0.1686
     35 N         -20.5491  -13.4986  -12.4074 N.pl3   1  UNL1       -0.3325
     36 H         -21.1484  -14.2875  -12.0760 H       1  UNL1        0.1468
     37 C         -21.3087  -13.8936  -14.7155 C.3     1  UNL1        0.0229
     38 C         -20.1334  -13.5372  -13.8107 C.3     1  UNL1        0.0871
@<TRIPOS>BOND
     1    37    38    1
     2    38    35    1
     3    35    25    1
     4    25    26   ar
     5    26    27   ar
     6    27    31    1
     7    31    32    1
     8    31    33    2
     9    31    34    2
    10    27    28   ar
    11    28    29   ar
    12    29    30   ar
    13    30     1    1
    14     1     2    2
    15     1     3   am
    16     3     4    1
    17     4     5    1
    18     5     6    1
    19     6     7    1
    20     7     8   ar
    21     8     9    1
    22     8    10   ar
    23    10    11   ar
    24    11    15    1
    25    15    16   ar
    26    16    17   ar
    27    17    18   ar
    28    18    19   ar
    29    19    20   ar
    30    20    21   ar
    31    21    22   ar
    32    22    23   ar
    33    11    12   ar
    34    12    13   ar
    35    13    14    1
    36    30    25   ar
    37    14     3    1
    38    13     7   ar
    39    23    15   ar
    40    22    18   ar
    41    35    36    1
    42    21    24    1
@<TRIPOS>MOLECULE
*****
 38 42 0 0 0
SMALL
GASTEIGER

@<TRIPOS>ATOM
      1 C         -24.8510   -6.0718  -12.7555 C.2     1  UNL1        0.2506
      2 O         -24.4726   -5.2977  -11.8344 O.2     1  UNL1       -0.2699
      3 N         -24.0302   -7.1956  -13.1321 N.am    1  UNL1       -0.2680
      4 C         -23.9211   -7.5822  -14.5429 C.3     1  UNL1        0.1412
      5 C         -24.7437   -8.8415  -14.8094 C.3     1  UNL1        0.2269
      6 O         -24.8064   -9.6791  -13.6567 O.3     1  UNL1       -0.4716
      7 C         -23.6606  -10.1236  -12.9927 C.ar    1  UNL1        0.1634
      8 C         -23.3899  -11.4961  -12.9844 C.ar    1  UNL1        0.1735
      9 F         -24.2385  -12.3576  -13.5993 F       1  UNL1       -0.2010
     10 C         -22.2422  -11.9884  -12.3628 C.ar    1  UNL1        0.0328
     11 C         -21.3504  -11.1159  -11.7209 C.ar    1  UNL1        0.0022
     12 C         -21.6356   -9.7397  -11.7064 C.ar    1  UNL1        0.0005
     13 C         -22.7817   -9.2261  -12.3384 C.ar    1  UNL1        0.0339
     14 C         -23.0797   -7.7469  -12.1555 C.3     1  UNL1        0.1236
     15 C         -20.1326  -11.6422  -11.0542 C.ar    1  UNL1        0.0016
     16 C         -19.6848  -12.9684  -11.3124 C.ar    1  UNL1        0.0016
     17 C         -18.5318  -13.4758  -10.6844 C.ar    1  UNL1        0.0206
     18 C         -17.8500  -12.6388   -9.8079 C.ar    1  UNL1        0.0985
     19 N         -16.7373  -12.9138   -9.1038 N.ar    1  UNL1       -0.2241
     20 C         -16.5161  -11.7572   -8.4248 C.ar    1  UNL1        0.1750
     21 N         -17.4360  -10.7961   -8.6802 N.ar    1  UNL1       -0.3349
     22 C         -18.2696  -11.3696   -9.5558 C.ar    1  UNL1        0.0757
     23 C         -19.4032  -10.8272  -10.1544 C.ar    1  UNL1        0.0185
     24 H         -17.4810   -9.8311   -8.2836 H       1  UNL1        0.1675
     25 C         -27.2350   -6.7123  -13.2886 C.ar    1  UNL1        0.0503
     26 C         -28.4282   -6.4362  -13.9858 C.ar    1  UNL1        0.0328
     27 C         -28.5372   -5.3033  -14.8014 C.ar    1  UNL1        0.1069
     28 C         -27.4562   -4.4253  -14.9161 C.ar    1  UNL1        0.0186
     29 C         -26.2682   -4.6837  -14.2341 C.ar    1  UNL1        0.0071
     30 C         -26.1462   -5.8163  -13.4162 C.ar    1  UNL1        0.0667
     31 S         -30.0447   -4.9675  -15.6467 S.O2    1  UNL1        0.0105
     32 C         -30.9959   -3.7931  -14.7100 C.3     1  UNL1        0.1816
     33 O         -30.8303   -6.2387  -15.8082 O.2     1  UNL1       -0.1686
     34 O         -29.7534   -4.4042  -17.0095 O.2     1  UNL1       -0.1686
     35 N         -27.1388   -7.8579  -12.4142 N.pl3   1  UNL1       -0.3325
     36 H         -26.8465   -8.7778  -12.8141 H       1  UNL1        0.1468
     37 C         -26.3537   -8.5576  -10.1884 C.3     1  UNL1        0.0229
     38 C         -27.4365   -7.8322  -10.9810 C.3     1  UNL1        0.0871
@<TRIPOS>BOND
     1    37    38    1
     2    38    35    1
     3    35    25    1
     4    25    26   ar
     5    26    27   ar
     6    27    31    1
     7    31    32    1
     8    31    33    2
     9    31    34    2
    10    27    28   ar
    11    28    29   ar
    12    29    30   ar
    13    30     1    1
    14     1     2    2
    15     1     3   am
    16     3     4    1
    17     4     5    1
    18     5     6    1
    19     6     7    1
    20     7     8   ar
    21     8     9    1
    22     8    10   ar
    23    10    11   ar
    24    11    15    1
    25    15    16   ar
    26    16    17   ar
    27    17    18   ar
    28    18    19   ar
    29    19    20   ar
    30    20    21   ar
    31    21    22   ar
    32    22    23   ar
    33    11    12   ar
    34    12    13   ar
    35    13    14    1
    36    30    25   ar
    37    14     3    1
    38    13     7   ar
    39    23    15   ar
    40    22    18   ar
    41    35    36    1
    42    21    24    1
@<TRIPOS>MOLECULE
*****
 38 42 0 0 0
SMALL
GASTEIGER

@<TRIPOS>ATOM
      1 C         -22.3191   -9.6484  -11.3860 C.2     1  UNL1        0.2506
      2 O         -23.0255   -9.0458  -10.5323 O.2     1  UNL1       -0.2699
      3 N         -22.6454   -9.5505  -12.7868 N.am    1  UNL1       -0.2680
      4 C         -22.4913  -10.7208  -13.6578 C.3     1  UNL1        0.1412
      5 C         -21.2510  -10.5647  -14.5357 C.3     1  UNL1        0.2269
      6 O         -20.9854   -9.1939  -14.8271 O.3     1  UNL1       -0.4716
      7 C         -21.9443   -8.3512  -15.3943 C.ar    1  UNL1        0.1634
      8 C         -21.7015   -7.8366  -16.6724 C.ar    1  UNL1        0.1735
      9 F         -20.5518   -8.1492  -17.3212 F       1  UNL1       -0.2010
     10 C         -22.6413   -7.0161  -17.2965 C.ar    1  UNL1        0.0328
     11 C         -23.8373   -6.6799  -16.6444 C.ar    1  UNL1        0.0022
     12 C         -24.0698   -7.1754  -15.3498 C.ar    1  UNL1        0.0005
     13 C         -23.1382   -8.0132  -14.7117 C.ar    1  UNL1        0.0339
     14 C         -23.4100   -8.3892  -13.2643 C.3     1  UNL1        0.1236
     15 C         -24.8337   -5.8013  -17.3074 C.ar    1  UNL1        0.0016
     16 C         -24.9271   -5.7594  -18.7271 C.ar    1  UNL1        0.0016
     17 C         -25.8683   -4.9289  -19.3641 C.ar    1  UNL1        0.0206
     18 C         -26.6990   -4.1557  -18.5603 C.ar    1  UNL1        0.0985
     19 N         -27.6588   -3.2985  -18.9518 N.ar    1  UNL1       -0.2241
     20 C         -28.1415   -2.8265  -17.7719 C.ar    1  UNL1        0.1750
     21 N         -27.5247   -3.3525  -16.6864 N.ar    1  UNL1       -0.3349
     22 C         -26.6179   -4.1900  -17.2029 C.ar    1  UNL1        0.0757
     23 C         -25.7031   -4.9962  -16.5315 C.ar    1  UNL1        0.0185
     24 H         -27.7158   -3.1492  -15.6801 H       1  UNL1        0.1675
     25 C         -20.1160   -9.8367  -10.1658 C.ar    1  UNL1        0.0503
     26 C         -19.0060  -10.6246   -9.8005 C.ar    1  UNL1        0.0328
     27 C         -18.9194  -11.9668  -10.1894 C.ar    1  UNL1        0.1069
     28 C         -19.9519  -12.5399  -10.9366 C.ar    1  UNL1        0.0186
     29 C         -21.0566  -11.7748  -11.3072 C.ar    1  UNL1        0.0071
     30 C         -21.1535  -10.4289  -10.9257 C.ar    1  UNL1        0.0667
     31 S         -17.5330  -12.9375   -9.7041 S.O2    1  UNL1        0.0105
     32 C         -16.2169  -11.8632   -9.1796 C.3     1  UNL1        0.1816
     33 O         -17.0692  -13.7751  -10.8627 O.2     1  UNL1       -0.1686
     34 O         -17.9170  -13.8498   -8.5729 O.2     1  UNL1       -0.1686
     35 N         -20.2240   -8.4647   -9.7275 N.pl3   1  UNL1       -0.3325
     36 H         -19.9884   -7.6984  -10.3974 H       1  UNL1        0.1468
     37 C         -19.4610   -8.1138   -7.4134 C.3     1  UNL1        0.0229
     38 C         -20.6367   -8.0555   -8.3837 C.3     1  UNL1        0.0871
@<TRIPOS>BOND
     1    37    38    1
     2    38    35    1
     3    35    25    1
     4    25    26   ar
     5    26    27   ar
     6    27    31    1
     7    31    32    1
     8    31    33    2
     9    31    34    2
    10    27    28   ar
    11    28    29   ar
    12    29    30   ar
    13    30     1    1
    14     1     2    2
    15     1     3   am
    16     3     4    1
    17     4     5    1
    18     5     6    1
    19     6     7    1
    20     7     8   ar
    21     8     9    1
    22     8    10   ar
    23    10    11   ar
    24    11    15    1
    25    15    16   ar
    26    16    17   ar
    27    17    18   ar
    28    18    19   ar
    29    19    20   ar
    30    20    21   ar
    31    21    22   ar
    32    22    23   ar
    33    11    12   ar
    34    12    13   ar
    35    13    14    1
    36    30    25   ar
    37    14     3    1
    38    13     7   ar
    39    23    15   ar
    40    22    18   ar
    41    35    36    1
    42    21    24    1
@<TRIPOS>MOLECULE
*****
 38 42 0 0 0
SMALL
GASTEIGER

@<TRIPOS>ATOM
      1 C         -21.4452   -7.1136   -9.9976 C.2     1  UNL1        0.2506
      2 O         -21.0940   -5.9030  -10.0416 O.2     1  UNL1       -0.2699
      3 N         -22.7880   -7.4861  -10.3669 N.am    1  UNL1       -0.2680
      4 C         -23.4842   -8.5438   -9.6263 C.3     1  UNL1        0.1412
      5 C         -23.5264   -9.8268  -10.4543 C.3     1  UNL1        0.2269
      6 O         -23.5590   -9.5463  -11.8524 O.3     1  UNL1       -0.4716
      7 C         -24.5201   -8.7093  -12.4243 C.ar    1  UNL1        0.1634
      8 C         -25.4280   -9.2657  -13.3317 C.ar    1  UNL1        0.1735
      9 F         -25.3510  -10.5833  -13.6451 F       1  UNL1       -0.2010
     10 C         -26.4270   -8.4800  -13.9068 C.ar    1  UNL1        0.0328
     11 C         -26.5257   -7.1150  -13.5972 C.ar    1  UNL1        0.0022
     12 C         -25.5974   -6.5500  -12.7057 C.ar    1  UNL1        0.0005
     13 C         -24.5921   -7.3305  -12.1084 C.ar    1  UNL1        0.0339
     14 C         -23.5525   -6.6095  -11.2660 C.3     1  UNL1        0.1236
     15 C         -27.5856   -6.2788  -14.2150 C.ar    1  UNL1        0.0016
     16 C         -28.9558   -6.6436  -14.0918 C.ar    1  UNL1        0.0016
     17 C         -29.9671   -5.8571  -14.6747 C.ar    1  UNL1        0.0206
     18 C         -29.5808   -4.7170  -15.3711 C.ar    1  UNL1        0.0985
     19 N         -30.3709   -3.8303  -16.0027 N.ar    1  UNL1       -0.2241
     20 C         -29.4792   -2.9349  -16.5038 C.ar    1  UNL1        0.1750
     21 N         -28.1908   -3.2324  -16.2092 N.ar    1  UNL1       -0.3349
     22 C         -28.2740   -4.3597  -15.4932 C.ar    1  UNL1        0.0757
     23 C         -27.2420   -5.1072  -14.9330 C.ar    1  UNL1        0.0185
     24 H         -27.3331   -2.7019  -16.4800 H       1  UNL1        0.1675
     25 C         -20.0282   -9.1507  -10.4668 C.ar    1  UNL1        0.0503
     26 C         -19.1204  -10.1199   -9.9949 C.ar    1  UNL1        0.0328
     27 C         -18.6558  -10.0857   -8.6745 C.ar    1  UNL1        0.1069
     28 C         -19.0842   -9.0704   -7.8152 C.ar    1  UNL1        0.0186
     29 C         -19.9826   -8.1042   -8.2653 C.ar    1  UNL1        0.0071
     30 C         -20.4567   -8.1294   -9.5847 C.ar    1  UNL1        0.0667
     31 S         -17.5061  -11.2950   -8.1129 S.O2    1  UNL1        0.0105
     32 C         -17.1929  -11.0495   -6.3800 C.3     1  UNL1        0.1816
     33 O         -16.2203  -11.1683   -8.8809 O.2     1  UNL1       -0.1686
     34 O         -18.0645  -12.6734   -8.3315 O.2     1  UNL1       -0.1686
     35 N         -20.4730   -9.1625  -11.8409 N.pl3   1  UNL1       -0.3325
     36 H         -20.9567  -10.0118  -12.2099 H       1  UNL1        0.1468
     37 C         -21.2847   -8.1431  -13.9294 C.3     1  UNL1        0.0229
     38 C         -20.2844   -8.0562  -12.7811 C.3     1  UNL1        0.0871
@<TRIPOS>BOND
     1    37    38    1
     2    38    35    1
     3    35    25    1
     4    25    26   ar
     5    26    27   ar
     6    27    31    1
     7    31    32    1
     8    31    33    2
     9    31    34    2
    10    27    28   ar
    11    28    29   ar
    12    29    30   ar
    13    30     1    1
    14     1     2    2
    15     1     3   am
    16     3     4    1
    17     4     5    1
    18     5     6    1
    19     6     7    1
    20     7     8   ar
    21     8     9    1
    22     8    10   ar
    23    10    11   ar
    24    11    15    1
    25    15    16   ar
    26    16    17   ar
    27    17    18   ar
    28    18    19   ar
    29    19    20   ar
    30    20    21   ar
    31    21    22   ar
    32    22    23   ar
    33    11    12   ar
    34    12    13   ar
    35    13    14    1
    36    30    25   ar
    37    14     3    1
    38    13     7   ar
    39    23    15   ar
    40    22    18   ar
    41    35    36    1
    42    21    24    1
@<TRIPOS>MOLECULE
*****
 38 42 0 0 0
SMALL
GASTEIGER

@<TRIPOS>ATOM
      1 C         -22.3731   -6.6447  -10.4900 C.2     1  UNL1        0.2506
      2 O         -22.2350   -5.9118   -9.4728 O.2     1  UNL1       -0.2699
      3 N         -21.3363   -7.5804  -10.8475 N.am    1  UNL1       -0.2680
      4 C         -21.0102   -7.8072  -12.2596 C.3     1  UNL1        0.1412
      5 C         -21.5714   -9.1510  -12.7209 C.3     1  UNL1        0.2269
      6 O         -21.6149  -10.0945  -11.6521 O.3     1  UNL1       -0.4716
      7 C         -20.4889  -10.4105  -10.8881 C.ar    1  UNL1        0.1634
      8 C         -19.9900  -11.7160  -10.9516 C.ar    1  UNL1        0.1735
      9 F         -20.6069  -12.6397  -11.7304 F       1  UNL1       -0.2010
     10 C         -18.8494  -12.0747  -10.2329 C.ar    1  UNL1        0.0328
     11 C         -18.1950  -11.1357   -9.4213 C.ar    1  UNL1        0.0022
     12 C         -18.7112   -9.8312   -9.3368 C.ar    1  UNL1        0.0005
     13 C         -19.8527   -9.4504  -10.0639 C.ar    1  UNL1        0.0339
     14 C         -20.4173   -8.0628   -9.8064 C.3     1  UNL1        0.1236
     15 C         -16.9848  -11.5208   -8.6520 C.ar    1  UNL1        0.0016
     16 C         -15.9119  -12.2047   -9.2899 C.ar    1  UNL1        0.0016
     17 C         -14.7612  -12.5741   -8.5682 C.ar    1  UNL1        0.0206
     18 C         -14.7112  -12.2480   -7.2173 C.ar    1  UNL1        0.0985
     19 N         -13.7201  -12.5033   -6.3444 N.ar    1  UNL1       -0.2241
     20 C         -14.1949  -11.9746   -5.1856 C.ar    1  UNL1        0.1750
     21 N         -15.4212  -11.4126   -5.3103 N.ar    1  UNL1       -0.3349
     22 C         -15.7311  -11.5935   -6.5994 C.ar    1  UNL1        0.0757
     23 C         -16.8866  -11.2092   -7.2739 C.ar    1  UNL1        0.0185
     24 H         -15.9903  -10.9463   -4.5693 H       1  UNL1        0.1675
     25 C         -24.4610   -7.6538  -11.4901 C.ar    1  UNL1        0.0503
     26 C         -25.6040   -7.4984  -12.2998 C.ar    1  UNL1        0.0328
     27 C         -25.8953   -6.2683  -12.9017 C.ar    1  UNL1        0.1069
     28 C         -25.0522   -5.1747  -12.6872 C.ar    1  UNL1        0.0186
     29 C         -23.9169   -5.3112  -11.8899 C.ar    1  UNL1        0.0071
     30 C         -23.6135   -6.5387  -11.2836 C.ar    1  UNL1        0.0667
     31 S         -27.3400   -6.0920  -13.8926 S.O2    1  UNL1        0.0105
     32 C         -28.3246   -7.5671  -13.7656 C.3     1  UNL1        0.1816
     33 O         -26.9481   -5.8689  -15.3264 O.2     1  UNL1       -0.1686
     34 O         -28.1426   -4.9111  -13.4227 O.2     1  UNL1       -0.1686
     35 N         -24.1853   -8.9114  -10.8353 N.pl3   1  UNL1       -0.3325
     36 H         -23.5601   -9.6025  -11.3075 H       1  UNL1        0.1468
     37 C         -23.6569   -9.9329   -8.6587 C.3     1  UNL1        0.0229
     38 C         -24.7351   -9.3063   -9.5372 C.3     1  UNL1        0.0871
@<TRIPOS>BOND
     1    37    38    1
     2    38    35    1
     3    35    25    1
     4    25    26   ar
     5    26    27   ar
     6    27    31    1
     7    31    32    1
     8    31    33    2
     9    31    34    2
    10    27    28   ar
    11    28    29   ar
    12    29    30   ar
    13    30     1    1
    14     1     2    2
    15     1     3   am
    16     3     4    1
    17     4     5    1
    18     5     6    1
    19     6     7    1
    20     7     8   ar
    21     8     9    1
    22     8    10   ar
    23    10    11   ar
    24    11    15    1
    25    15    16   ar
    26    16    17   ar
    27    17    18   ar
    28    18    19   ar
    29    19    20   ar
    30    20    21   ar
    31    21    22   ar
    32    22    23   ar
    33    11    12   ar
    34    12    13   ar
    35    13    14    1
    36    30    25   ar
    37    14     3    1
    38    13     7   ar
    39    23    15   ar
    40    22    18   ar
    41    35    36    1
    42    21    24    1
