@<TRIPOS>MOLECULE
*****
 45 50 0 0 0
SMALL
GASTEIGER

@<TRIPOS>ATOM
      1 C         -64.4820  -52.2155  -24.4928 C.ar    1  UNL1        0.0702
      2 C         -63.7005  -52.7689  -23.4664 C.ar    1  UNL1        0.0191
      3 C         -64.2225  -53.7763  -22.6535 C.ar    1  UNL1        0.0356
      4 C         -65.5239  -54.2490  -22.8847 C.ar    1  UNL1        0.1318
      5 N         -66.2610  -53.7005  -23.8902 N.ar    1  UNL1       -0.2279
      6 C         -65.7736  -52.7186  -24.6938 C.ar    1  UNL1        0.1149
      7 N         -66.1044  -55.2716  -22.0533 N.pl3   1  UNL1       -0.2932
      8 C         -66.9484  -56.3026  -22.6757 C.3     1  UNL1        0.0923
      9 C         -67.6885  -57.1404  -21.6216 C.3     1  UNL1        0.0252
     10 C         -68.2065  -56.2318  -20.4915 C.3     1  UNL1        0.0472
     11 C         -67.0435  -55.4935  -19.7732 C.3     1  UNL1        0.0252
     12 C         -65.7688  -55.3844  -20.6269 C.3     1  UNL1        0.0923
     13 C         -69.0589  -57.0402  -19.4951 C.3     1  UNL1        0.2054
     14 O         -69.5785  -56.1998  -18.4630 O.3     1  UNL1       -0.4755
     15 C         -69.1463  -56.1836  -17.1266 C.ar    1  UNL1        0.1388
     16 C         -69.9461  -56.6401  -16.0617 C.ar    1  UNL1        0.0369
     17 C         -69.4629  -56.5977  -14.7524 C.ar    1  UNL1        0.0033
     18 C         -68.1826  -56.1061  -14.4897 C.ar    1  UNL1        0.0066
     19 C         -67.3670  -55.6516  -15.5404 C.ar    1  UNL1        0.0785
     20 C         -67.8607  -55.6977  -16.8563 C.ar    1  UNL1        0.0433
     21 C         -66.0086  -55.1311  -15.2699 C.2     1  UNL1        0.3381
     22 O         -65.8495  -54.0924  -14.5728 O.2     1  UNL1       -0.2451
     23 O         -64.8911  -55.7846  -15.7834 O.3     1  UNL1       -0.4771
     24 H         -63.9567  -55.4366  -15.6042 H       1  UNL1        0.2954
     25 C         -64.1536  -49.7850  -25.1486 C.2     1  UNL1        0.2839
     26 O         -64.9971  -49.3766  -24.3058 O.2     1  UNL1       -0.2665
     27 N         -63.9724  -51.1937  -25.3667 N.am    1  UNL1       -0.2766
     28 H         -63.5160  -51.4973  -26.2566 H       1  UNL1        0.1553
     29 C         -64.1890  -49.4442  -28.3355 C.3     1  UNL1        0.0345
     30 C         -63.3912  -48.6623  -27.3357 C.ar    1  UNL1        0.0202
     31 C         -63.3780  -48.8149  -25.9447 C.ar    1  UNL1        0.1946
     32 O         -62.5493  -47.9407  -25.4019 O.2     1  UNL1       -0.4492
     33 C         -62.0238  -47.2295  -26.3691 C.ar    1  UNL1        0.1452
     34 C         -61.1011  -46.1959  -26.2512 C.ar    1  UNL1        0.0375
     35 C         -60.6673  -45.5607  -27.4276 C.ar    1  UNL1        0.0031
     36 C         -61.1592  -45.9657  -28.6980 C.ar    1  UNL1        0.0002
     37 C         -62.0976  -47.0228  -28.7739 C.ar    1  UNL1        0.0028
     38 C         -62.5061  -47.6311  -27.5859 C.ar    1  UNL1        0.0337
     39 C         -60.6938  -45.2871  -29.9341 C.ar    1  UNL1        0.0000
     40 C         -61.5669  -44.4650  -30.6712 C.ar    1  UNL1        0.0005
     41 C         -61.1266  -43.8278  -31.8353 C.ar    1  UNL1        0.0067
     42 C         -59.8121  -44.0022  -32.2768 C.ar    1  UNL1        0.0346
     43 BR        -59.2137  -43.1301  -33.8670 Br      1  UNL1       -0.0490
     44 C         -58.9363  -44.8158  -31.5529 C.ar    1  UNL1        0.0067
     45 C         -59.3723  -45.4558  -30.3887 C.ar    1  UNL1        0.0005
@<TRIPOS>BOND
     1    29    30    1
     2    30    31   ar
     3    31    25    1
     4    25    26    2
     5    25    27   am
     6    27     1    1
     7     1     2   ar
     8     2     3   ar
     9     3     4   ar
    10     4     7    1
    11     7     8    1
    12     8     9    1
    13     9    10    1
    14    10    13    1
    15    13    14    1
    16    14    15    1
    17    15    16   ar
    18    16    17   ar
    19    17    18   ar
    20    18    19   ar
    21    19    21    1
    22    21    22    2
    23    21    23    1
    24    19    20   ar
    25    10    11    1
    26    11    12    1
    27     4     5   ar
    28     5     6   ar
    29    31    32   ar
    30    32    33   ar
    31    33    34   ar
    32    34    35   ar
    33    35    36   ar
    34    36    39    1
    35    39    40   ar
    36    40    41   ar
    37    41    42   ar
    38    42    43    1
    39    42    44   ar
    40    44    45   ar
    41    36    37   ar
    42    37    38   ar
    43    38    30   ar
    44     6     1   ar
    45    38    33   ar
    46    12     7    1
    47    45    39   ar
    48    20    15   ar
    49    27    28    1
    50    23    24    1
@<TRIPOS>MOLECULE
*****
 45 50 0 0 0
SMALL
GASTEIGER

@<TRIPOS>ATOM
      1 C         -64.4482  -52.2113  -24.5009 C.ar    1  UNL1        0.0702
      2 C         -63.6926  -52.7142  -23.4301 C.ar    1  UNL1        0.0191
      3 C         -64.2101  -53.7281  -22.6223 C.ar    1  UNL1        0.0356
      4 C         -65.4794  -54.2579  -22.9027 C.ar    1  UNL1        0.1318
      5 N         -66.1914  -53.7575  -23.9505 N.ar    1  UNL1       -0.2279
      6 C         -65.7079  -52.7705  -24.7500 C.ar    1  UNL1        0.1149
      7 N         -66.0556  -55.2890  -22.0788 N.pl3   1  UNL1       -0.2932
      8 C         -66.7964  -56.3846  -22.7217 C.3     1  UNL1        0.0923
      9 C         -67.5569  -57.2343  -21.6919 C.3     1  UNL1        0.0252
     10 C         -68.1999  -56.3263  -20.6275 C.3     1  UNL1        0.0472
     11 C         -67.1311  -55.5015  -19.8588 C.3     1  UNL1        0.0252
     12 C         -65.8104  -55.3419  -20.6306 C.3     1  UNL1        0.0923
     13 C         -69.0700  -57.1550  -19.6636 C.3     1  UNL1        0.2054
     14 O         -68.9862  -56.6479  -18.3305 O.3     1  UNL1       -0.4755
     15 C         -69.9875  -55.9182  -17.6687 C.ar    1  UNL1        0.1388
     16 C         -70.1985  -56.0013  -16.2792 C.ar    1  UNL1        0.0369
     17 C         -71.2116  -55.2529  -15.6768 C.ar    1  UNL1        0.0033
     18 C         -72.0201  -54.4140  -16.4465 C.ar    1  UNL1        0.0066
     19 C         -71.8208  -54.3130  -17.8342 C.ar    1  UNL1        0.0785
     20 C         -70.7983  -55.0699  -18.4335 C.ar    1  UNL1        0.0433
     21 C         -72.6725  -53.4248  -18.6559 C.2     1  UNL1        0.3381
     22 O         -73.8119  -53.8066  -19.0380 O.2     1  UNL1       -0.2451
     23 O         -72.2230  -52.1568  -19.0156 O.3     1  UNL1       -0.4771
     24 H         -72.7980  -51.5409  -19.5779 H       1  UNL1        0.2954
     25 C         -64.1212  -49.7772  -25.1439 C.2     1  UNL1        0.2839
     26 O         -64.9622  -49.3734  -24.2963 O.2     1  UNL1       -0.2665
     27 N         -63.9408  -51.1846  -25.3704 N.am    1  UNL1       -0.2766
     28 H         -63.4869  -51.4832  -26.2634 H       1  UNL1        0.1553
     29 C         -64.1536  -49.4287  -28.3299 C.3     1  UNL1        0.0345
     30 C         -63.3594  -48.6467  -27.3272 C.ar    1  UNL1        0.0202
     31 C         -63.3476  -48.8027  -25.9366 C.ar    1  UNL1        0.1946
     32 O         -62.5224  -47.9272  -25.3906 O.2     1  UNL1       -0.4492
     33 C         -61.9979  -47.2119  -26.3554 C.ar    1  UNL1        0.1452
     34 C         -61.0786  -46.1757  -26.2338 C.ar    1  UNL1        0.0375
     35 C         -60.6453  -45.5364  -27.4082 C.ar    1  UNL1        0.0031
     36 C         -61.1343  -45.9398  -28.6801 C.ar    1  UNL1        0.0002
     37 C         -62.0693  -46.9997  -28.7598 C.ar    1  UNL1        0.0028
     38 C         -62.4773  -47.6122  -27.5738 C.ar    1  UNL1        0.0337
     39 C         -60.6695  -45.2567  -29.9140 C.ar    1  UNL1        0.0000
     40 C         -61.5445  -44.4365  -30.6508 C.ar    1  UNL1        0.0005
     41 C         -61.1048  -43.7951  -31.8128 C.ar    1  UNL1        0.0067
     42 C         -59.7889  -43.9634  -32.2525 C.ar    1  UNL1        0.0346
     43 BR        -59.1912  -43.0856  -33.8398 Br      1  UNL1       -0.0490
     44 C         -58.9111  -44.7752  -31.5288 C.ar    1  UNL1        0.0067
     45 C         -59.3466  -45.4193  -30.3667 C.ar    1  UNL1        0.0005
@<TRIPOS>BOND
     1    29    30    1
     2    30    31   ar
     3    31    25    1
     4    25    26    2
     5    25    27   am
     6    27     1    1
     7     1     2   ar
     8     2     3   ar
     9     3     4   ar
    10     4     7    1
    11     7     8    1
    12     8     9    1
    13     9    10    1
    14    10    13    1
    15    13    14    1
    16    14    15    1
    17    15    16   ar
    18    16    17   ar
    19    17    18   ar
    20    18    19   ar
    21    19    21    1
    22    21    22    2
    23    21    23    1
    24    19    20   ar
    25    10    11    1
    26    11    12    1
    27     4     5   ar
    28     5     6   ar
    29    31    32   ar
    30    32    33   ar
    31    33    34   ar
    32    34    35   ar
    33    35    36   ar
    34    36    39    1
    35    39    40   ar
    36    40    41   ar
    37    41    42   ar
    38    42    43    1
    39    42    44   ar
    40    44    45   ar
    41    36    37   ar
    42    37    38   ar
    43    38    30   ar
    44     6     1   ar
    45    38    33   ar
    46    12     7    1
    47    45    39   ar
    48    20    15   ar
    49    27    28    1
    50    23    24    1
@<TRIPOS>MOLECULE
*****
 45 50 0 0 0
SMALL
GASTEIGER

@<TRIPOS>ATOM
      1 C         -62.4463  -40.8869  -20.7618 C.ar    1  UNL1        0.0702
      2 C         -61.1285  -41.2017  -20.3950 C.ar    1  UNL1        0.0191
      3 C         -60.4487  -42.2349  -21.0419 C.ar    1  UNL1        0.0356
      4 C         -61.0822  -42.9398  -22.0775 C.ar    1  UNL1        0.1318
      5 N         -62.3593  -42.6123  -22.4195 N.ar    1  UNL1       -0.2279
      6 C         -63.0406  -41.6107  -21.8032 C.ar    1  UNL1        0.1149
      7 N         -60.4210  -44.0261  -22.7533 N.pl3   1  UNL1       -0.2932
      8 C         -60.7375  -44.2852  -24.1659 C.3     1  UNL1        0.0923
      9 C         -60.1508  -45.6233  -24.6411 C.3     1  UNL1        0.0252
     10 C         -60.3311  -46.6969  -23.5522 C.3     1  UNL1        0.0472
     11 C         -59.6027  -46.3051  -22.2371 C.3     1  UNL1        0.0252
     12 C         -59.3478  -44.7940  -22.1063 C.3     1  UNL1        0.0923
     13 C         -59.8628  -48.0719  -24.0653 C.3     1  UNL1        0.2054
     14 O         -59.8763  -49.0433  -23.0177 O.3     1  UNL1       -0.4755
     15 C         -60.5282  -50.2866  -23.0638 C.ar    1  UNL1        0.1388
     16 C         -59.9270  -51.4793  -22.6185 C.ar    1  UNL1        0.0369
     17 C         -60.6243  -52.6867  -22.6909 C.ar    1  UNL1        0.0033
     18 C         -61.9235  -52.7202  -23.2014 C.ar    1  UNL1        0.0066
     19 C         -62.5429  -51.5390  -23.6451 C.ar    1  UNL1        0.0785
     20 C         -61.8341  -50.3269  -23.5689 C.ar    1  UNL1        0.0433
     21 C         -63.9201  -51.5665  -24.1856 C.2     1  UNL1        0.3381
     22 O         -64.4541  -50.5131  -24.6274 O.2     1  UNL1       -0.2451
     23 O         -64.6405  -52.7580  -24.2114 O.3     1  UNL1       -0.4771
     24 H         -65.5840  -52.7878  -24.5791 H       1  UNL1        0.2954
     25 C         -62.9693  -38.4239  -20.4368 C.2     1  UNL1        0.2839
     26 O         -61.9543  -38.0564  -21.0875 O.2     1  UNL1       -0.2665
     27 N         -63.1717  -39.8144  -20.1363 N.am    1  UNL1       -0.2766
     28 H         -63.8247  -40.0577  -19.3572 H       1  UNL1        0.1553
     29 C         -66.1638  -38.5482  -20.6671 C.3     1  UNL1        0.0345
     30 C         -65.3278  -37.4714  -20.0431 C.ar    1  UNL1        0.0202
     31 C         -63.9328  -37.4206  -19.9454 C.ar    1  UNL1        0.1946
     32 O         -63.5631  -36.3133  -19.3267 O.2     1  UNL1       -0.4492
     33 C         -64.6463  -35.6430  -19.0188 C.ar    1  UNL1        0.1452
     34 C         -64.7238  -34.4213  -18.3594 C.ar    1  UNL1        0.0375
     35 C         -65.9984  -33.8762  -18.1269 C.ar    1  UNL1        0.0031
     36 C         -67.1706  -34.5563  -18.5547 C.ar    1  UNL1        0.0002
     37 C         -67.0475  -35.7980  -19.2232 C.ar    1  UNL1        0.0028
     38 C         -65.7665  -36.3095  -19.4374 C.ar    1  UNL1        0.0337
     39 C         -68.5119  -33.9708  -18.3033 C.ar    1  UNL1        0.0000
     40 C         -68.6610  -32.8666  -17.4431 C.ar    1  UNL1        0.0005
     41 C         -69.9250  -32.3176  -17.2073 C.ar    1  UNL1        0.0067
     42 C         -71.0535  -32.8621  -17.8264 C.ar    1  UNL1        0.0346
     43 BR        -72.7787  -32.1096  -17.5026 Br      1  UNL1       -0.0490
     44 C         -70.9176  -33.9583  -18.6826 C.ar    1  UNL1        0.0067
     45 C         -69.6556  -34.5112  -18.9207 C.ar    1  UNL1        0.0005
@<TRIPOS>BOND
     1    29    30    1
     2    30    31   ar
     3    31    25    1
     4    25    26    2
     5    25    27   am
     6    27     1    1
     7     1     2   ar
     8     2     3   ar
     9     3     4   ar
    10     4     7    1
    11     7     8    1
    12     8     9    1
    13     9    10    1
    14    10    13    1
    15    13    14    1
    16    14    15    1
    17    15    16   ar
    18    16    17   ar
    19    17    18   ar
    20    18    19   ar
    21    19    21    1
    22    21    22    2
    23    21    23    1
    24    19    20   ar
    25    10    11    1
    26    11    12    1
    27     4     5   ar
    28     5     6   ar
    29    31    32   ar
    30    32    33   ar
    31    33    34   ar
    32    34    35   ar
    33    35    36   ar
    34    36    39    1
    35    39    40   ar
    36    40    41   ar
    37    41    42   ar
    38    42    43    1
    39    42    44   ar
    40    44    45   ar
    41    36    37   ar
    42    37    38   ar
    43    38    30   ar
    44     6     1   ar
    45    38    33   ar
    46    12     7    1
    47    45    39   ar
    48    20    15   ar
    49    27    28    1
    50    23    24    1
@<TRIPOS>MOLECULE
*****
 45 50 0 0 0
SMALL
GASTEIGER

@<TRIPOS>ATOM
      1 C         -62.2236  -41.6616  -20.4312 C.ar    1  UNL1        0.0702
      2 C         -60.8303  -41.7172  -20.5927 C.ar    1  UNL1        0.0191
      3 C         -60.2320  -42.8578  -21.1304 C.ar    1  UNL1        0.0356
      4 C         -61.0341  -43.9379  -21.5311 C.ar    1  UNL1        0.1318
      5 N         -62.3842  -43.8584  -21.3697 N.ar    1  UNL1       -0.2279
      6 C         -62.9884  -42.7583  -20.8481 C.ar    1  UNL1        0.1149
      7 N         -60.4516  -45.1398  -22.0697 N.pl3   1  UNL1       -0.2932
      8 C         -59.6696  -45.0582  -23.3124 C.3     1  UNL1        0.0923
      9 C         -59.3545  -46.4527  -23.8754 C.3     1  UNL1        0.0252
     10 C         -60.5855  -47.3679  -23.7422 C.3     1  UNL1        0.0472
     11 C         -61.0081  -47.5450  -22.2578 C.3     1  UNL1        0.0252
     12 C         -60.5096  -46.4150  -21.3412 C.3     1  UNL1        0.0923
     13 C         -60.3244  -48.7275  -24.4178 C.3     1  UNL1        0.2054
     14 O         -61.3392  -49.0278  -25.3777 O.3     1  UNL1       -0.4755
     15 C         -61.8283  -48.1445  -26.3541 C.ar    1  UNL1        0.1388
     16 C         -63.2033  -47.9512  -26.5867 C.ar    1  UNL1        0.0369
     17 C         -63.6302  -47.0604  -27.5733 C.ar    1  UNL1        0.0033
     18 C         -62.6977  -46.3519  -28.3337 C.ar    1  UNL1        0.0066
     19 C         -61.3207  -46.5267  -28.1121 C.ar    1  UNL1        0.0785
     20 C         -60.8987  -47.4257  -27.1165 C.ar    1  UNL1        0.0433
     21 C         -60.3268  -45.7780  -28.9127 C.2     1  UNL1        0.3381
     22 O         -60.7023  -44.9224  -29.7595 O.2     1  UNL1       -0.2451
     23 O         -58.9650  -46.0117  -28.7384 O.3     1  UNL1       -0.4771
     24 H         -58.2763  -45.5048  -29.2815 H       1  UNL1        0.2954
     25 C         -62.7336  -39.1746  -20.4495 C.2     1  UNL1        0.2839
     26 O         -61.8115  -38.9261  -21.2721 O.2     1  UNL1       -0.2665
     27 N         -62.8796  -40.4958  -19.9038 N.am    1  UNL1       -0.2766
     28 H         -63.4282  -40.6036  -19.0206 H       1  UNL1        0.1553
     29 C         -65.9332  -39.1588  -20.6385 C.3     1  UNL1        0.0345
     30 C         -65.0388  -38.0866  -20.0926 C.ar    1  UNL1        0.0202
     31 C         -63.6417  -38.0972  -20.0126 C.ar    1  UNL1        0.1946
     32 O         -63.2116  -36.9725  -19.4691 O.2     1  UNL1       -0.4492
     33 C         -64.2575  -36.2327  -19.1929 C.ar    1  UNL1        0.1452
     34 C         -64.2680  -34.9697  -18.6113 C.ar    1  UNL1        0.0375
     35 C         -65.5121  -34.3503  -18.4006 C.ar    1  UNL1        0.0031
     36 C         -66.7209  -34.9985  -18.7724 C.ar    1  UNL1        0.0002
     37 C         -66.6658  -36.2841  -19.3623 C.ar    1  UNL1        0.0028
     38 C         -65.4136  -36.8693  -19.5570 C.ar    1  UNL1        0.0337
     39 C         -68.0294  -34.3343  -18.5447 C.ar    1  UNL1        0.0000
     40 C         -69.1778  -34.7588  -19.2392 C.ar    1  UNL1        0.0005
     41 C         -70.4085  -34.1312  -19.0238 C.ar    1  UNL1        0.0067
     42 C         -70.5083  -33.0750  -18.1141 C.ar    1  UNL1        0.0346
     43 BR        -72.1910  -32.2202  -17.8218 Br      1  UNL1       -0.0490
     44 C         -69.3749  -32.6452  -17.4186 C.ar    1  UNL1        0.0067
     45 C         -68.1418  -33.2691  -17.6314 C.ar    1  UNL1        0.0005
@<TRIPOS>BOND
     1    29    30    1
     2    30    31   ar
     3    31    25    1
     4    25    26    2
     5    25    27   am
     6    27     1    1
     7     1     2   ar
     8     2     3   ar
     9     3     4   ar
    10     4     7    1
    11     7     8    1
    12     8     9    1
    13     9    10    1
    14    10    13    1
    15    13    14    1
    16    14    15    1
    17    15    16   ar
    18    16    17   ar
    19    17    18   ar
    20    18    19   ar
    21    19    21    1
    22    21    22    2
    23    21    23    1
    24    19    20   ar
    25    10    11    1
    26    11    12    1
    27     4     5   ar
    28     5     6   ar
    29    31    32   ar
    30    32    33   ar
    31    33    34   ar
    32    34    35   ar
    33    35    36   ar
    34    36    39    1
    35    39    40   ar
    36    40    41   ar
    37    41    42   ar
    38    42    43    1
    39    42    44   ar
    40    44    45   ar
    41    36    37   ar
    42    37    38   ar
    43    38    30   ar
    44     6     1   ar
    45    38    33   ar
    46    12     7    1
    47    45    39   ar
    48    20    15   ar
    49    27    28    1
    50    23    24    1
@<TRIPOS>MOLECULE
*****
 45 50 0 0 0
SMALL
GASTEIGER

@<TRIPOS>ATOM
      1 C         -62.5000  -41.6963  -20.6831 C.ar    1  UNL1        0.0702
      2 C         -61.1019  -41.8183  -20.7125 C.ar    1  UNL1        0.0191
      3 C         -60.5081  -42.9358  -21.3015 C.ar    1  UNL1        0.0356
      4 C         -61.3167  -43.9234  -21.8857 C.ar    1  UNL1        0.1318
      5 N         -62.6707  -43.7802  -21.8498 N.ar    1  UNL1       -0.2279
      6 C         -63.2707  -42.7011  -21.2813 C.ar    1  UNL1        0.1149
      7 N         -60.7415  -45.1007  -22.4832 N.pl3   1  UNL1       -0.2932
      8 C         -59.8320  -44.9472  -23.6285 C.3     1  UNL1        0.0923
      9 C         -59.5294  -46.2976  -24.2961 C.3     1  UNL1        0.0252
     10 C         -60.8113  -47.1468  -24.3776 C.3     1  UNL1        0.0472
     11 C         -61.3935  -47.4397  -22.9673 C.3     1  UNL1        0.0252
     12 C         -60.9375  -46.4340  -21.8967 C.3     1  UNL1        0.0923
     13 C         -60.5490  -48.4486  -25.1583 C.3     1  UNL1        0.2054
     14 O         -61.2309  -48.4413  -26.4138 O.3     1  UNL1       -0.4755
     15 C         -61.2411  -47.3790  -27.3326 C.ar    1  UNL1        0.1388
     16 C         -60.0636  -46.8252  -27.8702 C.ar    1  UNL1        0.0369
     17 C         -60.1363  -45.7678  -28.7791 C.ar    1  UNL1        0.0033
     18 C         -61.3763  -45.2543  -29.1645 C.ar    1  UNL1        0.0066
     19 C         -62.5632  -45.7980  -28.6434 C.ar    1  UNL1        0.0785
     20 C         -62.4816  -46.8629  -27.7286 C.ar    1  UNL1        0.0433
     21 C         -63.8808  -45.2603  -29.0486 C.2     1  UNL1        0.3381
     22 O         -63.9550  -44.2623  -29.8158 O.2     1  UNL1       -0.2451
     23 O         -65.0533  -45.8523  -28.5857 O.3     1  UNL1       -0.4771
     24 H         -65.9604  -45.4921  -28.8570 H       1  UNL1        0.2954
     25 C         -62.8527  -39.1911  -20.4706 C.2     1  UNL1        0.2839
     26 O         -61.8166  -38.9237  -21.1366 O.2     1  UNL1       -0.2665
     27 N         -63.1489  -40.5495  -20.1075 N.am    1  UNL1       -0.2766
     28 H         -63.8150  -40.7120  -19.3185 H       1  UNL1        0.1553
     29 C         -66.0532  -39.1362  -20.6350 C.3     1  UNL1        0.0345
     30 C         -65.1417  -38.0755  -20.0951 C.ar    1  UNL1        0.0202
     31 C         -63.7443  -38.1031  -20.0259 C.ar    1  UNL1        0.1946
     32 O         -63.2964  -36.9841  -19.4848 O.2     1  UNL1       -0.4492
     33 C         -64.3311  -36.2319  -19.2001 C.ar    1  UNL1        0.1452
     34 C         -64.3218  -34.9694  -18.6174 C.ar    1  UNL1        0.0375
     35 C         -65.5566  -34.3351  -18.3967 C.ar    1  UNL1        0.0031
     36 C         -66.7760  -34.9682  -18.7597 C.ar    1  UNL1        0.0002
     37 C         -66.7411  -36.2540  -19.3510 C.ar    1  UNL1        0.0028
     38 C         -65.4976  -36.8541  -19.5558 C.ar    1  UNL1        0.0337
     39 C         -68.0745  -34.2884  -18.5215 C.ar    1  UNL1        0.0000
     40 C         -68.1651  -33.2162  -17.6140 C.ar    1  UNL1        0.0005
     41 C         -69.3890  -32.5782  -17.3907 C.ar    1  UNL1        0.0067
     42 C         -70.5352  -33.0011  -18.0694 C.ar    1  UNL1        0.0346
     43 BR        -72.2055  -32.1273  -17.7626 Br      1  UNL1       -0.0490
     44 C         -70.4572  -34.0644  -18.9730 C.ar    1  UNL1        0.0067
     45 C         -69.2356  -34.7060  -19.1989 C.ar    1  UNL1        0.0005
@<TRIPOS>BOND
     1    29    30    1
     2    30    31   ar
     3    31    25    1
     4    25    26    2
     5    25    27   am
     6    27     1    1
     7     1     2   ar
     8     2     3   ar
     9     3     4   ar
    10     4     7    1
    11     7     8    1
    12     8     9    1
    13     9    10    1
    14    10    13    1
    15    13    14    1
    16    14    15    1
    17    15    16   ar
    18    16    17   ar
    19    17    18   ar
    20    18    19   ar
    21    19    21    1
    22    21    22    2
    23    21    23    1
    24    19    20   ar
    25    10    11    1
    26    11    12    1
    27     4     5   ar
    28     5     6   ar
    29    31    32   ar
    30    32    33   ar
    31    33    34   ar
    32    34    35   ar
    33    35    36   ar
    34    36    39    1
    35    39    40   ar
    36    40    41   ar
    37    41    42   ar
    38    42    43    1
    39    42    44   ar
    40    44    45   ar
    41    36    37   ar
    42    37    38   ar
    43    38    30   ar
    44     6     1   ar
    45    38    33   ar
    46    12     7    1
    47    45    39   ar
    48    20    15   ar
    49    27    28    1
    50    23    24    1
@<TRIPOS>MOLECULE
*****
 45 50 0 0 0
SMALL
GASTEIGER

@<TRIPOS>ATOM
      1 C         -62.7870  -40.3277  -20.5938 C.ar    1  UNL1        0.0702
      2 C         -63.6449  -40.3698  -19.4835 C.ar    1  UNL1        0.0191
      3 C         -64.1435  -39.1859  -18.9377 C.ar    1  UNL1        0.0356
      4 C         -63.8016  -37.9557  -19.5210 C.ar    1  UNL1        0.1318
      5 N         -62.9720  -37.9405  -20.6012 N.ar    1  UNL1       -0.2279
      6 C         -62.4743  -39.0805  -21.1490 C.ar    1  UNL1        0.1149
      7 N         -64.2786  -36.7123  -18.9729 N.pl3   1  UNL1       -0.2932
      8 C         -64.8447  -36.7020  -17.6157 C.3     1  UNL1        0.0923
      9 C         -65.5366  -35.3667  -17.3012 C.3     1  UNL1        0.0252
     10 C         -66.3369  -34.8840  -18.5249 C.3     1  UNL1        0.0472
     11 C         -65.4171  -34.6580  -19.7564 C.3     1  UNL1        0.0252
     12 C         -64.0939  -35.4386  -19.6827 C.3     1  UNL1        0.0923
     13 C         -67.1372  -33.6135  -18.1811 C.3     1  UNL1        0.2054
     14 O         -68.5037  -33.7437  -18.5774 O.3     1  UNL1       -0.4755
     15 C         -69.6140  -33.2912  -17.8458 C.ar    1  UNL1        0.1388
     16 C         -69.4915  -32.5304  -16.6675 C.ar    1  UNL1        0.0369
     17 C         -70.6324  -32.1100  -15.9814 C.ar    1  UNL1        0.0033
     18 C         -71.9027  -32.4371  -16.4599 C.ar    1  UNL1        0.0066
     19 C         -72.0455  -33.1907  -17.6379 C.ar    1  UNL1        0.0785
     20 C         -70.8916  -33.6104  -18.3233 C.ar    1  UNL1        0.0433
     21 C         -73.3884  -33.5396  -18.1520 C.2     1  UNL1        0.3381
     22 O         -73.6905  -33.3132  -19.3552 O.2     1  UNL1       -0.2451
     23 O         -74.3328  -34.1223  -17.3106 O.3     1  UNL1       -0.4771
     24 H         -75.2550  -34.3650  -17.6525 H       1  UNL1        0.2954
     25 C         -61.0640  -42.1827  -20.7825 C.2     1  UNL1        0.2839
     26 O         -60.2506  -41.5924  -20.0219 O.2     1  UNL1       -0.2665
     27 N         -62.2720  -41.5257  -21.1996 N.am    1  UNL1       -0.2766
     28 H         -62.7614  -41.8916  -22.0477 H       1  UNL1        0.1553
     29 C         -63.0296  -44.7143  -20.8110 C.3     1  UNL1        0.0345
     30 C         -61.6127  -44.6446  -21.2957 C.ar    1  UNL1        0.0202
     31 C         -60.7574  -43.5370  -21.2807 C.ar    1  UNL1        0.1946
     32 O         -59.5851  -43.8643  -21.7945 O.2     1  UNL1       -0.4492
     33 C         -59.6356  -45.1271  -22.1414 C.ar    1  UNL1        0.1452
     34 C         -58.6243  -45.8836  -22.7232 C.ar    1  UNL1        0.0375
     35 C         -58.8942  -47.2311  -23.0182 C.ar    1  UNL1        0.0031
     36 C         -60.1640  -47.8000  -22.7288 C.ar    1  UNL1        0.0002
     37 C         -61.1661  -46.9950  -22.1357 C.ar    1  UNL1        0.0028
     38 C         -60.8635  -45.6613  -21.8561 C.ar    1  UNL1        0.0337
     39 C         -60.4377  -49.2248  -23.0451 C.ar    1  UNL1        0.0000
     40 C         -59.4565  -50.0217  -23.6644 C.ar    1  UNL1        0.0005
     41 C         -59.7169  -51.3627  -23.9620 C.ar    1  UNL1        0.0067
     42 C         -60.9569  -51.9242  -23.6452 C.ar    1  UNL1        0.0346
     43 BR        -61.3093  -53.7565  -24.0527 Br      1  UNL1       -0.0490
     44 C         -61.9387  -51.1427  -23.0300 C.ar    1  UNL1        0.0067
     45 C         -61.6831  -49.8009  -22.7312 C.ar    1  UNL1        0.0005
@<TRIPOS>BOND
     1    29    30    1
     2    30    31   ar
     3    31    25    1
     4    25    26    2
     5    25    27   am
     6    27     1    1
     7     1     2   ar
     8     2     3   ar
     9     3     4   ar
    10     4     7    1
    11     7     8    1
    12     8     9    1
    13     9    10    1
    14    10    13    1
    15    13    14    1
    16    14    15    1
    17    15    16   ar
    18    16    17   ar
    19    17    18   ar
    20    18    19   ar
    21    19    21    1
    22    21    22    2
    23    21    23    1
    24    19    20   ar
    25    10    11    1
    26    11    12    1
    27     4     5   ar
    28     5     6   ar
    29    31    32   ar
    30    32    33   ar
    31    33    34   ar
    32    34    35   ar
    33    35    36   ar
    34    36    39    1
    35    39    40   ar
    36    40    41   ar
    37    41    42   ar
    38    42    43    1
    39    42    44   ar
    40    44    45   ar
    41    36    37   ar
    42    37    38   ar
    43    38    30   ar
    44     6     1   ar
    45    38    33   ar
    46    12     7    1
    47    45    39   ar
    48    20    15   ar
    49    27    28    1
    50    23    24    1
@<TRIPOS>MOLECULE
*****
 45 50 0 0 0
SMALL
GASTEIGER

@<TRIPOS>ATOM
      1 C         -62.4351  -40.8169  -20.2430 C.ar    1  UNL1        0.0702
      2 C         -61.3402  -41.3783  -19.5674 C.ar    1  UNL1        0.0191
      3 C         -60.6409  -42.4462  -20.1318 C.ar    1  UNL1        0.0356
      4 C         -61.0240  -42.9384  -21.3894 C.ar    1  UNL1        0.1318
      5 N         -62.0862  -42.3737  -22.0283 N.ar    1  UNL1       -0.2279
      6 C         -62.7819  -41.3337  -21.4977 C.ar    1  UNL1        0.1149
      7 N         -60.3407  -44.0528  -21.9937 N.pl3   1  UNL1       -0.2932
      8 C         -59.0967  -43.8075  -22.7386 C.3     1  UNL1        0.0923
      9 C         -58.6555  -45.0496  -23.5282 C.3     1  UNL1        0.0252
     10 C         -59.8772  -45.7263  -24.1765 C.3     1  UNL1        0.0472
     11 C         -60.9073  -46.1891  -23.1096 C.3     1  UNL1        0.0252
     12 C         -60.7840  -45.4368  -21.7739 C.3     1  UNL1        0.0923
     13 C         -59.4341  -46.8971  -25.0743 C.3     1  UNL1        0.2054
     14 O         -60.0455  -46.8165  -26.3631 O.3     1  UNL1       -0.4755
     15 C         -61.2851  -47.3745  -26.7165 C.ar    1  UNL1        0.1388
     16 C         -61.8686  -47.1931  -27.9848 C.ar    1  UNL1        0.0369
     17 C         -63.1052  -47.7712  -28.2781 C.ar    1  UNL1        0.0033
     18 C         -63.7704  -48.5363  -27.3179 C.ar    1  UNL1        0.0066
     19 C         -63.2010  -48.7339  -26.0480 C.ar    1  UNL1        0.0785
     20 C         -61.9553  -48.1483  -25.7604 C.ar    1  UNL1        0.0433
     21 C         -63.8992  -49.5448  -25.0262 C.2     1  UNL1        0.3381
     22 O         -65.1014  -49.3040  -24.7314 O.2     1  UNL1       -0.2451
     23 O         -63.2342  -50.5834  -24.3793 O.3     1  UNL1       -0.4771
     24 H         -63.7029  -51.1447  -23.6782 H       1  UNL1        0.2954
     25 C         -63.1430  -38.3790  -20.2692 C.2     1  UNL1        0.2839
     26 O         -62.2696  -38.0678  -21.1230 O.2     1  UNL1       -0.2665
     27 N         -63.1659  -39.7009  -19.7064 N.am    1  UNL1       -0.2766
     28 H         -63.6766  -39.8412  -18.8052 H       1  UNL1        0.1553
     29 C         -66.3365  -38.5701  -20.4654 C.3     1  UNL1        0.0345
     30 C         -65.5152  -37.4520  -19.8972 C.ar    1  UNL1        0.0202
     31 C         -64.1206  -37.3721  -19.8142 C.ar    1  UNL1        0.1946
     32 O         -63.7660  -36.2320  -19.2485 O.2     1  UNL1       -0.4492
     33 C         -64.8587  -35.5681  -18.9609 C.ar    1  UNL1        0.1452
     34 C         -64.9530  -34.3198  -18.3555 C.ar    1  UNL1        0.0375
     35 C         -66.2354  -33.7877  -18.1361 C.ar    1  UNL1        0.0031
     36 C         -67.3985  -34.5069  -18.5229 C.ar    1  UNL1        0.0002
     37 C         -67.2582  -35.7747  -19.1369 C.ar    1  UNL1        0.0028
     38 C         -65.9700  -36.2723  -19.3397 C.ar    1  UNL1        0.0337
     39 C         -68.7481  -33.9347  -18.2859 C.ar    1  UNL1        0.0000
     40 C         -69.8829  -34.5010  -18.8966 C.ar    1  UNL1        0.0005
     41 C         -71.1525  -33.9599  -18.6726 C.ar    1  UNL1        0.0067
     42 C         -71.3051  -32.8498  -17.8375 C.ar    1  UNL1        0.0346
     43 BR        -73.0408  -32.1133  -17.5331 Br      1  UNL1       -0.0490
     44 C         -70.1857  -32.2793  -17.2255 C.ar    1  UNL1        0.0067
     45 C         -68.9139  -32.8164  -17.4472 C.ar    1  UNL1        0.0005
@<TRIPOS>BOND
     1    29    30    1
     2    30    31   ar
     3    31    25    1
     4    25    26    2
     5    25    27   am
     6    27     1    1
     7     1     2   ar
     8     2     3   ar
     9     3     4   ar
    10     4     7    1
    11     7     8    1
    12     8     9    1
    13     9    10    1
    14    10    13    1
    15    13    14    1
    16    14    15    1
    17    15    16   ar
    18    16    17   ar
    19    17    18   ar
    20    18    19   ar
    21    19    21    1
    22    21    22    2
    23    21    23    1
    24    19    20   ar
    25    10    11    1
    26    11    12    1
    27     4     5   ar
    28     5     6   ar
    29    31    32   ar
    30    32    33   ar
    31    33    34   ar
    32    34    35   ar
    33    35    36   ar
    34    36    39    1
    35    39    40   ar
    36    40    41   ar
    37    41    42   ar
    38    42    43    1
    39    42    44   ar
    40    44    45   ar
    41    36    37   ar
    42    37    38   ar
    43    38    30   ar
    44     6     1   ar
    45    38    33   ar
    46    12     7    1
    47    45    39   ar
    48    20    15   ar
    49    27    28    1
    50    23    24    1
@<TRIPOS>MOLECULE
*****
 45 50 0 0 0
SMALL
GASTEIGER

@<TRIPOS>ATOM
      1 C         -62.0630  -42.7384  -20.6816 C.ar    1  UNL1        0.0702
      2 C         -60.7187  -42.7936  -21.0819 C.ar    1  UNL1        0.0191
      3 C         -60.1739  -43.9925  -21.5445 C.ar    1  UNL1        0.0356
      4 C         -60.9848  -45.1351  -21.6301 C.ar    1  UNL1        0.1318
      5 N         -62.2878  -45.0555  -21.2413 N.ar    1  UNL1       -0.2279
      6 C         -62.8394  -43.8993  -20.7873 C.ar    1  UNL1        0.1149
      7 N         -60.4529  -46.3949  -22.0817 N.pl3   1  UNL1       -0.2932
      8 C         -60.1797  -46.5810  -23.5146 C.3     1  UNL1        0.0923
      9 C         -59.8740  -48.0497  -23.8464 C.3     1  UNL1        0.0252
     10 C         -60.8249  -48.9773  -23.0677 C.3     1  UNL1        0.0472
     11 C         -60.6665  -48.7996  -21.5325 C.3     1  UNL1        0.0252
     12 C         -60.0561  -47.4455  -21.1335 C.3     1  UNL1        0.0923
     13 C         -60.6140  -50.4443  -23.4880 C.3     1  UNL1        0.2054
     14 O         -61.4499  -51.3212  -22.7306 O.3     1  UNL1       -0.4755
     15 C         -62.6299  -51.9274  -23.1922 C.ar    1  UNL1        0.1388
     16 C         -63.3576  -51.4378  -24.2935 C.ar    1  UNL1        0.0369
     17 C         -64.5257  -52.0819  -24.7056 C.ar    1  UNL1        0.0033
     18 C         -64.9789  -53.2179  -24.0318 C.ar    1  UNL1        0.0066
     19 C         -64.2627  -53.7254  -22.9339 C.ar    1  UNL1        0.0785
     20 C         -63.0870  -53.0710  -22.5250 C.ar    1  UNL1        0.0433
     21 C         -64.7357  -54.9297  -22.2162 C.2     1  UNL1        0.3381
     22 O         -65.9466  -55.2761  -22.2786 O.2     1  UNL1       -0.2451
     23 O         -63.8467  -55.6932  -21.4638 O.3     1  UNL1       -0.4771
     24 H         -64.1602  -56.5194  -20.9685 H       1  UNL1        0.2954
     25 C         -62.3517  -40.2169  -20.7456 C.2     1  UNL1        0.2839
     26 O         -61.3305  -40.0537  -21.4661 O.2     1  UNL1       -0.2665
     27 N         -62.6677  -41.5173  -20.2223 N.am    1  UNL1       -0.2766
     28 H         -63.3131  -41.5721  -19.4019 H       1  UNL1        0.1553
     29 C         -65.5399  -40.2087  -20.4165 C.3     1  UNL1        0.0345
     30 C         -64.5959  -39.0549  -20.2576 C.ar    1  UNL1        0.0202
     31 C         -63.2041  -39.0626  -20.4030 C.ar    1  UNL1        0.1946
     32 O         -62.7200  -37.8532  -20.1827 O.2     1  UNL1       -0.4492
     33 C         -63.7260  -37.0614  -19.9026 C.ar    1  UNL1        0.1452
     34 C         -63.6740  -35.7044  -19.6035 C.ar    1  UNL1        0.0375
     35 C         -64.8831  -35.0420  -19.3294 C.ar    1  UNL1        0.0031
     36 C         -66.1198  -35.7415  -19.3583 C.ar    1  UNL1        0.0002
     37 C         -66.1286  -37.1229  -19.6677 C.ar    1  UNL1        0.0028
     38 C         -64.9098  -37.7485  -19.9348 C.ar    1  UNL1        0.0337
     39 C         -67.3908  -35.0312  -19.0668 C.ar    1  UNL1        0.0000
     40 C         -67.4284  -33.9913  -18.1189 C.ar    1  UNL1        0.0005
     41 C         -68.6265  -33.3245  -17.8456 C.ar    1  UNL1        0.0067
     42 C         -69.7994  -33.6860  -18.5140 C.ar    1  UNL1        0.0346
     43 BR        -71.4343  -32.7729  -18.1387 Br      1  UNL1       -0.0490
     44 C         -69.7741  -34.7168  -19.4573 C.ar    1  UNL1        0.0067
     45 C         -68.5785  -35.3870  -19.7334 C.ar    1  UNL1        0.0005
@<TRIPOS>BOND
     1    29    30    1
     2    30    31   ar
     3    31    25    1
     4    25    26    2
     5    25    27   am
     6    27     1    1
     7     1     2   ar
     8     2     3   ar
     9     3     4   ar
    10     4     7    1
    11     7     8    1
    12     8     9    1
    13     9    10    1
    14    10    13    1
    15    13    14    1
    16    14    15    1
    17    15    16   ar
    18    16    17   ar
    19    17    18   ar
    20    18    19   ar
    21    19    21    1
    22    21    22    2
    23    21    23    1
    24    19    20   ar
    25    10    11    1
    26    11    12    1
    27     4     5   ar
    28     5     6   ar
    29    31    32   ar
    30    32    33   ar
    31    33    34   ar
    32    34    35   ar
    33    35    36   ar
    34    36    39    1
    35    39    40   ar
    36    40    41   ar
    37    41    42   ar
    38    42    43    1
    39    42    44   ar
    40    44    45   ar
    41    36    37   ar
    42    37    38   ar
    43    38    30   ar
    44     6     1   ar
    45    38    33   ar
    46    12     7    1
    47    45    39   ar
    48    20    15   ar
    49    27    28    1
    50    23    24    1
@<TRIPOS>MOLECULE
*****
 45 50 0 0 0
SMALL
GASTEIGER

@<TRIPOS>ATOM
      1 C         -62.7752  -41.7314  -21.1157 C.ar    1  UNL1        0.0702
      2 C         -61.6661  -42.3743  -20.5441 C.ar    1  UNL1        0.0191
      3 C         -61.0714  -43.4568  -21.1943 C.ar    1  UNL1        0.0356
      4 C         -61.5739  -43.8819  -22.4342 C.ar    1  UNL1        0.1318
      5 N         -62.6475  -43.2387  -22.9717 N.ar    1  UNL1       -0.2279
      6 C         -63.2427  -42.1830  -22.3563 C.ar    1  UNL1        0.1149
      7 N         -61.0007  -45.0084  -23.1245 N.pl3   1  UNL1       -0.2932
      8 C         -59.5748  -44.9750  -23.4824 C.3     1  UNL1        0.0923
      9 C         -59.2031  -46.1229  -24.4338 C.3     1  UNL1        0.0252
     10 C         -60.3073  -46.3138  -25.4898 C.3     1  UNL1        0.0472
     11 C         -61.6699  -46.6697  -24.8340 C.3     1  UNL1        0.0252
     12 C         -61.7711  -46.2374  -23.3614 C.3     1  UNL1        0.0923
     13 C         -59.8882  -47.3749  -26.5250 C.3     1  UNL1        0.2054
     14 O         -59.3614  -46.7630  -27.7037 O.3     1  UNL1       -0.4755
     15 C         -60.0730  -45.9251  -28.5780 C.ar    1  UNL1        0.1388
     16 C         -61.3540  -45.4235  -28.2786 C.ar    1  UNL1        0.0369
     17 C         -62.0141  -44.5954  -29.1885 C.ar    1  UNL1        0.0033
     18 C         -61.4079  -44.2554  -30.3996 C.ar    1  UNL1        0.0066
     19 C         -60.1268  -44.7413  -30.7137 C.ar    1  UNL1        0.0785
     20 C         -59.4685  -45.5747  -29.7920 C.ar    1  UNL1        0.0433
     21 C         -59.4775  -44.3838  -31.9942 C.2     1  UNL1        0.3381
     22 O         -58.2329  -44.5242  -32.1405 O.2     1  UNL1       -0.2451
     23 O         -60.2360  -43.8880  -33.0517 O.3     1  UNL1       -0.4771
     24 H         -59.8014  -43.6401  -33.9326 H       1  UNL1        0.2954
     25 C         -63.0083  -39.2348  -20.7176 C.2     1  UNL1        0.2839
     26 O         -61.9159  -38.9762  -21.2907 O.2     1  UNL1       -0.2665
     27 N         -63.4006  -40.5982  -20.4893 N.am    1  UNL1       -0.2766
     28 H         -64.1274  -40.7839  -19.7614 H       1  UNL1        0.1553
     29 C         -66.2116  -39.2074  -20.6096 C.3     1  UNL1        0.0345
     30 C         -65.2679  -38.1197  -20.1925 C.ar    1  UNL1        0.0202
     31 C         -63.8695  -38.1355  -20.2421 C.ar    1  UNL1        0.1946
     32 O         -63.3882  -36.9926  -19.7863 O.2     1  UNL1       -0.4492
     33 C         -64.4022  -36.2361  -19.4443 C.ar    1  UNL1        0.1452
     34 C         -64.3559  -34.9510  -18.9154 C.ar    1  UNL1        0.0375
     35 C         -65.5736  -34.3163  -18.6153 C.ar    1  UNL1        0.0031
     36 C         -66.8132  -34.9715  -18.8471 C.ar    1  UNL1        0.0002
     37 C         -66.8160  -36.2799  -19.3874 C.ar    1  UNL1        0.0028
     38 C         -65.5886  -36.8798  -19.6738 C.ar    1  UNL1        0.0337
     39 C         -68.0933  -34.2910  -18.5259 C.ar    1  UNL1        0.0000
     40 C         -68.1093  -33.1453  -17.7083 C.ar    1  UNL1        0.0005
     41 C         -69.3160  -32.5068  -17.4065 C.ar    1  UNL1        0.0067
     42 C         -70.5191  -33.0023  -17.9166 C.ar    1  UNL1        0.0346
     43 BR        -72.1657  -32.1276  -17.5030 Br      1  UNL1       -0.0490
     44 C         -70.5154  -34.1390  -18.7297 C.ar    1  UNL1        0.0067
     45 C         -69.3113  -34.7813  -19.0334 C.ar    1  UNL1        0.0005
@<TRIPOS>BOND
     1    29    30    1
     2    30    31   ar
     3    31    25    1
     4    25    26    2
     5    25    27   am
     6    27     1    1
     7     1     2   ar
     8     2     3   ar
     9     3     4   ar
    10     4     7    1
    11     7     8    1
    12     8     9    1
    13     9    10    1
    14    10    13    1
    15    13    14    1
    16    14    15    1
    17    15    16   ar
    18    16    17   ar
    19    17    18   ar
    20    18    19   ar
    21    19    21    1
    22    21    22    2
    23    21    23    1
    24    19    20   ar
    25    10    11    1
    26    11    12    1
    27     4     5   ar
    28     5     6   ar
    29    31    32   ar
    30    32    33   ar
    31    33    34   ar
    32    34    35   ar
    33    35    36   ar
    34    36    39    1
    35    39    40   ar
    36    40    41   ar
    37    41    42   ar
    38    42    43    1
    39    42    44   ar
    40    44    45   ar
    41    36    37   ar
    42    37    38   ar
    43    38    30   ar
    44     6     1   ar
    45    38    33   ar
    46    12     7    1
    47    45    39   ar
    48    20    15   ar
    49    27    28    1
    50    23    24    1
