@<TRIPOS>MOLECULE
*****
 53 59 0 0 0
SMALL
GASTEIGER

@<TRIPOS>ATOM
      1 C          60.8158   85.0855    9.4816 C.ar    1  UNL1        0.0481
      2 C          59.8136   84.2763   10.0474 C.ar    1  UNL1        0.0176
      3 C          60.1495   83.1983   10.8706 C.ar    1  UNL1        0.0382
      4 C          61.4878   82.8941   11.1373 C.ar    1  UNL1        0.1388
      5 C          62.4944   83.7178   10.6002 C.ar    1  UNL1        0.0382
      6 C          62.1603   84.8015    9.7853 C.ar    1  UNL1        0.0176
      7 N          60.0040   88.1620    6.6512 N.pl3   1  UNL1       -0.3043
      8 C          59.3570   86.8586    6.4652 C.3     1  UNL1        0.1122
      9 C          59.2243   86.0956    7.7901 C.3     1  UNL1        0.1122
     10 N          60.4708   86.1585    8.5734 N.pl3   1  UNL1       -0.3041
     11 C          61.2638   87.4014    8.5979 C.3     1  UNL1        0.1122
     12 C          60.5027   88.5657    7.9651 C.3     1  UNL1        0.1122
     13 C          58.7725   89.7219    5.1693 C.ar    1  UNL1       -0.0074
     14 C          58.7966   90.6472    4.1114 C.ar    1  UNL1        0.0147
     15 C          60.0019   90.9823    3.4710 C.ar    1  UNL1        0.0696
     16 C          61.1901   90.3636    3.8886 C.ar    1  UNL1        0.0190
     17 C          61.1776   89.4397    4.9338 C.ar    1  UNL1        0.0157
     18 C          59.9794   89.1133    5.5795 C.ar    1  UNL1        0.0440
     19 N          60.0200   91.9304    2.3864 N.ar    1  UNL1       -0.2398
     20 C          60.1895   93.2687    2.4636 C.ar    1  UNL1        0.2073
     21 N          60.1283   93.8479    1.2457 N.ar    1  UNL1       -0.1442
     22 N          59.9209   92.8744    0.3711 N.ar    1  UNL1       -0.2024
     23 C          59.8430   91.7199    1.0669 C.ar    1  UNL1        0.3522
     24 O          59.5876   90.5957    0.5576 O.2     1  UNL1       -0.2444
     25 C          59.7325   93.1188   -1.0672 C.3     1  UNL1        0.1099
     26 C          60.9849   92.7840   -1.8917 C.3     1  UNL1        0.0265
     27 C          58.4543   92.4352   -1.5998 C.3     1  UNL1        0.0245
     28 C          57.1512   93.1560   -1.2491 C.3     1  UNL1        0.0021
     29 C          56.3007   90.1147    5.1244 C.3     1  UNL1        0.0051
     30 C          57.4459   89.3667    5.7999 C.3     1  UNL1        0.0277
     31 O          61.7662   81.7729   11.9372 O.3     1  UNL1       -0.4727
     32 C          62.6668   81.7456   13.0464 C.3     1  UNL1        0.2374
     33 C          63.0383   83.1708   13.4870 C.3     1  UNL1        0.1909
     34 C          63.4433   83.2327   14.9416 C.3     1  UNL1        0.1783
     35 O          62.5199   84.0651   15.5701 O.3     1  UNL1       -0.3271
     36 C          61.8950   84.7941   14.5361 C.3     1  UNL1        0.2232
     37 O          61.9497   84.0339   13.3467 O.3     1  UNL1       -0.3258
     38 C          62.6064   86.1449   14.3570 C.ar    1  UNL1        0.0404
     39 C          62.7746   86.6830   13.0620 C.ar    1  UNL1        0.0021
     40 C          63.3845   87.9241   12.8738 C.ar    1  UNL1        0.0113
     41 C          63.8277   88.6608   13.9710 C.ar    1  UNL1        0.0585
     42 CL         64.5903   90.2220   13.7302 Cl      1  UNL1       -0.0822
     43 C          63.6527   88.1600   15.2615 C.ar    1  UNL1        0.0226
     44 C          63.0411   86.9171   15.4668 C.ar    1  UNL1        0.0591
     45 CL         62.8272   86.3934   17.1353 Cl      1  UNL1       -0.0824
     46 C          60.4052   85.0081   14.9125 C.3     1  UNL1        0.1338
     47 N          59.5458   85.2177   13.7223 N.3     1  UNL1       -0.2659
     48 C          59.1242   86.6331   13.6197 C.3     1  UNL1        0.0898
     49 C          57.9599   86.7957   12.6321 C.3     1  UNL1        0.0897
     50 N          56.7636   86.0124   13.0315 N.3     1  UNL1       -0.2691
     51 C          55.7148   86.8783   13.5923 C.3     1  UNL1        0.0897
     52 C          57.0653   84.9065   13.9661 C.3     1  UNL1        0.0897
     53 C          58.4163   84.2560   13.6396 C.3     1  UNL1        0.0898
@<TRIPOS>BOND
     1    29    30    1
     2    30    13    1
     3    13    14   ar
     4    14    15   ar
     5    15    19    1
     6    19    20   ar
     7    20    21   ar
     8    21    22   ar
     9    22    25    1
    10    25    26    1
    11    25    27    1
    12    27    28    1
    13    22    23   ar
    14    23    24    2
    15    15    16   ar
    16    16    17   ar
    17    17    18   ar
    18    18     7    1
    19     7     8    1
    20     8     9    1
    21     9    10    1
    22    10     1    1
    23     1     2   ar
    24     2     3   ar
    25     3     4   ar
    26     4    31    1
    27    31    32    1
    28    32    33    1
    29    33    34    1
    30    34    35    1
    31    35    36    1
    32    36    46    1
    33    46    47    1
    34    47    48    1
    35    48    49    1
    36    49    50    1
    37    50    51    1
    38    50    52    1
    39    52    53    1
    40    36    38    1
    41    38    39   ar
    42    39    40   ar
    43    40    41   ar
    44    41    42    1
    45    41    43   ar
    46    43    44   ar
    47    44    45    1
    48    36    37    1
    49     4     5   ar
    50     5     6   ar
    51    10    11    1
    52    11    12    1
    53    18    13   ar
    54    12     7    1
    55    23    19   ar
    56     6     1   ar
    57    37    33    1
    58    53    47    1
    59    44    38   ar
@<TRIPOS>MOLECULE
*****
 53 59 0 0 0
SMALL
GASTEIGER

@<TRIPOS>ATOM
      1 C          60.5609   86.4476   10.8722 C.ar    1  UNL1        0.0481
      2 C          61.8933   86.3399   11.3110 C.ar    1  UNL1        0.0176
      3 C          62.1948   85.7181   12.5256 C.ar    1  UNL1        0.0382
      4 C          61.1779   85.2031   13.3352 C.ar    1  UNL1        0.1388
      5 C          59.8458   85.2793   12.8881 C.ar    1  UNL1        0.0382
      6 C          59.5435   85.8915   11.6699 C.ar    1  UNL1        0.0176
      7 N          59.8892   88.5236    7.2152 N.pl3   1  UNL1       -0.3043
      8 C          59.9006   87.0569    7.1894 C.3     1  UNL1        0.1122
      9 C          59.5364   86.4614    8.5561 C.3     1  UNL1        0.1122
     10 N          60.2430   87.1528    9.6489 N.pl3   1  UNL1       -0.3041
     11 C          60.4411   88.6127    9.5907 C.3     1  UNL1        0.1122
     12 C          59.6299   89.2450    8.4604 C.3     1  UNL1        0.1122
     13 C          58.7745   89.6579    5.3135 C.ar    1  UNL1       -0.0074
     14 C          58.8836   90.3602    4.1007 C.ar    1  UNL1        0.0147
     15 C          60.1410   90.6662    3.5528 C.ar    1  UNL1        0.0696
     16 C          61.2981   90.2428    4.2244 C.ar    1  UNL1        0.0190
     17 C          61.2020   89.5405    5.4260 C.ar    1  UNL1        0.0157
     18 C          59.9504   89.2445    5.9781 C.ar    1  UNL1        0.0440
     19 N          60.2464   91.3851    2.3088 N.ar    1  UNL1       -0.2398
     20 C          59.2674   91.6235    1.4084 C.ar    1  UNL1        0.2073
     21 N          59.7295   92.3121    0.3432 N.ar    1  UNL1       -0.1442
     22 N          61.0196   92.5249    0.5579 N.ar    1  UNL1       -0.2024
     23 C          61.3294   91.9512    1.7403 C.ar    1  UNL1        0.3522
     24 O          62.4904   91.9052    2.2285 O.2     1  UNL1       -0.2444
     25 C          61.8923   93.1959   -0.4178 C.3     1  UNL1        0.1099
     26 C          63.1192   93.8477    0.2381 C.3     1  UNL1        0.0265
     27 C          62.2560   92.2638   -1.5942 C.3     1  UNL1        0.0245
     28 C          63.5377   91.4529   -1.3937 C.3     1  UNL1        0.0021
     29 C          56.3193   90.0916    5.0899 C.3     1  UNL1        0.0051
     30 C          57.3994   89.3200    5.8415 C.3     1  UNL1        0.0277
     31 O          61.5374   84.6271   14.5653 O.3     1  UNL1       -0.4727
     32 C          62.3618   83.4720   14.7334 C.3     1  UNL1        0.2374
     33 C          61.7416   82.2491   14.0382 C.3     1  UNL1        0.1909
     34 C          62.6287   81.0290   14.1275 C.3     1  UNL1        0.1783
     35 O          62.9605   80.6893   12.8180 O.3     1  UNL1       -0.3271
     36 C          62.0158   81.3458   12.0007 C.3     1  UNL1        0.2232
     37 O          61.5503   82.4952   12.6771 O.3     1  UNL1       -0.3258
     38 C          60.8559   80.3879   11.6844 C.ar    1  UNL1        0.0404
     39 C          61.1161   79.0148   11.4796 C.ar    1  UNL1        0.0021
     40 C          60.0776   78.1173   11.2267 C.ar    1  UNL1        0.0113
     41 C          58.7583   78.5654   11.1854 C.ar    1  UNL1        0.0585
     42 CL         57.4559   77.4333   10.8711 Cl      1  UNL1       -0.0822
     43 C          58.4745   79.9135   11.4066 C.ar    1  UNL1        0.0226
     44 C          59.5053   80.8262   11.6631 C.ar    1  UNL1        0.0591
     45 CL         59.0397   82.4968   11.9726 Cl      1  UNL1       -0.0824
     46 C          62.7211   81.7980   10.6950 C.3     1  UNL1        0.1338
     47 N          61.9007   82.7522    9.9104 N.3     1  UNL1       -0.2659
     48 C          61.1590   82.0514    8.8379 C.3     1  UNL1        0.0898
     49 C          60.6079   83.0437    7.8039 C.3     1  UNL1        0.0897
     50 N          61.6804   83.8334    7.1478 N.3     1  UNL1       -0.2691
     51 C          61.9358   83.3620    5.7779 C.3     1  UNL1        0.0897
     52 C          62.9427   83.8713    7.9176 C.3     1  UNL1        0.0897
     53 C          62.6716   83.9267    9.4271 C.3     1  UNL1        0.0898
@<TRIPOS>BOND
     1    29    30    1
     2    30    13    1
     3    13    14   ar
     4    14    15   ar
     5    15    19    1
     6    19    20   ar
     7    20    21   ar
     8    21    22   ar
     9    22    25    1
    10    25    26    1
    11    25    27    1
    12    27    28    1
    13    22    23   ar
    14    23    24    2
    15    15    16   ar
    16    16    17   ar
    17    17    18   ar
    18    18     7    1
    19     7     8    1
    20     8     9    1
    21     9    10    1
    22    10     1    1
    23     1     2   ar
    24     2     3   ar
    25     3     4   ar
    26     4    31    1
    27    31    32    1
    28    32    33    1
    29    33    34    1
    30    34    35    1
    31    35    36    1
    32    36    46    1
    33    46    47    1
    34    47    48    1
    35    48    49    1
    36    49    50    1
    37    50    51    1
    38    50    52    1
    39    52    53    1
    40    36    38    1
    41    38    39   ar
    42    39    40   ar
    43    40    41   ar
    44    41    42    1
    45    41    43   ar
    46    43    44   ar
    47    44    45    1
    48    36    37    1
    49     4     5   ar
    50     5     6   ar
    51    10    11    1
    52    11    12    1
    53    18    13   ar
    54    12     7    1
    55    23    19   ar
    56     6     1   ar
    57    37    33    1
    58    53    47    1
    59    44    38   ar
@<TRIPOS>MOLECULE
*****
 53 59 0 0 0
SMALL
GASTEIGER

@<TRIPOS>ATOM
      1 C          60.6454   86.6772   11.0568 C.ar    1  UNL1        0.0481
      2 C          59.6330   86.0624   11.8161 C.ar    1  UNL1        0.0176
      3 C          59.9400   85.3975   13.0062 C.ar    1  UNL1        0.0382
      4 C          61.2605   85.3179   13.4588 C.ar    1  UNL1        0.1388
      5 C          62.2740   85.9571   12.7210 C.ar    1  UNL1        0.0382
      6 C          61.9676   86.6306   11.5366 C.ar    1  UNL1        0.0176
      7 N          60.0046   88.5436    7.2831 N.pl3   1  UNL1       -0.3043
      8 C          60.1238   87.0820    7.3239 C.3     1  UNL1        0.1122
      9 C          59.7373   86.5182    8.6980 C.3     1  UNL1        0.1122
     10 N          60.3374   87.3053    9.7897 N.pl3   1  UNL1       -0.3041
     11 C          60.4315   88.7723    9.6749 C.3     1  UNL1        0.1122
     12 C          59.6329   89.2946    8.4814 C.3     1  UNL1        0.1122
     13 C          58.9027   89.6184    5.3399 C.ar    1  UNL1       -0.0074
     14 C          59.0196   90.2715    4.1007 C.ar    1  UNL1        0.0147
     15 C          60.2802   90.5387    3.5400 C.ar    1  UNL1        0.0696
     16 C          61.4324   90.1258    4.2264 C.ar    1  UNL1        0.0190
     17 C          61.3286   89.4721    5.4544 C.ar    1  UNL1        0.0157
     18 C          60.0738   89.2150    6.0189 C.ar    1  UNL1        0.0440
     19 N          60.3936   91.2073    2.2689 N.ar    1  UNL1       -0.2398
     20 C          61.5247   91.5876    1.6350 C.ar    1  UNL1        0.2073
     21 N          61.2545   92.2103    0.4681 N.ar    1  UNL1       -0.1442
     22 N          59.9354   92.2298    0.3436 N.ar    1  UNL1       -0.2024
     23 C          59.4201   91.6346    1.4405 C.ar    1  UNL1        0.3522
     24 O          58.1879   91.5346    1.6856 O.2     1  UNL1       -0.2444
     25 C          59.2483   92.8860   -0.7794 C.3     1  UNL1        0.1099
     26 C          60.1717   93.8280   -1.5670 C.3     1  UNL1        0.0265
     27 C          58.5156   91.8642   -1.6760 C.3     1  UNL1        0.0245
     28 C          56.9893   91.9143   -1.5859 C.3     1  UNL1        0.0021
     29 C          56.4558   90.0983    5.1200 C.3     1  UNL1        0.0051
     30 C          57.5239   89.3202    5.8820 C.3     1  UNL1        0.0277
     31 O          61.5144   84.5999   14.6396 O.3     1  UNL1       -0.4727
     32 C          62.3622   83.4549   14.7508 C.3     1  UNL1        0.2374
     33 C          61.7382   82.2395   14.0460 C.3     1  UNL1        0.1909
     34 C          62.6222   81.0163   14.1247 C.3     1  UNL1        0.1783
     35 O          62.9522   80.6865   12.8121 O.3     1  UNL1       -0.3271
     36 C          62.0087   81.3522   12.0009 C.3     1  UNL1        0.2232
     37 O          61.5467   82.4973   12.6871 O.3     1  UNL1       -0.3258
     38 C          60.8461   80.4001   11.6775 C.ar    1  UNL1        0.0404
     39 C          61.1026   79.0282   11.4602 C.ar    1  UNL1        0.0021
     40 C          60.0616   78.1356   11.2006 C.ar    1  UNL1        0.0113
     41 C          58.7434   78.5873   11.1649 C.ar    1  UNL1        0.0585
     42 CL         57.4378   77.4612   10.8421 Cl      1  UNL1       -0.0822
     43 C          58.4632   79.9340   11.3984 C.ar    1  UNL1        0.0226
     44 C          59.4965   80.8418   11.6618 C.ar    1  UNL1        0.0591
     45 CL         59.0355   82.5108   11.9866 Cl      1  UNL1       -0.0824
     46 C          62.7144   81.8133   10.6985 C.3     1  UNL1        0.1338
     47 N          61.8805   82.7471    9.9037 N.3     1  UNL1       -0.2659
     48 C          61.1893   82.0328    8.8067 C.3     1  UNL1        0.0898
     49 C          60.6291   83.0166    7.7694 C.3     1  UNL1        0.0897
     50 N          61.6890   83.8496    7.1474 N.3     1  UNL1       -0.2691
     51 C          61.9932   83.4019    5.7795 C.3     1  UNL1        0.0897
     52 C          62.9305   83.9225    7.9479 C.3     1  UNL1        0.0897
     53 C          62.6217   83.9525    9.4508 C.3     1  UNL1        0.0898
@<TRIPOS>BOND
     1    29    30    1
     2    30    13    1
     3    13    14   ar
     4    14    15   ar
     5    15    19    1
     6    19    20   ar
     7    20    21   ar
     8    21    22   ar
     9    22    25    1
    10    25    26    1
    11    25    27    1
    12    27    28    1
    13    22    23   ar
    14    23    24    2
    15    15    16   ar
    16    16    17   ar
    17    17    18   ar
    18    18     7    1
    19     7     8    1
    20     8     9    1
    21     9    10    1
    22    10     1    1
    23     1     2   ar
    24     2     3   ar
    25     3     4   ar
    26     4    31    1
    27    31    32    1
    28    32    33    1
    29    33    34    1
    30    34    35    1
    31    35    36    1
    32    36    46    1
    33    46    47    1
    34    47    48    1
    35    48    49    1
    36    49    50    1
    37    50    51    1
    38    50    52    1
    39    52    53    1
    40    36    38    1
    41    38    39   ar
    42    39    40   ar
    43    40    41   ar
    44    41    42    1
    45    41    43   ar
    46    43    44   ar
    47    44    45    1
    48    36    37    1
    49     4     5   ar
    50     5     6   ar
    51    10    11    1
    52    11    12    1
    53    18    13   ar
    54    12     7    1
    55    23    19   ar
    56     6     1   ar
    57    37    33    1
    58    53    47    1
    59    44    38   ar
@<TRIPOS>MOLECULE
*****
 53 59 0 0 0
SMALL
GASTEIGER

@<TRIPOS>ATOM
      1 C          59.9133   84.6161    8.8034 C.ar    1  UNL1        0.0481
      2 C          60.4983   83.4646    8.2456 C.ar    1  UNL1        0.0176
      3 C          59.7083   82.3737    7.8735 C.ar    1  UNL1        0.0382
      4 C          58.3230   82.3991    8.0609 C.ar    1  UNL1        0.1388
      5 C          57.7275   83.5595    8.5892 C.ar    1  UNL1        0.0382
      6 C          58.5144   84.6545    8.9524 C.ar    1  UNL1        0.0176
      7 N          62.4157   87.7029   10.3347 N.pl3   1  UNL1       -0.3043
      8 C          63.0047   86.7232    9.4152 C.3     1  UNL1        0.1122
      9 C          61.9459   86.0960    8.4983 C.3     1  UNL1        0.1122
     10 N          60.7381   85.7173    9.2529 N.pl3   1  UNL1       -0.3041
     11 C          60.2474   86.5831   10.3409 C.3     1  UNL1        0.1122
     12 C          60.9713   87.9288   10.3576 C.3     1  UNL1        0.1122
     13 C          63.4497   88.4117   12.4734 C.ar    1  UNL1       -0.0074
     14 C          64.3062   89.2873   13.1631 C.ar    1  UNL1        0.0147
     15 C          65.0027   90.3018   12.4843 C.ar    1  UNL1        0.0696
     16 C          64.8181   90.4465   11.1007 C.ar    1  UNL1        0.0190
     17 C          63.9664   89.5869   10.4066 C.ar    1  UNL1        0.0157
     18 C          63.2805   88.5693   11.0799 C.ar    1  UNL1        0.0440
     19 N          65.8782   91.1970   13.1968 N.ar    1  UNL1       -0.2398
     20 C          66.1394   92.4926   12.9158 C.ar    1  UNL1        0.2073
     21 N          67.0284   93.0195   13.7844 N.ar    1  UNL1       -0.1442
     22 N          67.3429   92.0565   14.6384 N.ar    1  UNL1       -0.2024
     23 C          66.6554   90.9540   14.2708 C.ar    1  UNL1        0.3522
     24 O          66.7625   89.8280   14.8267 O.2     1  UNL1       -0.2444
     25 C          68.3405   92.2290   15.7056 C.3     1  UNL1        0.1099
     26 C          69.4777   91.1993   15.6224 C.3     1  UNL1        0.0265
     27 C          68.8454   93.6862   15.7850 C.3     1  UNL1        0.0245
     28 C          70.3653   93.8407   15.7041 C.3     1  UNL1        0.0021
     29 C          63.1002   87.3754   14.7251 C.3     1  UNL1        0.0051
     30 C          62.6941   87.3617   13.2546 C.3     1  UNL1        0.0277
     31 O          57.5851   81.2568    7.7075 O.3     1  UNL1       -0.4727
     32 C          57.4674   80.0674    8.4908 C.3     1  UNL1        0.2374
     33 C          58.5729   80.0008    9.5570 C.3     1  UNL1        0.1909
     34 C          58.2773   78.9727   10.6244 C.3     1  UNL1        0.1783
     35 O          58.1753   79.6723   11.8246 O.3     1  UNL1       -0.3271
     36 C          58.7908   80.9210   11.5938 C.3     1  UNL1        0.2232
     37 O          58.7011   81.2246   10.2171 O.3     1  UNL1       -0.3258
     38 C          60.2580   80.8627   12.0483 C.ar    1  UNL1        0.0404
     39 C          61.2417   81.5857   11.3379 C.ar    1  UNL1        0.0021
     40 C          62.5751   81.5792   11.7502 C.ar    1  UNL1        0.0113
     41 C          62.9544   80.8640   12.8850 C.ar    1  UNL1        0.0585
     42 CL         64.6306   80.8617   13.4018 Cl      1  UNL1       -0.0822
     43 C          61.9967   80.1601   13.6158 C.ar    1  UNL1        0.0226
     44 C          60.6546   80.1581   13.2158 C.ar    1  UNL1        0.0591
     45 CL         59.5160   79.2756   14.2300 Cl      1  UNL1       -0.0824
     46 C          58.0172   82.0076   12.3863 C.3     1  UNL1        0.1338
     47 N          58.5026   83.3770   12.0894 N.3     1  UNL1       -0.2659
     48 C          59.6236   83.7441   12.9839 C.3     1  UNL1        0.0898
     49 C          59.8906   85.2557   12.9483 C.3     1  UNL1        0.0897
     50 N          58.7121   86.0501   13.3778 N.3     1  UNL1       -0.2691
     51 C          58.8890   86.5854   14.7366 C.3     1  UNL1        0.0897
     52 C          57.4342   85.3117   13.2831 C.3     1  UNL1        0.0897
     53 C          57.4151   84.3889   12.0571 C.3     1  UNL1        0.0898
@<TRIPOS>BOND
     1    29    30    1
     2    30    13    1
     3    13    14   ar
     4    14    15   ar
     5    15    19    1
     6    19    20   ar
     7    20    21   ar
     8    21    22   ar
     9    22    25    1
    10    25    26    1
    11    25    27    1
    12    27    28    1
    13    22    23   ar
    14    23    24    2
    15    15    16   ar
    16    16    17   ar
    17    17    18   ar
    18    18     7    1
    19     7     8    1
    20     8     9    1
    21     9    10    1
    22    10     1    1
    23     1     2   ar
    24     2     3   ar
    25     3     4   ar
    26     4    31    1
    27    31    32    1
    28    32    33    1
    29    33    34    1
    30    34    35    1
    31    35    36    1
    32    36    46    1
    33    46    47    1
    34    47    48    1
    35    48    49    1
    36    49    50    1
    37    50    51    1
    38    50    52    1
    39    52    53    1
    40    36    38    1
    41    38    39   ar
    42    39    40   ar
    43    40    41   ar
    44    41    42    1
    45    41    43   ar
    46    43    44   ar
    47    44    45    1
    48    36    37    1
    49     4     5   ar
    50     5     6   ar
    51    10    11    1
    52    11    12    1
    53    18    13   ar
    54    12     7    1
    55    23    19   ar
    56     6     1   ar
    57    37    33    1
    58    53    47    1
    59    44    38   ar
