@<TRIPOS>MOLECULE
*****
 40 44 0 0 0
SMALL
GASTEIGER

@<TRIPOS>ATOM
      1 C          -9.4830   -8.7358   29.9385 C.ar    1  UNL1        0.0888
      2 C         -10.6426   -9.4677   30.3119 C.ar    1  UNL1        0.0282
      3 C         -10.5298  -10.8575   30.4626 C.ar    1  UNL1        0.0997
      4 N         -11.4931  -11.7321   30.8030 N.ar    1  UNL1       -0.2137
      5 C         -10.8295  -12.9217   30.7965 C.ar    1  UNL1        0.1984
      6 N          -9.5139  -12.8207   30.4838 N.ar    1  UNL1       -0.3255
      7 C          -9.3463  -11.5111   30.2714 C.ar    1  UNL1        0.0755
      8 C          -8.1989  -10.8132   29.9223 C.ar    1  UNL1        0.0325
      9 C          -8.2702   -9.4514   29.7701 C.ar    1  UNL1        0.1401
     10 O          -7.0305   -8.9322   29.4602 O.3     1  UNL1       -0.4824
     11 C          -6.0529   -9.9715   29.3526 C.3     1  UNL1        0.1375
     12 C          -4.9216   -9.7031   30.3530 C.3     1  UNL1        0.0439
     13 C          -5.5052   -9.9981   27.9194 C.3     1  UNL1        0.0439
     14 C          -6.8144  -11.2966   29.6924 C.3     1  UNL1        0.0709
     15 H          -8.8015  -13.5821   30.4262 H       1  UNL1        0.1686
     16 N          -8.9445   -6.3523   30.6721 N.am    1  UNL1       -0.2806
     17 C          -9.5541   -7.2693   29.7494 C.2     1  UNL1        0.2525
     18 O         -10.1857   -6.8079   28.7612 O.2     1  UNL1       -0.2697
     19 H          -9.3729   -5.4034   30.7585 H       1  UNL1        0.1552
     20 C          -6.4485   -5.1532   29.7545 C.3     1  UNL1        0.0323
     21 C          -6.4999   -6.0646   30.9508 C.ar    1  UNL1       -0.0084
     22 C          -5.3180   -6.3461   31.6568 C.ar    1  UNL1        0.0008
     23 C          -5.3348   -7.1772   32.7886 C.ar    1  UNL1        0.0712
     24 C          -6.5575   -7.7064   33.2274 C.ar    1  UNL1        0.0051
     25 C          -7.7343   -7.4459   32.5249 C.ar    1  UNL1        0.0143
     26 C          -7.7229   -6.6214   31.3871 C.ar    1  UNL1        0.0465
     27 C          -4.0723   -7.4101   33.5801 C.3     1  UNL1        0.4186
     28 F          -3.5321   -8.6490   33.2819 F       1  UNL1       -0.1659
     29 F          -4.3290   -7.3668   34.9397 F       1  UNL1       -0.1659
     30 F          -3.1512   -6.4289   33.2644 F       1  UNL1       -0.1659
     31 N         -11.4468  -14.1693   31.1368 N.pl3   1  UNL1       -0.2816
     32 H         -11.3829  -14.9512   30.4469 H       1  UNL1        0.1551
     33 C         -12.0142  -14.4318   32.4298 C.ar    1  UNL1        0.0889
     34 C         -13.0819  -15.3394   32.5732 C.ar    1  UNL1        0.1543
     35 F         -13.5763  -16.0024   31.4975 F       1  UNL1       -0.2028
     36 C         -13.6172  -15.6019   33.8378 C.ar    1  UNL1        0.0310
     37 C         -13.0891  -14.9746   34.9676 C.ar    1  UNL1        0.0033
     38 C         -12.0180  -14.0880   34.8384 C.ar    1  UNL1        0.0128
     39 C         -11.4735  -13.8183   33.5772 C.ar    1  UNL1        0.0733
     40 CL        -10.1382  -12.6798   33.4573 Cl      1  UNL1       -0.0809
@<TRIPOS>BOND
     1    20    21    1
     2    21    22   ar
     3    22    23   ar
     4    23    27    1
     5    27    28    1
     6    27    29    1
     7    27    30    1
     8    23    24   ar
     9    24    25   ar
    10    25    26   ar
    11    26    16    1
    12    16    17   am
    13    17    18    2
    14    17     1    1
    15     1     2   ar
    16     2     3   ar
    17     3     4   ar
    18     4     5   ar
    19     5    31    1
    20    31    33    1
    21    33    34   ar
    22    34    35    1
    23    34    36   ar
    24    36    37   ar
    25    37    38   ar
    26    38    39   ar
    27    39    40    1
    28     5     6   ar
    29     6     7   ar
    30     7     8   ar
    31     8     9   ar
    32     9    10    1
    33    10    11    1
    34    11    12    1
    35    11    13    1
    36    11    14    1
    37    26    21   ar
    38     9     1   ar
    39     7     3   ar
    40    14     8    1
    41    39    33   ar
    42    16    19    1
    43    31    32    1
    44     6    15    1
@<TRIPOS>MOLECULE
*****
 40 44 0 0 0
SMALL
GASTEIGER

@<TRIPOS>ATOM
      1 C          -9.4030  -10.8211   30.5084 C.ar    1  UNL1        0.0888
      2 C          -9.9614  -11.9367   29.8277 C.ar    1  UNL1        0.0282
      3 C          -9.0924  -12.8002   29.1450 C.ar    1  UNL1        0.0997
      4 N          -9.4075  -13.9015   28.4402 N.ar    1  UNL1       -0.2137
      5 C          -8.1910  -14.3340   28.0061 C.ar    1  UNL1        0.1984
      6 N          -7.1511  -13.5665   28.4164 N.ar    1  UNL1       -0.3255
      7 C          -7.7416  -12.6011   29.1289 C.ar    1  UNL1        0.0755
      8 C          -7.1748  -11.5273   29.8004 C.ar    1  UNL1        0.0325
      9 C          -7.9937  -10.6636   30.4831 C.ar    1  UNL1        0.1401
     10 O          -7.2514   -9.6870   31.1135 O.3     1  UNL1       -0.4824
     11 C          -5.8567   -9.8448   30.8349 C.3     1  UNL1        0.1375
     12 C          -5.0962  -10.0144   32.1561 C.3     1  UNL1        0.0439
     13 C          -5.3525   -8.6063   30.0821 C.3     1  UNL1        0.0439
     14 C          -5.7522  -11.1293   29.9459 C.3     1  UNL1        0.0709
     15 H          -6.1331  -13.6992   28.2250 H       1  UNL1        0.1686
     16 N         -11.5725  -10.2530   31.7248 N.am    1  UNL1       -0.2806
     17 C         -10.2796   -9.8703   31.2289 C.2     1  UNL1        0.2525
     18 O          -9.8913   -8.6830   31.3953 O.2     1  UNL1       -0.2697
     19 H         -12.2955   -9.5033   31.8070 H       1  UNL1        0.1552
     20 C          -9.9223  -11.4338   33.8207 C.3     1  UNL1        0.0323
     21 C         -11.0932  -12.1664   33.2233 C.ar    1  UNL1       -0.0084
     22 C         -11.4129  -13.4538   33.6871 C.ar    1  UNL1        0.0008
     23 C         -12.5105  -14.1566   33.1643 C.ar    1  UNL1        0.0712
     24 C         -13.3077  -13.5450   32.1854 C.ar    1  UNL1        0.0051
     25 C         -12.9900  -12.2737   31.7068 C.ar    1  UNL1        0.0143
     26 C         -11.8885  -11.5685   32.2203 C.ar    1  UNL1        0.0465
     27 C         -12.8865  -15.5056   33.7240 C.3     1  UNL1        0.4186
     28 F         -12.1613  -16.5090   33.1050 F       1  UNL1       -0.1659
     29 F         -14.2326  -15.7618   33.5278 F       1  UNL1       -0.1659
     30 F         -12.6172  -15.5256   35.0797 F       1  UNL1       -0.1659
     31 N          -8.0107  -15.5220   27.2254 N.pl3   1  UNL1       -0.2816
     32 H          -8.4874  -16.3948   27.5453 H       1  UNL1        0.1551
     33 C          -7.3322  -15.5281   25.9596 C.ar    1  UNL1        0.0889
     34 C          -5.9256  -15.5738   25.9005 C.ar    1  UNL1        0.1543
     35 F          -5.1866  -15.6402   27.0366 F       1  UNL1       -0.2028
     36 C          -5.2736  -15.5965   24.6639 C.ar    1  UNL1        0.0310
     37 C          -6.0135  -15.5855   23.4801 C.ar    1  UNL1        0.0033
     38 C          -7.4088  -15.5598   23.5279 C.ar    1  UNL1        0.0128
     39 C          -8.0722  -15.5378   24.7605 C.ar    1  UNL1        0.0733
     40 CL         -9.8302  -15.4853   24.7751 Cl      1  UNL1       -0.0809
@<TRIPOS>BOND
     1    20    21    1
     2    21    22   ar
     3    22    23   ar
     4    23    27    1
     5    27    28    1
     6    27    29    1
     7    27    30    1
     8    23    24   ar
     9    24    25   ar
    10    25    26   ar
    11    26    16    1
    12    16    17   am
    13    17    18    2
    14    17     1    1
    15     1     2   ar
    16     2     3   ar
    17     3     4   ar
    18     4     5   ar
    19     5    31    1
    20    31    33    1
    21    33    34   ar
    22    34    35    1
    23    34    36   ar
    24    36    37   ar
    25    37    38   ar
    26    38    39   ar
    27    39    40    1
    28     5     6   ar
    29     6     7   ar
    30     7     8   ar
    31     8     9   ar
    32     9    10    1
    33    10    11    1
    34    11    12    1
    35    11    13    1
    36    11    14    1
    37    26    21   ar
    38     9     1   ar
    39     7     3   ar
    40    14     8    1
    41    39    33   ar
    42    16    19    1
    43    31    32    1
    44     6    15    1
@<TRIPOS>MOLECULE
*****
 40 44 0 0 0
SMALL
GASTEIGER

@<TRIPOS>ATOM
      1 C          -9.3558  -10.8629   30.4930 C.ar    1  UNL1        0.0888
      2 C          -9.9318  -11.9736   29.8189 C.ar    1  UNL1        0.0282
      3 C          -9.0779  -12.8465   29.1291 C.ar    1  UNL1        0.0997
      4 N          -9.4108  -13.9453   28.4286 N.ar    1  UNL1       -0.2137
      5 C          -8.2028  -14.3905   27.9836 C.ar    1  UNL1        0.1984
      6 N          -7.1514  -13.6331   28.3832 N.ar    1  UNL1       -0.3255
      7 C          -7.7255  -12.6611   29.1001 C.ar    1  UNL1        0.0755
      8 C          -7.1415  -11.5923   29.7651 C.ar    1  UNL1        0.0325
      9 C          -7.9453  -10.7197   30.4544 C.ar    1  UNL1        0.1401
     10 O          -7.1872   -9.7499   31.0766 O.3     1  UNL1       -0.4824
     11 C          -5.7969   -9.9222   30.7852 C.3     1  UNL1        0.1375
     12 C          -5.0257  -10.0980   32.0994 C.3     1  UNL1        0.0439
     13 C          -5.2873   -8.6896   30.0263 C.3     1  UNL1        0.0439
     14 C          -5.7137  -11.2086   29.8967 C.3     1  UNL1        0.0709
     15 H          -6.1367  -13.7763   28.1824 H       1  UNL1        0.1686
     16 N         -11.5106  -10.2698   31.7235 N.am    1  UNL1       -0.2806
     17 C         -10.2159   -9.9026   31.2207 C.2     1  UNL1        0.2525
     18 O          -9.8116   -8.7206   31.3871 O.2     1  UNL1       -0.2697
     19 H         -12.2235   -9.5113   31.8115 H       1  UNL1        0.1552
     20 C          -9.8908  -11.4567   33.8396 C.3     1  UNL1        0.0323
     21 C         -11.0598  -12.1831   33.2311 C.ar    1  UNL1       -0.0084
     22 C         -11.3927  -13.4674   33.6940 C.ar    1  UNL1        0.0008
     23 C         -12.4891  -14.1643   33.1608 C.ar    1  UNL1        0.0712
     24 C         -13.2716  -13.5498   32.1721 C.ar    1  UNL1        0.0051
     25 C         -12.9407  -12.2816   31.6943 C.ar    1  UNL1        0.0143
     26 C         -11.8403  -11.5822   32.2183 C.ar    1  UNL1        0.0465
     27 C         -12.8797  -15.5097   33.7191 C.3     1  UNL1        0.4186
     28 F         -12.1603  -16.5197   33.1042 F       1  UNL1       -0.1659
     29 F         -14.2270  -15.7542   33.5163 F       1  UNL1       -0.1659
     30 F         -12.6174  -15.5315   35.0762 F       1  UNL1       -0.1659
     31 N          -8.0418  -15.5811   27.2025 N.pl3   1  UNL1       -0.2816
     32 H          -8.3486  -16.4871   27.6226 H       1  UNL1        0.1551
     33 C          -7.6189  -15.5625   25.8301 C.ar    1  UNL1        0.0889
     34 C          -8.5519  -15.3552   24.7953 C.ar    1  UNL1        0.1543
     35 F          -9.8621  -15.1423   25.0767 F       1  UNL1       -0.2028
     36 C          -8.1291  -15.3217   23.4631 C.ar    1  UNL1        0.0310
     37 C          -6.7779  -15.4823   23.1513 C.ar    1  UNL1        0.0033
     38 C          -5.8425  -15.6691   24.1711 C.ar    1  UNL1        0.0128
     39 C          -6.2543  -15.7035   25.5086 C.ar    1  UNL1        0.0733
     40 CL         -5.0459  -15.9612   26.7603 Cl      1  UNL1       -0.0809
@<TRIPOS>BOND
     1    20    21    1
     2    21    22   ar
     3    22    23   ar
     4    23    27    1
     5    27    28    1
     6    27    29    1
     7    27    30    1
     8    23    24   ar
     9    24    25   ar
    10    25    26   ar
    11    26    16    1
    12    16    17   am
    13    17    18    2
    14    17     1    1
    15     1     2   ar
    16     2     3   ar
    17     3     4   ar
    18     4     5   ar
    19     5    31    1
    20    31    33    1
    21    33    34   ar
    22    34    35    1
    23    34    36   ar
    24    36    37   ar
    25    37    38   ar
    26    38    39   ar
    27    39    40    1
    28     5     6   ar
    29     6     7   ar
    30     7     8   ar
    31     8     9   ar
    32     9    10    1
    33    10    11    1
    34    11    12    1
    35    11    13    1
    36    11    14    1
    37    26    21   ar
    38     9     1   ar
    39     7     3   ar
    40    14     8    1
    41    39    33   ar
    42    16    19    1
    43    31    32    1
    44     6    15    1
@<TRIPOS>MOLECULE
*****
 40 44 0 0 0
SMALL
GASTEIGER

@<TRIPOS>ATOM
      1 C          -8.2406   -9.1150   32.4808 C.ar    1  UNL1        0.0888
      2 C          -8.4640  -10.5095   32.6403 C.ar    1  UNL1        0.0282
      3 C          -9.6185  -11.0656   32.0706 C.ar    1  UNL1        0.0997
      4 N         -10.0206  -12.3486   32.1049 N.ar    1  UNL1       -0.2137
      5 C         -11.1872  -12.3128   31.4026 C.ar    1  UNL1        0.1984
      6 N         -11.5129  -11.0837   30.9314 N.ar    1  UNL1       -0.3255
      7 C         -10.5134  -10.3102   31.3684 C.ar    1  UNL1        0.0755
      8 C         -10.3057   -8.9502   31.1874 C.ar    1  UNL1        0.0325
      9 C          -9.1845   -8.3719   31.7270 C.ar    1  UNL1        0.1401
     10 O          -9.1320   -7.0298   31.4135 O.3     1  UNL1       -0.4824
     11 C         -10.2796   -6.6364   30.6546 C.3     1  UNL1        0.1375
     12 C          -9.8190   -6.0496   29.3144 C.3     1  UNL1        0.0439
     13 C         -11.0738   -5.5928   31.4514 C.3     1  UNL1        0.0439
     14 C         -11.1123   -7.9463   30.4495 C.3     1  UNL1        0.0709
     15 H         -12.3431  -10.8078   30.3611 H       1  UNL1        0.1686
     16 N          -5.7216   -8.7219   32.5782 N.am    1  UNL1       -0.2806
     17 C          -7.0459   -8.4769   33.0783 C.2     1  UNL1        0.2525
     18 O          -7.1899   -7.7113   34.0690 O.2     1  UNL1       -0.2697
     19 H          -4.9300   -8.6341   33.2542 H       1  UNL1        0.1552
     20 C          -4.7075  -11.3322   31.7609 C.3     1  UNL1        0.0323
     21 C          -4.9081  -10.2130   30.7751 C.ar    1  UNL1       -0.0084
     22 C          -4.6079  -10.4244   29.4187 C.ar    1  UNL1        0.0008
     23 C          -4.8020   -9.4071   28.4703 C.ar    1  UNL1        0.0712
     24 C          -5.3283   -8.1762   28.8892 C.ar    1  UNL1        0.0051
     25 C          -5.6151   -7.9506   30.2357 C.ar    1  UNL1        0.0143
     26 C          -5.4158   -8.9619   31.1908 C.ar    1  UNL1        0.0465
     27 C          -4.5467   -9.6720   27.0077 C.3     1  UNL1        0.4186
     28 F          -3.6002   -8.7924   26.5114 F       1  UNL1       -0.1659
     29 F          -5.7079   -9.5182   26.2700 F       1  UNL1       -0.1659
     30 F          -4.0840  -10.9655   26.8546 F       1  UNL1       -0.1659
     31 N         -11.9823  -13.4750   31.1374 N.pl3   1  UNL1       -0.2816
     32 H         -12.0519  -13.8052   30.1487 H       1  UNL1        0.1551
     33 C         -12.5593  -14.2795   32.1779 C.ar    1  UNL1        0.0889
     34 C         -12.6028  -15.6823   32.0587 C.ar    1  UNL1        0.1543
     35 F         -12.0766  -16.3015   30.9720 F       1  UNL1       -0.2028
     36 C         -13.1510  -16.4590   33.0839 C.ar    1  UNL1        0.0310
     37 C         -13.6484  -15.8493   34.2370 C.ar    1  UNL1        0.0033
     38 C         -13.5924  -14.4607   34.3733 C.ar    1  UNL1        0.0128
     39 C         -13.0448  -13.6732   33.3536 C.ar    1  UNL1        0.0733
     40 CL        -13.0123  -11.9265   33.5575 Cl      1  UNL1       -0.0809
@<TRIPOS>BOND
     1    20    21    1
     2    21    22   ar
     3    22    23   ar
     4    23    27    1
     5    27    28    1
     6    27    29    1
     7    27    30    1
     8    23    24   ar
     9    24    25   ar
    10    25    26   ar
    11    26    16    1
    12    16    17   am
    13    17    18    2
    14    17     1    1
    15     1     2   ar
    16     2     3   ar
    17     3     4   ar
    18     4     5   ar
    19     5    31    1
    20    31    33    1
    21    33    34   ar
    22    34    35    1
    23    34    36   ar
    24    36    37   ar
    25    37    38   ar
    26    38    39   ar
    27    39    40    1
    28     5     6   ar
    29     6     7   ar
    30     7     8   ar
    31     8     9   ar
    32     9    10    1
    33    10    11    1
    34    11    12    1
    35    11    13    1
    36    11    14    1
    37    26    21   ar
    38     9     1   ar
    39     7     3   ar
    40    14     8    1
    41    39    33   ar
    42    16    19    1
    43    31    32    1
    44     6    15    1
@<TRIPOS>MOLECULE
*****
 40 44 0 0 0
SMALL
GASTEIGER

@<TRIPOS>ATOM
      1 C          -9.6481   -8.2085   30.5799 C.ar    1  UNL1        0.0888
      2 C         -10.8990   -8.4787   31.1979 C.ar    1  UNL1        0.0282
      3 C         -11.0673   -9.7124   31.8433 C.ar    1  UNL1        0.0997
      4 N         -12.1598  -10.1681   32.4818 N.ar    1  UNL1       -0.2137
      5 C         -11.7630  -11.4002   32.9061 C.ar    1  UNL1        0.1984
      6 N         -10.4870  -11.7165   32.5736 N.ar    1  UNL1       -0.3255
      7 C         -10.0676  -10.6408   31.8988 C.ar    1  UNL1        0.0755
      8 C          -8.8336  -10.3902   31.3160 C.ar    1  UNL1        0.0325
      9 C          -8.6309   -9.1918   30.6792 C.ar    1  UNL1        0.1401
     10 O          -7.3410   -9.1104   30.1975 O.3     1  UNL1       -0.4824
     11 C          -6.6155  -10.3129   30.4719 C.3     1  UNL1        0.1375
     12 C          -5.3720   -9.9714   31.3023 C.3     1  UNL1        0.0439
     13 C          -6.2099  -10.9675   29.1446 C.3     1  UNL1        0.0439
     14 C          -7.6059  -11.2233   31.2729 C.3     1  UNL1        0.0709
     15 H          -9.9575  -12.5891   32.7945 H       1  UNL1        0.1686
     16 N          -8.5775   -5.8994   30.4044 N.am    1  UNL1       -0.2806
     17 C          -9.4263   -6.9282   29.8706 C.2     1  UNL1        0.2525
     18 O         -10.0153   -6.7234   28.7754 O.2     1  UNL1       -0.2697
     19 H          -8.7928   -4.9130   30.1357 H       1  UNL1        0.1552
     20 C          -5.9530   -5.5531   29.1790 C.3     1  UNL1        0.0323
     21 C          -6.1109   -6.0103   30.6039 C.ar    1  UNL1       -0.0084
     22 C          -4.9669   -6.2734   31.3764 C.ar    1  UNL1        0.0008
     23 C          -5.0793   -6.6831   32.7149 C.ar    1  UNL1        0.0712
     24 C          -6.3548   -6.8020   33.2863 C.ar    1  UNL1        0.0051
     25 C          -7.4974   -6.5584   32.5239 C.ar    1  UNL1        0.0143
     26 C          -7.3919   -6.1557   31.1818 C.ar    1  UNL1        0.0465
     27 C          -3.8430   -6.8892   33.5536 C.3     1  UNL1        0.4186
     28 F          -3.9652   -6.2388   34.7693 F       1  UNL1       -0.1659
     29 F          -2.7229   -6.3931   32.9091 F       1  UNL1       -0.1659
     30 F          -3.6694   -8.2415   33.7815 F       1  UNL1       -0.1659
     31 N         -12.5966  -12.2727   33.6789 N.pl3   1  UNL1       -0.2816
     32 H         -13.1791  -11.8495   34.4359 H       1  UNL1        0.1551
     33 C         -12.7736  -13.6629   33.3648 C.ar    1  UNL1        0.0889
     34 C         -13.6880  -14.0624   32.3705 C.ar    1  UNL1        0.1543
     35 F         -14.3983  -13.1408   31.6726 F       1  UNL1       -0.2028
     36 C         -13.8418  -15.4167   32.0593 C.ar    1  UNL1        0.0310
     37 C         -13.0817  -16.3805   32.7243 C.ar    1  UNL1        0.0033
     38 C         -12.1586  -15.9933   33.6979 C.ar    1  UNL1        0.0128
     39 C         -11.9956  -14.6400   34.0171 C.ar    1  UNL1        0.0733
     40 CL        -10.8365  -14.1978   35.2638 Cl      1  UNL1       -0.0809
@<TRIPOS>BOND
     1    20    21    1
     2    21    22   ar
     3    22    23   ar
     4    23    27    1
     5    27    28    1
     6    27    29    1
     7    27    30    1
     8    23    24   ar
     9    24    25   ar
    10    25    26   ar
    11    26    16    1
    12    16    17   am
    13    17    18    2
    14    17     1    1
    15     1     2   ar
    16     2     3   ar
    17     3     4   ar
    18     4     5   ar
    19     5    31    1
    20    31    33    1
    21    33    34   ar
    22    34    35    1
    23    34    36   ar
    24    36    37   ar
    25    37    38   ar
    26    38    39   ar
    27    39    40    1
    28     5     6   ar
    29     6     7   ar
    30     7     8   ar
    31     8     9   ar
    32     9    10    1
    33    10    11    1
    34    11    12    1
    35    11    13    1
    36    11    14    1
    37    26    21   ar
    38     9     1   ar
    39     7     3   ar
    40    14     8    1
    41    39    33   ar
    42    16    19    1
    43    31    32    1
    44     6    15    1
@<TRIPOS>MOLECULE
*****
 40 44 0 0 0
SMALL
GASTEIGER

@<TRIPOS>ATOM
      1 C          -8.1615   -8.6395   33.0098 C.ar    1  UNL1        0.0888
      2 C          -8.0321   -9.7914   33.8320 C.ar    1  UNL1        0.0282
      3 C          -9.0076  -10.7935   33.7280 C.ar    1  UNL1        0.0997
      4 N          -9.0780  -11.9513   34.4087 N.ar    1  UNL1       -0.2137
      5 C         -10.2115  -12.5196   33.9111 C.ar    1  UNL1        0.1984
      6 N         -10.8293  -11.7802   32.9569 N.ar    1  UNL1       -0.3255
      7 C         -10.0570  -10.6928   32.8602 C.ar    1  UNL1        0.0755
      8 C         -10.1929   -9.5839   32.0371 C.ar    1  UNL1        0.0325
      9 C          -9.2549   -8.5850   32.1081 C.ar    1  UNL1        0.1401
     10 O          -9.5357   -7.5899   31.1954 O.3     1  UNL1       -0.4824
     11 C         -10.7393   -7.8789   30.4775 C.3     1  UNL1        0.1375
     12 C         -10.4292   -7.9305   28.9762 C.3     1  UNL1        0.0439
     13 C         -11.7742   -6.7850   30.7731 C.3     1  UNL1        0.0439
     14 C         -11.2184   -9.2707   31.0108 C.3     1  UNL1        0.0709
     15 H         -11.6977  -12.0069   32.4230 H       1  UNL1        0.1686
     16 N          -5.8640   -7.6536   32.5010 N.am    1  UNL1       -0.2806
     17 C          -7.1676   -7.5455   33.0948 C.2     1  UNL1        0.2525
     18 O          -7.4640   -6.4949   33.7245 O.2     1  UNL1       -0.2697
     19 H          -5.0904   -7.1055   32.9398 H       1  UNL1        0.1552
     20 C          -6.4868   -6.4138   29.9349 C.3     1  UNL1        0.0323
     21 C          -5.8996   -7.7962   30.0282 C.ar    1  UNL1       -0.0084
     22 C          -5.6336   -8.5153   28.8505 C.ar    1  UNL1        0.0008
     23 C          -5.0683   -9.7997   28.9022 C.ar    1  UNL1        0.0712
     24 C          -4.7439  -10.3518   30.1502 C.ar    1  UNL1        0.0051
     25 C          -5.0182   -9.6530   31.3261 C.ar    1  UNL1        0.0143
     26 C          -5.5909   -8.3706   31.2814 C.ar    1  UNL1        0.0465
     27 C          -4.7189  -10.5287   27.6291 C.3     1  UNL1        0.4186
     28 F          -5.4443  -11.7030   27.5255 F       1  UNL1       -0.1659
     29 F          -3.3725  -10.8489   27.5991 F       1  UNL1       -0.1659
     30 F          -5.0137   -9.7201   26.5474 F       1  UNL1       -0.1659
     31 N         -10.6905  -13.8074   34.3180 N.pl3   1  UNL1       -0.2816
     32 H         -10.2472  -14.2531   35.1524 H       1  UNL1        0.1551
     33 C         -11.8371  -14.4365   33.7246 C.ar    1  UNL1        0.0889
     34 C         -12.8459  -14.9966   34.5326 C.ar    1  UNL1        0.1543
     35 F         -12.7667  -14.9287   35.8854 F       1  UNL1       -0.2028
     36 C         -13.9670  -15.5921   33.9468 C.ar    1  UNL1        0.0310
     37 C         -14.0988  -15.6251   32.5574 C.ar    1  UNL1        0.0033
     38 C         -13.1138  -15.0554   31.7480 C.ar    1  UNL1        0.0128
     39 C         -11.9874  -14.4557   32.3237 C.ar    1  UNL1        0.0733
     40 CL        -10.7611  -13.7682   31.2668 Cl      1  UNL1       -0.0809
@<TRIPOS>BOND
     1    20    21    1
     2    21    22   ar
     3    22    23   ar
     4    23    27    1
     5    27    28    1
     6    27    29    1
     7    27    30    1
     8    23    24   ar
     9    24    25   ar
    10    25    26   ar
    11    26    16    1
    12    16    17   am
    13    17    18    2
    14    17     1    1
    15     1     2   ar
    16     2     3   ar
    17     3     4   ar
    18     4     5   ar
    19     5    31    1
    20    31    33    1
    21    33    34   ar
    22    34    35    1
    23    34    36   ar
    24    36    37   ar
    25    37    38   ar
    26    38    39   ar
    27    39    40    1
    28     5     6   ar
    29     6     7   ar
    30     7     8   ar
    31     8     9   ar
    32     9    10    1
    33    10    11    1
    34    11    12    1
    35    11    13    1
    36    11    14    1
    37    26    21   ar
    38     9     1   ar
    39     7     3   ar
    40    14     8    1
    41    39    33   ar
    42    16    19    1
    43    31    32    1
    44     6    15    1
