@<TRIPOS>MOLECULE
*****
 41 45 0 0 0
SMALL
GASTEIGER

@<TRIPOS>ATOM
      1 C          -5.3391  -19.9510   20.6234 C.3     1  UNL1        0.1333
      2 N          -4.7967  -19.0191   21.6131 N.ar    1  UNL1       -0.2950
      3 C          -3.5094  -18.8928   22.0444 C.ar    1  UNL1        0.2019
      4 N          -3.3546  -17.9827   23.0391 N.ar    1  UNL1       -0.2134
      5 C          -4.5992  -17.5011   23.2025 C.ar    1  UNL1        0.1033
      6 C          -5.0088  -16.5220   24.1045 C.ar    1  UNL1        0.0284
      7 C          -6.3715  -16.1477   24.1173 C.ar    1  UNL1        0.0922
      8 C          -7.2663  -16.7409   23.1849 C.ar    1  UNL1        0.1793
      9 C          -6.8207  -17.7514   22.3064 C.ar    1  UNL1        0.1898
     10 C          -5.4692  -18.1075   22.3420 C.ar    1  UNL1        0.1173
     11 O          -7.7307  -18.3402   21.4230 O.3     1  UNL1       -0.4660
     12 C          -9.1376  -18.1488   21.5801 C.3     1  UNL1        0.2600
     13 C          -9.4255  -16.6962   21.9873 C.3     1  UNL1        0.2534
     14 S         -11.1756  -16.4827   22.4371 S.3     1  UNL1       -0.1227
     15 O          -8.5986  -16.3198   23.0905 O.3     1  UNL1       -0.4614
     16 H         -11.0636  -17.2751   23.5962 H       1  UNL1        0.1057
     17 C          -6.8284  -15.1129   25.0689 C.2     1  UNL1        0.2526
     18 O          -7.1627  -13.9808   24.6254 O.2     1  UNL1       -0.2697
     19 N          -6.8912  -15.3895   26.4799 N.am    1  UNL1       -0.2803
     20 H          -6.6229  -16.3410   26.8167 H       1  UNL1        0.1552
     21 C          -7.4010  -14.4679   27.4573 C.ar    1  UNL1        0.0506
     22 C          -8.7068  -14.6339   27.9364 C.ar    1  UNL1        0.0170
     23 C          -9.2178  -13.7716   28.9073 C.ar    1  UNL1        0.0309
     24 C          -8.4273  -12.7399   29.4192 C.ar    1  UNL1        0.1441
     25 F          -8.9436  -11.9252   30.3743 F       1  UNL1       -0.2042
     26 C          -7.1084  -12.5613   28.9609 C.ar    1  UNL1        0.1000
     27 C          -6.5961  -13.4460   27.9921 C.ar    1  UNL1        0.0208
     28 C          -6.2492  -11.4695   29.5532 C.3     1  UNL1        0.4207
     29 F          -5.2399  -11.1353   28.6679 F       1  UNL1       -0.1658
     30 F          -7.0288  -10.3528   29.7919 F       1  UNL1       -0.1658
     31 F          -5.6662  -11.8671   30.7443 F       1  UNL1       -0.1658
     32 N          -2.3944  -19.6248   21.5149 N.pl3   1  UNL1       -0.2814
     33 H          -2.4735  -20.6658   21.4771 H       1  UNL1        0.1551
     34 C          -1.1639  -19.0254   21.0784 C.ar    1  UNL1        0.0889
     35 C           0.0477  -19.6724   21.3743 C.ar    1  UNL1        0.1543
     36 F           0.0462  -20.8507   22.0472 F       1  UNL1       -0.2028
     37 C           1.2630  -19.1244   20.9554 C.ar    1  UNL1        0.0310
     38 C           1.2826  -17.9188   20.2529 C.ar    1  UNL1        0.0033
     39 C           0.0880  -17.2503   19.9782 C.ar    1  UNL1        0.0128
     40 C          -1.1365  -17.7885   20.3929 C.ar    1  UNL1        0.0733
     41 CL         -2.5945  -16.8470   20.0996 Cl      1  UNL1       -0.0809
@<TRIPOS>BOND
     1     1     2    1
     2     2     3   ar
     3     3    32    1
     4    32    34    1
     5    34    35   ar
     6    35    36    1
     7    35    37   ar
     8    37    38   ar
     9    38    39   ar
    10    39    40   ar
    11    40    41    1
    12     3     4   ar
    13     4     5   ar
    14     5     6   ar
    15     6     7   ar
    16     7    17    1
    17    17    18    2
    18    17    19   am
    19    19    21    1
    20    21    22   ar
    21    22    23   ar
    22    23    24   ar
    23    24    25    1
    24    24    26   ar
    25    26    28    1
    26    28    29    1
    27    28    30    1
    28    28    31    1
    29    26    27   ar
    30     7     8   ar
    31     8     9   ar
    32     9    10   ar
    33     9    11    1
    34    11    12    1
    35    12    13    1
    36    13    14    1
    37    13    15    1
    38    10     2   ar
    39    40    34   ar
    40    10     5   ar
    41    27    21   ar
    42    15     8    1
    43    32    33    1
    44    19    20    1
    45    14    16    1
@<TRIPOS>MOLECULE
*****
 41 45 0 0 0
SMALL
GASTEIGER

@<TRIPOS>ATOM
      1 C          -9.1863  -10.0809   32.9650 C.3     1  UNL1        0.1333
      2 N          -9.3565  -11.1583   31.9891 N.ar    1  UNL1       -0.2950
      3 C         -10.3491  -12.0904   31.9179 C.ar    1  UNL1        0.2019
      4 N         -10.1655  -13.0080   30.9350 N.ar    1  UNL1       -0.2134
      5 C          -9.0249  -12.6000   30.3518 C.ar    1  UNL1        0.1033
      6 C          -8.3786  -13.1897   29.2681 C.ar    1  UNL1        0.0284
      7 C          -7.1837  -12.6008   28.7965 C.ar    1  UNL1        0.0922
      8 C          -6.7068  -11.4075   29.4053 C.ar    1  UNL1        0.1793
      9 C          -7.3724  -10.8560   30.5207 C.ar    1  UNL1        0.1898
     10 C          -8.5390  -11.4830   30.9690 C.ar    1  UNL1        0.1173
     11 O          -6.8618   -9.7003   31.1197 O.3     1  UNL1       -0.4660
     12 C          -5.5474   -9.2323   30.8134 C.3     1  UNL1        0.2600
     13 C          -5.2678   -9.4029   29.3129 C.3     1  UNL1        0.2534
     14 S          -3.5233   -9.0516   28.9335 S.3     1  UNL1       -0.1227
     15 O          -5.5891  -10.7325   28.8991 O.3     1  UNL1       -0.4614
     16 H          -3.0551  -10.1866   29.6237 H       1  UNL1        0.1057
     17 C          -6.4796  -13.2123   27.6494 C.2     1  UNL1        0.2526
     18 O          -5.4059  -12.6904   27.2438 O.2     1  UNL1       -0.2697
     19 N          -7.0091  -14.3842   27.0030 N.am    1  UNL1       -0.2803
     20 H          -7.8922  -14.8036   27.3705 H       1  UNL1        0.1552
     21 C          -6.3442  -15.0843   25.9389 C.ar    1  UNL1        0.0506
     22 C          -5.2951  -15.9593   26.2484 C.ar    1  UNL1        0.0170
     23 C          -4.6508  -16.6746   25.2381 C.ar    1  UNL1        0.0309
     24 C          -5.0537  -16.5329   23.9080 C.ar    1  UNL1        0.1441
     25 F          -4.4205  -17.2523   22.9468 F       1  UNL1       -0.2042
     26 C          -6.1131  -15.6679   23.5751 C.ar    1  UNL1        0.1000
     27 C          -6.7675  -14.9619   24.6033 C.ar    1  UNL1        0.0208
     28 C          -6.5681  -15.5561   22.1393 C.3     1  UNL1        0.4207
     29 F          -7.6995  -14.7631   22.0667 F       1  UNL1       -0.1658
     30 F          -5.5631  -14.9793   21.3848 F       1  UNL1       -0.1658
     31 F          -6.8723  -16.7948   21.6012 F       1  UNL1       -0.1658
     32 N         -11.5007  -12.1253   32.7735 N.pl3   1  UNL1       -0.2814
     33 H         -11.8229  -11.2218   33.1875 H       1  UNL1        0.1551
     34 C         -12.2081  -13.3227   33.1336 C.ar    1  UNL1        0.0889
     35 C         -13.3651  -13.6685   32.4153 C.ar    1  UNL1        0.1543
     36 F         -13.7916  -12.8881   31.3905 F       1  UNL1       -0.2028
     37 C         -14.0720  -14.8320   32.7303 C.ar    1  UNL1        0.0310
     38 C         -13.6416  -15.6520   33.7742 C.ar    1  UNL1        0.0033
     39 C         -12.5105  -15.3045   34.5153 C.ar    1  UNL1        0.0128
     40 C         -11.7936  -14.1409   34.2103 C.ar    1  UNL1        0.0733
     41 CL        -10.4361  -13.7117   35.2452 Cl      1  UNL1       -0.0809
@<TRIPOS>BOND
     1     1     2    1
     2     2     3   ar
     3     3    32    1
     4    32    34    1
     5    34    35   ar
     6    35    36    1
     7    35    37   ar
     8    37    38   ar
     9    38    39   ar
    10    39    40   ar
    11    40    41    1
    12     3     4   ar
    13     4     5   ar
    14     5     6   ar
    15     6     7   ar
    16     7    17    1
    17    17    18    2
    18    17    19   am
    19    19    21    1
    20    21    22   ar
    21    22    23   ar
    22    23    24   ar
    23    24    25    1
    24    24    26   ar
    25    26    28    1
    26    28    29    1
    27    28    30    1
    28    28    31    1
    29    26    27   ar
    30     7     8   ar
    31     8     9   ar
    32     9    10   ar
    33     9    11    1
    34    11    12    1
    35    12    13    1
    36    13    14    1
    37    13    15    1
    38    10     2   ar
    39    40    34   ar
    40    10     5   ar
    41    27    21   ar
    42    15     8    1
    43    32    33    1
    44    19    20    1
    45    14    16    1
@<TRIPOS>MOLECULE
*****
 41 45 0 0 0
SMALL
GASTEIGER

@<TRIPOS>ATOM
      1 C          -8.8723   -9.9507   33.1830 C.3     1  UNL1        0.1333
      2 N          -9.0910  -11.0332   32.2225 N.ar    1  UNL1       -0.2950
      3 C         -10.0801  -11.9717   32.2116 C.ar    1  UNL1        0.2019
      4 N          -9.9469  -12.8923   31.2234 N.ar    1  UNL1       -0.2134
      5 C          -8.8440  -12.4798   30.5745 C.ar    1  UNL1        0.1033
      6 C          -8.2568  -13.0700   29.4580 C.ar    1  UNL1        0.0284
      7 C          -7.0944  -12.4758   28.9168 C.ar    1  UNL1        0.0922
      8 C          -6.5912  -11.2771   29.4929 C.ar    1  UNL1        0.1793
      9 C          -7.1957  -10.7250   30.6423 C.ar    1  UNL1        0.1898
     10 C          -8.3308  -11.3572   31.1587 C.ar    1  UNL1        0.1173
     11 O          -6.6592   -9.5636   31.2067 O.3     1  UNL1       -0.4660
     12 C          -5.3672   -9.0889   30.8243 C.3     1  UNL1        0.2600
     13 C          -5.1725   -9.2641   29.3110 C.3     1  UNL1        0.2534
     14 S          -3.4547   -8.9037   28.8314 S.3     1  UNL1       -0.1227
     15 O          -5.5085  -10.5973   28.9212 O.3     1  UNL1       -0.4614
     16 H          -2.9407  -10.0329   29.4982 H       1  UNL1        0.1057
     17 C          -6.4529  -13.0878   27.7338 C.2     1  UNL1        0.2526
     18 O          -5.4330  -12.5359   27.2388 O.2     1  UNL1       -0.2697
     19 N          -6.9821  -14.2938   27.1534 N.am    1  UNL1       -0.2803
     20 H          -7.8188  -14.7371   27.5941 H       1  UNL1        0.1552
     21 C          -6.3701  -14.9938   26.0579 C.ar    1  UNL1        0.0506
     22 C          -5.2925  -15.8518   26.3127 C.ar    1  UNL1        0.0170
     23 C          -4.6978  -16.5667   25.2723 C.ar    1  UNL1        0.0309
     24 C          -5.1791  -16.4418   23.9668 C.ar    1  UNL1        0.1441
     25 F          -4.5925  -17.1607   22.9760 F       1  UNL1       -0.2042
     26 C          -6.2681  -15.5943   23.6893 C.ar    1  UNL1        0.1000
     27 C          -6.8718  -14.8886   24.7482 C.ar    1  UNL1        0.0208
     28 C          -6.8070  -15.5009   22.2815 C.3     1  UNL1        0.4207
     29 F          -7.9324  -14.6964   22.2629 F       1  UNL1       -0.1658
     30 F          -5.8430  -14.9482   21.4586 F       1  UNL1       -0.1658
     31 F          -7.1558  -16.7448   21.7838 F       1  UNL1       -0.1658
     32 N         -11.1807  -12.0100   33.1316 N.pl3   1  UNL1       -0.2814
     33 H         -11.3752  -11.1481   33.6889 H       1  UNL1        0.1551
     34 C         -12.0000  -13.1660   33.3689 C.ar    1  UNL1        0.0889
     35 C         -11.6087  -14.0826   34.3592 C.ar    1  UNL1        0.1543
     36 F         -10.4834  -13.8645   35.0854 F       1  UNL1       -0.2028
     37 C         -12.3873  -15.2121   34.6252 C.ar    1  UNL1        0.0310
     38 C         -13.5534  -15.4466   33.8954 C.ar    1  UNL1        0.0033
     39 C         -13.9380  -14.5595   32.8882 C.ar    1  UNL1        0.0128
     40 C         -13.1663  -13.4242   32.6114 C.ar    1  UNL1        0.0733
     41 CL        -13.6554  -12.4008   31.2654 Cl      1  UNL1       -0.0809
@<TRIPOS>BOND
     1     1     2    1
     2     2     3   ar
     3     3    32    1
     4    32    34    1
     5    34    35   ar
     6    35    36    1
     7    35    37   ar
     8    37    38   ar
     9    38    39   ar
    10    39    40   ar
    11    40    41    1
    12     3     4   ar
    13     4     5   ar
    14     5     6   ar
    15     6     7   ar
    16     7    17    1
    17    17    18    2
    18    17    19   am
    19    19    21    1
    20    21    22   ar
    21    22    23   ar
    22    23    24   ar
    23    24    25    1
    24    24    26   ar
    25    26    28    1
    26    28    29    1
    27    28    30    1
    28    28    31    1
    29    26    27   ar
    30     7     8   ar
    31     8     9   ar
    32     9    10   ar
    33     9    11    1
    34    11    12    1
    35    12    13    1
    36    13    14    1
    37    13    15    1
    38    10     2   ar
    39    40    34   ar
    40    10     5   ar
    41    27    21   ar
    42    15     8    1
    43    32    33    1
    44    19    20    1
    45    14    16    1
@<TRIPOS>MOLECULE
*****
 41 45 0 0 0
SMALL
GASTEIGER

@<TRIPOS>ATOM
      1 C          -9.2344  -14.8375   27.5522 C.3     1  UNL1        0.1333
      2 N          -7.8206  -14.7129   27.1948 N.ar    1  UNL1       -0.2950
      3 C          -6.8306  -14.0551   27.8629 C.ar    1  UNL1        0.2019
      4 N          -5.6384  -14.0611   27.2146 N.ar    1  UNL1       -0.2134
      5 C          -5.8985  -14.7871   26.1133 C.ar    1  UNL1        0.1033
      6 C          -5.0081  -15.1136   25.0933 C.ar    1  UNL1        0.0284
      7 C          -5.4787  -15.8968   24.0153 C.ar    1  UNL1        0.0922
      8 C          -6.8214  -16.3648   24.0274 C.ar    1  UNL1        0.1793
      9 C          -7.7028  -15.9882   25.0631 C.ar    1  UNL1        0.1898
     10 C          -7.2021  -15.1939   26.0991 C.ar    1  UNL1        0.1173
     11 O          -9.0269  -16.4364   25.0316 O.3     1  UNL1       -0.4660
     12 C          -9.5775  -17.0216   23.8504 C.3     1  UNL1        0.2600
     13 C          -8.5346  -17.9291   23.1813 C.3     1  UNL1        0.2534
     14 S          -9.1134  -18.4903   21.5501 S.3     1  UNL1       -0.1227
     15 O          -7.2952  -17.2325   23.0356 O.3     1  UNL1       -0.4614
     16 H          -9.0379  -17.2026   20.9845 H       1  UNL1        0.1057
     17 C          -4.5512  -16.2522   22.9203 C.2     1  UNL1        0.2526
     18 O          -4.8646  -15.9571   21.7352 O.2     1  UNL1       -0.2697
     19 N          -3.3098  -16.9250   23.1991 N.am    1  UNL1       -0.2803
     20 H          -3.0696  -17.1430   24.1919 H       1  UNL1        0.1552
     21 C          -2.3199  -17.2296   22.2031 C.ar    1  UNL1        0.0506
     22 C          -2.0500  -16.2907   21.1993 C.ar    1  UNL1        0.0170
     23 C          -1.0732  -16.5474   20.2364 C.ar    1  UNL1        0.0309
     24 C          -0.3466  -17.7401   20.2709 C.ar    1  UNL1        0.1441
     25 F           0.6089  -17.9577   19.3316 F       1  UNL1       -0.2042
     26 C          -0.5929  -18.6930   21.2772 C.ar    1  UNL1        0.1000
     27 C          -1.5699  -18.4183   22.2538 C.ar    1  UNL1        0.0208
     28 C           0.2290  -19.9591   21.3295 C.3     1  UNL1        0.4207
     29 F           1.1692  -19.8659   22.3402 F       1  UNL1       -0.1658
     30 F          -0.6027  -21.0339   21.5840 F       1  UNL1       -0.1658
     31 F           0.8956  -20.1856   20.1376 F       1  UNL1       -0.1658
     32 N          -6.9902  -13.4151   29.1374 N.pl3   1  UNL1       -0.2814
     33 H          -6.9295  -14.0151   29.9905 H       1  UNL1        0.1551
     34 C          -7.2728  -12.0177   29.3141 C.ar    1  UNL1        0.0889
     35 C          -6.2416  -11.0860   29.1072 C.ar    1  UNL1        0.1543
     36 F          -5.0071  -11.5058   28.7319 F       1  UNL1       -0.2028
     37 C          -6.4833   -9.7180   29.2587 C.ar    1  UNL1        0.0310
     38 C          -7.7499   -9.2679   29.6337 C.ar    1  UNL1        0.0033
     39 C          -8.7756  -10.1848   29.8714 C.ar    1  UNL1        0.0128
     40 C          -8.5463  -11.5584   29.7237 C.ar    1  UNL1        0.0733
     41 CL         -9.8541  -12.6630   30.1330 Cl      1  UNL1       -0.0809
@<TRIPOS>BOND
     1     1     2    1
     2     2     3   ar
     3     3    32    1
     4    32    34    1
     5    34    35   ar
     6    35    36    1
     7    35    37   ar
     8    37    38   ar
     9    38    39   ar
    10    39    40   ar
    11    40    41    1
    12     3     4   ar
    13     4     5   ar
    14     5     6   ar
    15     6     7   ar
    16     7    17    1
    17    17    18    2
    18    17    19   am
    19    19    21    1
    20    21    22   ar
    21    22    23   ar
    22    23    24   ar
    23    24    25    1
    24    24    26   ar
    25    26    28    1
    26    28    29    1
    27    28    30    1
    28    28    31    1
    29    26    27   ar
    30     7     8   ar
    31     8     9   ar
    32     9    10   ar
    33     9    11    1
    34    11    12    1
    35    12    13    1
    36    13    14    1
    37    13    15    1
    38    10     2   ar
    39    40    34   ar
    40    10     5   ar
    41    27    21   ar
    42    15     8    1
    43    32    33    1
    44    19    20    1
    45    14    16    1
@<TRIPOS>MOLECULE
*****
 41 45 0 0 0
SMALL
GASTEIGER

@<TRIPOS>ATOM
      1 C          -6.0596  -12.0093   29.0340 C.3     1  UNL1        0.1333
      2 N          -7.3169  -12.7380   28.8592 N.ar    1  UNL1       -0.2950
      3 C          -8.4988  -12.5617   29.5159 C.ar    1  UNL1        0.2019
      4 N          -9.4522  -13.4650   29.1741 N.ar    1  UNL1       -0.2134
      5 C          -8.8391  -14.2095   28.2373 C.ar    1  UNL1        0.1033
      6 C          -9.3761  -15.2877   27.5380 C.ar    1  UNL1        0.0284
      7 C          -8.5646  -15.9404   26.5827 C.ar    1  UNL1        0.0922
      8 C          -7.2532  -15.4517   26.3311 C.ar    1  UNL1        0.1793
      9 C          -6.7329  -14.3754   27.0810 C.ar    1  UNL1        0.1898
     10 C          -7.5617  -13.7725   28.0320 C.ar    1  UNL1        0.1173
     11 O          -5.4281  -13.9374   26.8346 O.3     1  UNL1       -0.4660
     12 C          -4.5241  -14.7210   26.0540 C.3     1  UNL1        0.2600
     13 C          -5.2679  -15.3493   24.8663 C.3     1  UNL1        0.2534
     14 S          -4.2097  -16.5483   23.9983 S.3     1  UNL1       -0.1227
     15 O          -6.4577  -15.9998   25.3173 O.3     1  UNL1       -0.4614
     16 H          -4.2069  -17.4558   25.0754 H       1  UNL1        0.1057
     17 C          -9.1135  -17.0892   25.8314 C.2     1  UNL1        0.2526
     18 O          -9.6067  -18.0573   26.4712 O.2     1  UNL1       -0.2697
     19 N          -9.0860  -17.1060   24.3925 N.am    1  UNL1       -0.2803
     20 H          -8.6853  -16.2833   23.8891 H       1  UNL1        0.1552
     21 C          -9.6717  -18.1440   23.5899 C.ar    1  UNL1        0.0506
     22 C         -10.4319  -19.1419   24.2130 C.ar    1  UNL1        0.0170
     23 C         -11.0366  -20.1456   23.4553 C.ar    1  UNL1        0.0309
     24 C         -10.8986  -20.1584   22.0652 C.ar    1  UNL1        0.1441
     25 F         -11.5104  -21.1371   21.3507 F       1  UNL1       -0.2042
     26 C         -10.1489  -19.1591   21.4166 C.ar    1  UNL1        0.1000
     27 C          -9.5551  -18.1415   22.1883 C.ar    1  UNL1        0.0208
     28 C         -10.0431  -19.1590   19.9100 C.3     1  UNL1        0.4207
     29 F         -10.9908  -18.3056   19.3737 F       1  UNL1       -0.1658
     30 F          -8.7835  -18.7248   19.5401 F       1  UNL1       -0.1658
     31 F         -10.2501  -20.4221   19.3827 F       1  UNL1       -0.1658
     32 N          -8.7545  -11.5249   30.4746 N.pl3   1  UNL1       -0.2814
     33 H          -8.7599  -10.5387   30.1302 H       1  UNL1        0.1551
     34 C          -8.9567  -11.7503   31.8789 C.ar    1  UNL1        0.0889
     35 C         -10.1271  -12.4043   32.2991 C.ar    1  UNL1        0.1543
     36 F         -11.0384  -12.8267   31.3868 F       1  UNL1       -0.2028
     37 C         -10.3515  -12.6507   33.6562 C.ar    1  UNL1        0.0310
     38 C          -9.4197  -12.2328   34.6073 C.ar    1  UNL1        0.0033
     39 C          -8.2668  -11.5554   34.2059 C.ar    1  UNL1        0.0128
     40 C          -8.0303  -11.3017   32.8491 C.ar    1  UNL1        0.0733
     41 CL         -6.6071  -10.3588   32.4207 Cl      1  UNL1       -0.0809
@<TRIPOS>BOND
     1     1     2    1
     2     2     3   ar
     3     3    32    1
     4    32    34    1
     5    34    35   ar
     6    35    36    1
     7    35    37   ar
     8    37    38   ar
     9    38    39   ar
    10    39    40   ar
    11    40    41    1
    12     3     4   ar
    13     4     5   ar
    14     5     6   ar
    15     6     7   ar
    16     7    17    1
    17    17    18    2
    18    17    19   am
    19    19    21    1
    20    21    22   ar
    21    22    23   ar
    22    23    24   ar
    23    24    25    1
    24    24    26   ar
    25    26    28    1
    26    28    29    1
    27    28    30    1
    28    28    31    1
    29    26    27   ar
    30     7     8   ar
    31     8     9   ar
    32     9    10   ar
    33     9    11    1
    34    11    12    1
    35    12    13    1
    36    13    14    1
    37    13    15    1
    38    10     2   ar
    39    40    34   ar
    40    10     5   ar
    41    27    21   ar
    42    15     8    1
    43    32    33    1
    44    19    20    1
    45    14    16    1
@<TRIPOS>MOLECULE
*****
 41 45 0 0 0
SMALL
GASTEIGER

@<TRIPOS>ATOM
      1 C          -5.8852  -15.1800   26.7872 C.3     1  UNL1        0.1333
      2 N          -7.2236  -14.9895   27.3482 N.ar    1  UNL1       -0.2950
      3 C          -8.3252  -15.7798   27.2035 C.ar    1  UNL1        0.2019
      4 N          -9.4404  -15.2725   27.7871 N.ar    1  UNL1       -0.2134
      5 C          -8.9954  -14.1342   28.3474 C.ar    1  UNL1        0.1033
      6 C          -9.7374  -13.2167   29.0873 C.ar    1  UNL1        0.0284
      7 C          -9.0784  -12.0763   29.5993 C.ar    1  UNL1        0.0922
      8 C          -7.6805  -11.9249   29.3874 C.ar    1  UNL1        0.1793
      9 C          -6.9680  -12.8602   28.6070 C.ar    1  UNL1        0.1898
     10 C          -7.6632  -13.9624   28.1007 C.ar    1  UNL1        0.1173
     11 O          -5.6004  -12.6680   28.3879 O.3     1  UNL1       -0.4660
     12 C          -4.9750  -11.4200   28.6913 C.3     1  UNL1        0.2600
     13 C          -5.5409  -10.8567   30.0032 C.3     1  UNL1        0.2534
     14 S          -4.9518   -9.1589   30.2884 S.3     1  UNL1       -0.1227
     15 O          -6.9696  -10.8681   29.9696 O.3     1  UNL1       -0.4614
     16 H          -5.6815   -8.6317   29.2052 H       1  UNL1        0.1057
     17 C          -9.8477  -11.0879   30.3846 C.2     1  UNL1        0.2526
     18 O          -9.9181  -11.2242   31.6361 O.2     1  UNL1       -0.2697
     19 N         -10.5078   -9.9868   29.7339 N.am    1  UNL1       -0.2803
     20 H         -10.4193   -9.8906   28.6977 H       1  UNL1        0.1552
     21 C         -11.2035   -8.9412   30.4321 C.ar    1  UNL1        0.0506
     22 C         -12.2449   -9.2793   31.3058 C.ar    1  UNL1        0.0170
     23 C         -12.9185   -8.2870   32.0191 C.ar    1  UNL1        0.0309
     24 C         -12.5529   -6.9463   31.8769 C.ar    1  UNL1        0.1441
     25 F         -13.2140   -6.0026   32.5946 F       1  UNL1       -0.2042
     26 C         -11.5018   -6.5844   31.0134 C.ar    1  UNL1        0.1000
     27 C         -10.8176   -7.5944   30.3093 C.ar    1  UNL1        0.0208
     28 C         -11.0872   -5.1364   30.9010 C.3     1  UNL1        0.4207
     29 F         -11.6486   -4.4068   31.9338 F       1  UNL1       -0.1658
     30 F          -9.7097   -5.0476   30.9819 F       1  UNL1       -0.1658
     31 F         -11.4988   -4.5782   29.7029 F       1  UNL1       -0.1658
     32 N          -8.3426  -17.0403   26.5177 N.pl3   1  UNL1       -0.2814
     33 H          -7.7613  -17.8134   26.9124 H       1  UNL1        0.1551
     34 C          -9.0673  -17.2935   25.3034 C.ar    1  UNL1        0.0889
     35 C          -9.7853  -18.4949   25.1802 C.ar    1  UNL1        0.1543
     36 F          -9.8019  -19.3883   26.2013 F       1  UNL1       -0.2028
     37 C         -10.5111  -18.7693   24.0180 C.ar    1  UNL1        0.0310
     38 C         -10.5140  -17.8568   22.9622 C.ar    1  UNL1        0.0033
     39 C          -9.7806  -16.6728   23.0596 C.ar    1  UNL1        0.0128
     40 C          -9.0487  -16.3860   24.2185 C.ar    1  UNL1        0.0733
     41 CL         -8.0695  -14.9235   24.2365 Cl      1  UNL1       -0.0809
@<TRIPOS>BOND
     1     1     2    1
     2     2     3   ar
     3     3    32    1
     4    32    34    1
     5    34    35   ar
     6    35    36    1
     7    35    37   ar
     8    37    38   ar
     9    38    39   ar
    10    39    40   ar
    11    40    41    1
    12     3     4   ar
    13     4     5   ar
    14     5     6   ar
    15     6     7   ar
    16     7    17    1
    17    17    18    2
    18    17    19   am
    19    19    21    1
    20    21    22   ar
    21    22    23   ar
    22    23    24   ar
    23    24    25    1
    24    24    26   ar
    25    26    28    1
    26    28    29    1
    27    28    30    1
    28    28    31    1
    29    26    27   ar
    30     7     8   ar
    31     8     9   ar
    32     9    10   ar
    33     9    11    1
    34    11    12    1
    35    12    13    1
    36    13    14    1
    37    13    15    1
    38    10     2   ar
    39    40    34   ar
    40    10     5   ar
    41    27    21   ar
    42    15     8    1
    43    32    33    1
    44    19    20    1
    45    14    16    1
