@<TRIPOS>MOLECULE
*****
 41 45 0 0 0
SMALL
GASTEIGER

@<TRIPOS>ATOM
      1 C         -22.5429   -7.1837  -11.5855 C.ar    1  UNL1        0.0477
      2 C         -21.9987   -8.3392  -10.9925 C.ar    1  UNL1        0.0290
      3 C         -21.2847   -8.2741   -9.7831 C.ar    1  UNL1        0.0518
      4 C         -21.1630   -7.0366   -9.1387 C.ar    1  UNL1        0.0144
      5 C         -21.7131   -5.8844   -9.7009 C.ar    1  UNL1       -0.0018
      6 C         -22.3922   -5.9403  -10.9282 C.ar    1  UNL1       -0.0083
      7 C         -22.9628   -4.6752  -11.5105 C.3     1  UNL1        0.0323
      8 N         -20.6656   -9.4374   -9.1956 N.am    1  UNL1       -0.2803
      9 C         -19.7437  -10.2847   -9.8967 C.2     1  UNL1        0.2495
     10 O         -18.5350  -10.2907   -9.5388 O.2     1  UNL1       -0.2698
     11 H         -20.6222   -9.4852   -8.1523 H       1  UNL1        0.1552
     12 C         -20.1867  -11.1800  -10.9914 C.ar    1  UNL1        0.0537
     13 C         -21.0932  -10.7295  -11.9669 C.ar    1  UNL1        0.0042
     14 C         -21.4628  -11.5614  -13.0277 C.ar    1  UNL1       -0.0028
     15 C         -20.9345  -12.8573  -13.1286 C.ar    1  UNL1       -0.0061
     16 C         -20.0543  -13.3202  -12.1404 C.ar    1  UNL1       -0.0028
     17 C         -19.6888  -12.4914  -11.0774 C.ar    1  UNL1        0.0042
     18 C         -21.3352  -13.7643  -14.2624 C.3     1  UNL1        0.0992
     19 N         -22.6724  -13.3994  -14.7719 N.3     1  UNL1       -0.2665
     20 C         -23.4795  -14.6032  -15.0248 C.3     1  UNL1        0.0899
     21 C         -24.9395  -14.2075  -15.3223 C.3     1  UNL1        0.0897
     22 N         -25.0703  -12.8712  -15.9509 N.3     1  UNL1       -0.2691
     23 C         -25.3689  -11.8164  -14.9658 C.3     1  UNL1        0.0897
     24 C         -23.9033  -12.5311  -16.7872 C.3     1  UNL1        0.0897
     25 C         -22.5754  -12.5724  -15.9975 C.3     1  UNL1        0.0899
     26 N         -23.2985   -7.2749  -12.8135 N.pl3   1  UNL1       -0.2827
     27 H         -24.3320   -7.1281  -12.7765 H       1  UNL1        0.1551
     28 C         -22.9087   -7.5115  -16.4786 C.ar    1  UNL1        0.0873
     29 C         -21.6154   -8.0486  -16.5768 C.ar    1  UNL1        0.0400
     30 C         -20.9133   -8.3215  -15.4027 C.ar    1  UNL1        0.1034
     31 N         -21.4776   -8.0618  -14.1954 N.ar    1  UNL1       -0.2120
     32 C         -22.7304   -7.5430  -14.1060 C.ar    1  UNL1        0.2207
     33 N         -23.4337   -7.2957  -15.2429 N.ar    1  UNL1       -0.2135
     34 C         -24.6820   -7.7928  -19.8188 C.ar    1  UNL1        0.1579
     35 C         -25.3018   -6.5342  -19.8840 C.ar    1  UNL1        0.1356
     36 N         -25.1358   -5.6406  -18.8750 N.ar    1  UNL1       -0.2391
     37 C         -24.3705   -5.9162  -17.7867 C.ar    1  UNL1        0.1006
     38 C         -23.7148   -7.1553  -17.6750 C.ar    1  UNL1        0.0400
     39 C         -23.8898   -8.0924  -18.7079 C.ar    1  UNL1        0.0416
     40 C         -25.3073   -8.4948  -22.1340 C.3     1  UNL1        0.2525
     41 O         -24.8321   -8.7641  -20.8193 O.3     1  UNL1       -0.4699
@<TRIPOS>BOND
     1    40    41    1
     2    41    34    1
     3    34    35   ar
     4    35    36   ar
     5    36    37   ar
     6    37    38   ar
     7    38    28    1
     8    28    29   ar
     9    29    30   ar
    10    30    31   ar
    11    31    32   ar
    12    32    26    1
    13    26     1    1
    14     1     2   ar
    15     2     3   ar
    16     3     8    1
    17     8     9   am
    18     9    10    2
    19     9    12    1
    20    12    13   ar
    21    13    14   ar
    22    14    15   ar
    23    15    18    1
    24    18    19    1
    25    19    20    1
    26    20    21    1
    27    21    22    1
    28    22    23    1
    29    22    24    1
    30    24    25    1
    31    15    16   ar
    32    16    17   ar
    33     3     4   ar
    34     4     5   ar
    35     5     6   ar
    36     6     7    1
    37    32    33   ar
    38    38    39   ar
    39    39    34   ar
    40    33    28   ar
    41     6     1   ar
    42    17    12   ar
    43    25    19    1
    44    26    27    1
    45     8    11    1
@<TRIPOS>MOLECULE
*****
 41 45 0 0 0
SMALL
GASTEIGER

@<TRIPOS>ATOM
      1 C         -23.3580  -10.1375  -12.8566 C.ar    1  UNL1        0.0477
      2 C         -24.2616   -9.2550  -12.2338 C.ar    1  UNL1        0.0290
      3 C         -24.2748   -9.0859  -10.8382 C.ar    1  UNL1        0.0518
      4 C         -23.3311   -9.7761  -10.0671 C.ar    1  UNL1        0.0144
      5 C         -22.4148  -10.6391  -10.6687 C.ar    1  UNL1       -0.0018
      6 C         -22.4256  -10.8399  -12.0579 C.ar    1  UNL1       -0.0083
      7 C         -21.4296  -11.7871  -12.6711 C.3     1  UNL1        0.0323
      8 N         -25.2361   -8.2357  -10.1788 N.am    1  UNL1       -0.2803
      9 C         -26.5813   -8.0502  -10.6432 C.2     1  UNL1        0.2495
     10 O         -27.5287   -8.5185   -9.9562 O.2     1  UNL1       -0.2698
     11 H         -25.0683   -8.0085   -9.1724 H       1  UNL1        0.1552
     12 C         -26.8807   -7.2860  -11.8771 C.ar    1  UNL1        0.0537
     13 C         -27.7149   -7.8245  -12.8723 C.ar    1  UNL1        0.0042
     14 C         -28.0378   -7.0751  -14.0072 C.ar    1  UNL1       -0.0028
     15 C         -27.5297   -5.7770  -14.1666 C.ar    1  UNL1       -0.0061
     16 C         -26.6726   -5.2490  -13.1908 C.ar    1  UNL1       -0.0028
     17 C         -26.3454   -5.9993  -12.0592 C.ar    1  UNL1        0.0042
     18 C         -27.8638   -4.9661  -15.3912 C.3     1  UNL1        0.0992
     19 N         -29.2075   -4.3664  -15.2666 N.3     1  UNL1       -0.2665
     20 C         -30.2500   -5.3996  -15.3680 C.3     1  UNL1        0.0899
     21 C         -31.6226   -4.8030  -14.9981 C.3     1  UNL1        0.0897
     22 N         -31.7369   -3.3567  -15.3031 N.3     1  UNL1       -0.2691
     23 C         -31.4614   -2.5133  -14.1263 C.3     1  UNL1        0.0897
     24 C         -30.9184   -2.9652  -16.4666 C.3     1  UNL1        0.0897
     25 C         -29.4230   -3.3097  -16.2826 C.3     1  UNL1        0.0899
     26 N         -23.3400  -10.2759  -14.2946 N.pl3   1  UNL1       -0.2827
     27 H         -23.7922  -11.1151  -14.7216 H       1  UNL1        0.1551
     28 C         -22.9904   -7.7178  -16.9355 C.ar    1  UNL1        0.0873
     29 C         -21.6032   -7.5030  -16.9191 C.ar    1  UNL1        0.0400
     30 C         -20.8237   -8.2323  -16.0210 C.ar    1  UNL1        0.1034
     31 N         -21.4078   -9.1238  -15.1798 N.ar    1  UNL1       -0.2120
     32 C         -22.7510   -9.3288  -15.2007 C.ar    1  UNL1        0.2207
     33 N         -23.5178   -8.6416  -16.0884 N.ar    1  UNL1       -0.2135
     34 C         -25.2318   -6.8575  -19.8709 C.ar    1  UNL1        0.1579
     35 C         -25.6863   -5.5875  -19.4796 C.ar    1  UNL1        0.1356
     36 N         -25.2674   -5.0461  -18.3068 N.ar    1  UNL1       -0.2391
     37 C         -24.4006   -5.6920  -17.4837 C.ar    1  UNL1        0.1006
     38 C         -23.9019   -6.9601  -17.8317 C.ar    1  UNL1        0.0400
     39 C         -24.3385   -7.5351  -19.0376 C.ar    1  UNL1        0.0416
     40 C         -25.0583   -8.6595  -21.5933 C.3     1  UNL1        0.2525
     41 O         -25.6440   -7.4767  -21.0599 O.3     1  UNL1       -0.4699
@<TRIPOS>BOND
     1    40    41    1
     2    41    34    1
     3    34    35   ar
     4    35    36   ar
     5    36    37   ar
     6    37    38   ar
     7    38    28    1
     8    28    29   ar
     9    29    30   ar
    10    30    31   ar
    11    31    32   ar
    12    32    26    1
    13    26     1    1
    14     1     2   ar
    15     2     3   ar
    16     3     8    1
    17     8     9   am
    18     9    10    2
    19     9    12    1
    20    12    13   ar
    21    13    14   ar
    22    14    15   ar
    23    15    18    1
    24    18    19    1
    25    19    20    1
    26    20    21    1
    27    21    22    1
    28    22    23    1
    29    22    24    1
    30    24    25    1
    31    15    16   ar
    32    16    17   ar
    33     3     4   ar
    34     4     5   ar
    35     5     6   ar
    36     6     7    1
    37    32    33   ar
    38    38    39   ar
    39    39    34   ar
    40    33    28   ar
    41     6     1   ar
    42    17    12   ar
    43    25    19    1
    44    26    27    1
    45     8    11    1
@<TRIPOS>MOLECULE
*****
 41 45 0 0 0
SMALL
GASTEIGER

@<TRIPOS>ATOM
      1 C         -26.8601   -4.1666  -16.9824 C.ar    1  UNL1        0.0477
      2 C         -26.9480   -4.6996  -15.6819 C.ar    1  UNL1        0.0290
      3 C         -28.1311   -4.6004  -14.9289 C.ar    1  UNL1        0.0518
      4 C         -29.2540   -4.0024  -15.5145 C.ar    1  UNL1        0.0144
      5 C         -29.1917   -3.4869  -16.8093 C.ar    1  UNL1       -0.0018
      6 C         -27.9999   -3.5492  -17.5484 C.ar    1  UNL1       -0.0083
      7 C         -27.9662   -2.9726  -18.9382 C.3     1  UNL1        0.0323
      8 N         -28.2181   -5.0832  -13.5720 N.am    1  UNL1       -0.2803
      9 C         -27.0740   -5.4356  -12.7805 C.2     1  UNL1        0.2495
     10 O         -26.7757   -4.7120  -11.7924 O.2     1  UNL1       -0.2698
     11 H         -29.0895   -4.8648  -13.0377 H       1  UNL1        0.1552
     12 C         -26.2709   -6.6472  -13.0688 C.ar    1  UNL1        0.0537
     13 C         -24.9071   -6.5459  -13.3942 C.ar    1  UNL1        0.0042
     14 C         -24.1433   -7.6965  -13.6096 C.ar    1  UNL1       -0.0028
     15 C         -24.7312   -8.9663  -13.5060 C.ar    1  UNL1       -0.0061
     16 C         -26.0981   -9.0696  -13.2121 C.ar    1  UNL1       -0.0028
     17 C         -26.8630   -7.9201  -13.0020 C.ar    1  UNL1        0.0042
     18 C         -23.9183  -10.2113  -13.7468 C.3     1  UNL1        0.0992
     19 N         -22.8391  -10.3288  -12.7456 N.3     1  UNL1       -0.2665
     20 C         -22.2707  -11.6858  -12.7498 C.3     1  UNL1        0.0899
     21 C         -20.9975  -11.7279  -11.8815 C.3     1  UNL1        0.0897
     22 N         -21.0103  -10.7462  -10.7707 N.3     1  UNL1       -0.2691
     23 C         -20.2954   -9.5039  -11.1137 C.3     1  UNL1        0.0897
     24 C         -22.3751  -10.4795  -10.2773 C.3     1  UNL1        0.0897
     25 C         -23.3193   -9.9712  -11.3903 C.3     1  UNL1        0.0899
     26 N         -25.6449   -4.3040  -17.7517 N.pl3   1  UNL1       -0.2827
     27 H         -25.0433   -3.4616  -17.8905 H       1  UNL1        0.1551
     28 C         -23.8702   -7.5109  -18.2067 C.ar    1  UNL1        0.0873
     29 C         -24.3233   -7.8900  -19.4801 C.ar    1  UNL1        0.0400
     30 C         -25.2108   -7.0494  -20.1523 C.ar    1  UNL1        0.1034
     31 N         -25.6261   -5.8939  -19.5727 N.ar    1  UNL1       -0.2120
     32 C         -25.1833   -5.5310  -18.3403 C.ar    1  UNL1        0.2207
     33 N         -24.2994   -6.3302  -17.6860 N.ar    1  UNL1       -0.2135
     34 C         -22.2201  -10.5774  -16.7052 C.ar    1  UNL1        0.1579
     35 C         -21.1840   -9.9751  -15.9728 C.ar    1  UNL1        0.1356
     36 N         -21.0446   -8.6243  -15.9752 N.ar    1  UNL1       -0.2391
     37 C         -21.8902   -7.8137  -16.6637 C.ar    1  UNL1        0.1006
     38 C         -22.9541   -8.3610  -17.4030 C.ar    1  UNL1        0.0400
     39 C         -23.1001   -9.7589  -17.4173 C.ar    1  UNL1        0.0416
     40 C         -23.6686  -12.6133  -16.6780 C.3     1  UNL1        0.2525
     41 O         -22.4027  -11.9669  -16.7574 O.3     1  UNL1       -0.4699
@<TRIPOS>BOND
     1    40    41    1
     2    41    34    1
     3    34    35   ar
     4    35    36   ar
     5    36    37   ar
     6    37    38   ar
     7    38    28    1
     8    28    29   ar
     9    29    30   ar
    10    30    31   ar
    11    31    32   ar
    12    32    26    1
    13    26     1    1
    14     1     2   ar
    15     2     3   ar
    16     3     8    1
    17     8     9   am
    18     9    10    2
    19     9    12    1
    20    12    13   ar
    21    13    14   ar
    22    14    15   ar
    23    15    18    1
    24    18    19    1
    25    19    20    1
    26    20    21    1
    27    21    22    1
    28    22    23    1
    29    22    24    1
    30    24    25    1
    31    15    16   ar
    32    16    17   ar
    33     3     4   ar
    34     4     5   ar
    35     5     6   ar
    36     6     7    1
    37    32    33   ar
    38    38    39   ar
    39    39    34   ar
    40    33    28   ar
    41     6     1   ar
    42    17    12   ar
    43    25    19    1
    44    26    27    1
    45     8    11    1
@<TRIPOS>MOLECULE
*****
 41 45 0 0 0
SMALL
GASTEIGER

@<TRIPOS>ATOM
      1 C         -26.8364   -4.3340  -16.5466 C.ar    1  UNL1        0.0477
      2 C         -25.8595   -4.9243  -17.3714 C.ar    1  UNL1        0.0290
      3 C         -25.9155   -4.8066  -18.7713 C.ar    1  UNL1        0.0518
      4 C         -26.9399   -4.0411  -19.3424 C.ar    1  UNL1        0.0144
      5 C         -27.9049   -3.4320  -18.5399 C.ar    1  UNL1       -0.0018
      6 C         -27.8739   -3.5810  -17.1444 C.ar    1  UNL1       -0.0083
      7 C         -28.9380   -2.9190  -16.3110 C.3     1  UNL1        0.0323
      8 N         -24.9600   -5.4588  -19.6335 N.am    1  UNL1       -0.2803
      9 C         -24.7193   -6.8736  -19.6240 C.2     1  UNL1        0.2495
     10 O         -25.0754   -7.5548  -20.6230 O.2     1  UNL1       -0.2698
     11 H         -24.6749   -4.9560  -20.5044 H       1  UNL1        0.1552
     12 C         -24.0248   -7.5377  -18.4958 C.ar    1  UNL1        0.0537
     13 C         -23.5532   -6.7916  -17.4017 C.ar    1  UNL1        0.0042
     14 C         -22.9494   -7.4319  -16.3158 C.ar    1  UNL1       -0.0028
     15 C         -22.8049   -8.8275  -16.3076 C.ar    1  UNL1       -0.0061
     16 C         -23.2462   -9.5713  -17.4110 C.ar    1  UNL1       -0.0028
     17 C         -23.8448   -8.9316  -18.4987 C.ar    1  UNL1        0.0042
     18 C         -22.1460   -9.5250  -15.1465 C.3     1  UNL1        0.0992
     19 N         -22.6891  -10.8886  -14.9835 N.3     1  UNL1       -0.2665
     20 C         -23.4201  -11.0092  -13.7124 C.3     1  UNL1        0.0899
     21 C         -24.1801  -12.3497  -13.6653 C.3     1  UNL1        0.0897
     22 N         -23.5253  -13.4249  -14.4482 N.3     1  UNL1       -0.2691
     23 C         -24.1008  -13.5640  -15.7979 C.3     1  UNL1        0.0897
     24 C         -22.0581  -13.2730  -14.4867 C.3     1  UNL1        0.0897
     25 C         -21.6181  -11.9091  -15.0654 C.3     1  UNL1        0.0899
     26 N         -26.7458   -4.4413  -15.1087 N.pl3   1  UNL1       -0.2827
     27 H         -26.5569   -3.5767  -14.5539 H       1  UNL1        0.1551
     28 C         -26.0168   -7.3270  -12.9219 C.ar    1  UNL1        0.0873
     29 C         -27.2522   -7.9937  -12.9367 C.ar    1  UNL1        0.0400
     30 C         -28.2951   -7.4536  -13.6894 C.ar    1  UNL1        0.1034
     31 N         -28.1086   -6.3017  -14.3838 N.ar    1  UNL1       -0.2120
     32 C         -26.9103   -5.6611  -14.3671 C.ar    1  UNL1        0.2207
     33 N         -25.8794   -6.1910  -13.6567 N.ar    1  UNL1       -0.2135
     34 C         -23.9847   -9.2543  -10.3652 C.ar    1  UNL1        0.1579
     35 C         -22.6932   -8.7920  -10.6667 C.ar    1  UNL1        0.1356
     36 N         -22.5093   -7.8868  -11.6622 N.ar    1  UNL1       -0.2391
     37 C         -23.5464   -7.3922  -12.3872 C.ar    1  UNL1        0.1006
     38 C         -24.8627   -7.8088  -12.1195 C.ar    1  UNL1        0.0400
     39 C         -25.0631   -8.7548  -11.0994 C.ar    1  UNL1        0.0416
     40 C         -25.5281  -10.5038   -8.8484 C.3     1  UNL1        0.2525
     41 O         -24.2353  -10.2027   -9.3628 O.3     1  UNL1       -0.4699
@<TRIPOS>BOND
     1    40    41    1
     2    41    34    1
     3    34    35   ar
     4    35    36   ar
     5    36    37   ar
     6    37    38   ar
     7    38    28    1
     8    28    29   ar
     9    29    30   ar
    10    30    31   ar
    11    31    32   ar
    12    32    26    1
    13    26     1    1
    14     1     2   ar
    15     2     3   ar
    16     3     8    1
    17     8     9   am
    18     9    10    2
    19     9    12    1
    20    12    13   ar
    21    13    14   ar
    22    14    15   ar
    23    15    18    1
    24    18    19    1
    25    19    20    1
    26    20    21    1
    27    21    22    1
    28    22    23    1
    29    22    24    1
    30    24    25    1
    31    15    16   ar
    32    16    17   ar
    33     3     4   ar
    34     4     5   ar
    35     5     6   ar
    36     6     7    1
    37    32    33   ar
    38    38    39   ar
    39    39    34   ar
    40    33    28   ar
    41     6     1   ar
    42    17    12   ar
    43    25    19    1
    44    26    27    1
    45     8    11    1
@<TRIPOS>MOLECULE
*****
 41 45 0 0 0
SMALL
GASTEIGER

@<TRIPOS>ATOM
      1 C         -27.2989   -4.1733  -16.3840 C.ar    1  UNL1        0.0477
      2 C         -26.2409   -4.6353  -17.1903 C.ar    1  UNL1        0.0290
      3 C         -26.2702   -4.4923  -18.5886 C.ar    1  UNL1        0.0518
      4 C         -27.3554   -3.8293  -19.1752 C.ar    1  UNL1        0.0144
      5 C         -28.4030   -3.3467  -18.3904 C.ar    1  UNL1       -0.0018
      6 C         -28.3951   -3.5235  -16.9980 C.ar    1  UNL1       -0.0083
      7 C         -29.5478   -2.9999  -16.1842 C.3     1  UNL1        0.0323
      8 N         -25.2257   -5.0174  -19.4342 N.am    1  UNL1       -0.2803
      9 C         -24.9043   -6.4132  -19.5242 C.2     1  UNL1        0.2495
     10 O         -25.1562   -7.0241  -20.5976 O.2     1  UNL1       -0.2698
     11 H         -24.9154   -4.4277  -20.2396 H       1  UNL1        0.1552
     12 C         -24.2456   -7.1341  -18.4096 C.ar    1  UNL1        0.0537
     13 C         -23.9755   -8.5105  -18.5028 C.ar    1  UNL1        0.0042
     14 C         -23.3035   -9.1715  -17.4707 C.ar    1  UNL1       -0.0028
     15 C         -22.8935   -8.4680  -16.3280 C.ar    1  UNL1       -0.0061
     16 C         -23.1889   -7.1019  -16.2185 C.ar    1  UNL1       -0.0028
     17 C         -23.8650   -6.4420  -17.2471 C.ar    1  UNL1        0.0042
     18 C         -22.1782   -9.1743  -15.2063 C.3     1  UNL1        0.0992
     19 N         -22.7307  -10.5297  -15.0098 N.3     1  UNL1       -0.2665
     20 C         -23.5291  -10.5924  -13.7757 C.3     1  UNL1        0.0899
     21 C         -24.2918  -11.9305  -13.7075 C.3     1  UNL1        0.0897
     22 N         -23.5969  -13.0398  -14.4034 N.3     1  UNL1       -0.2691
     23 C         -24.0992  -13.2420  -15.7742 C.3     1  UNL1        0.0897
     24 C         -22.1297  -12.8876  -14.3700 C.3     1  UNL1        0.0897
     25 C         -21.6578  -11.5513  -14.9867 C.3     1  UNL1        0.0899
     26 N         -27.2374   -4.3032  -14.9464 N.pl3   1  UNL1       -0.2827
     27 H         -27.6228   -3.5311  -14.3579 H       1  UNL1        0.1551
     28 C         -24.9599   -6.4010  -12.9332 C.ar    1  UNL1        0.0873
     29 C         -25.6677   -7.6130  -12.9032 C.ar    1  UNL1        0.0400
     30 C         -26.8913   -7.6900  -13.5686 C.ar    1  UNL1        0.1034
     31 N         -27.3806   -6.6053  -14.2225 N.ar    1  UNL1       -0.2120
     32 C         -26.6908   -5.4349  -14.2495 C.ar    1  UNL1        0.2207
     33 N         -25.4857   -5.3551  -13.6252 N.ar    1  UNL1       -0.2135
     34 C         -21.4336   -7.0281  -11.6870 C.ar    1  UNL1        0.1579
     35 C         -21.2034   -5.8427  -10.9697 C.ar    1  UNL1        0.1356
     36 N         -22.1686   -4.8900  -10.9013 N.ar    1  UNL1       -0.2391
     37 C         -23.3772   -5.0440  -11.5026 C.ar    1  UNL1        0.1006
     38 C         -23.6681   -6.2167  -12.2224 C.ar    1  UNL1        0.0400
     39 C         -22.6716   -7.2040  -12.3099 C.ar    1  UNL1        0.0416
     40 C         -20.5875   -9.3351  -11.2340 C.3     1  UNL1        0.2525
     41 O         -20.4691   -8.0388  -11.8102 O.3     1  UNL1       -0.4699
@<TRIPOS>BOND
     1    40    41    1
     2    41    34    1
     3    34    35   ar
     4    35    36   ar
     5    36    37   ar
     6    37    38   ar
     7    38    28    1
     8    28    29   ar
     9    29    30   ar
    10    30    31   ar
    11    31    32   ar
    12    32    26    1
    13    26     1    1
    14     1     2   ar
    15     2     3   ar
    16     3     8    1
    17     8     9   am
    18     9    10    2
    19     9    12    1
    20    12    13   ar
    21    13    14   ar
    22    14    15   ar
    23    15    18    1
    24    18    19    1
    25    19    20    1
    26    20    21    1
    27    21    22    1
    28    22    23    1
    29    22    24    1
    30    24    25    1
    31    15    16   ar
    32    16    17   ar
    33     3     4   ar
    34     4     5   ar
    35     5     6   ar
    36     6     7    1
    37    32    33   ar
    38    38    39   ar
    39    39    34   ar
    40    33    28   ar
    41     6     1   ar
    42    17    12   ar
    43    25    19    1
    44    26    27    1
    45     8    11    1
@<TRIPOS>MOLECULE
*****
 41 45 0 0 0
SMALL
GASTEIGER

@<TRIPOS>ATOM
      1 C         -24.8852   -5.8336  -16.9068 C.ar    1  UNL1        0.0477
      2 C         -25.1906   -5.9107  -15.5342 C.ar    1  UNL1        0.0290
      3 C         -26.2988   -5.2363  -14.9922 C.ar    1  UNL1        0.0518
      4 C         -27.1377   -4.5183  -15.8538 C.ar    1  UNL1        0.0144
      5 C         -26.8624   -4.4476  -17.2196 C.ar    1  UNL1       -0.0018
      6 C         -25.7343   -5.0873  -17.7569 C.ar    1  UNL1       -0.0083
      7 C         -25.4623   -4.9799  -19.2332 C.3     1  UNL1        0.0323
      8 N         -26.5886   -5.2518  -13.5789 N.am    1  UNL1       -0.2803
      9 C         -25.6722   -5.7363  -12.5865 C.2     1  UNL1        0.2495
     10 O         -25.1529   -4.9108  -11.7878 O.2     1  UNL1       -0.2698
     11 H         -27.3317   -4.6036  -13.2322 H       1  UNL1        0.1552
     12 C         -25.3623   -7.1792  -12.4510 C.ar    1  UNL1        0.0537
     13 C         -25.5374   -8.0575  -13.5345 C.ar    1  UNL1        0.0042
     14 C         -25.1898   -9.4062  -13.4158 C.ar    1  UNL1       -0.0028
     15 C         -24.6645   -9.8987  -12.2116 C.ar    1  UNL1       -0.0061
     16 C         -24.5177   -9.0318  -11.1196 C.ar    1  UNL1       -0.0028
     17 C         -24.8698   -7.6854  -11.2359 C.ar    1  UNL1        0.0042
     18 C         -24.2970  -11.3527  -12.0713 C.3     1  UNL1        0.0992
     19 N         -24.3341  -12.0270  -13.3846 N.3     1  UNL1       -0.2665
     20 C         -25.2500  -13.1779  -13.3530 C.3     1  UNL1        0.0899
     21 C         -25.4639  -13.7221  -14.7795 C.3     1  UNL1        0.0897
     22 N         -24.3009  -13.5042  -15.6727 N.3     1  UNL1       -0.2691
     23 C         -24.4521  -12.2963  -16.5035 C.3     1  UNL1        0.0897
     24 C         -23.0224  -13.5111  -14.9361 C.3     1  UNL1        0.0897
     25 C         -22.9804  -12.4522  -13.8111 C.3     1  UNL1        0.0899
     26 N         -23.7590   -6.5573  -17.4502 N.pl3   1  UNL1       -0.2827
     27 H         -23.4095   -6.2982  -18.3998 H       1  UNL1        0.1551
     28 C         -21.9808   -8.4467  -14.8217 C.ar    1  UNL1        0.0873
     29 C         -21.7388   -9.6618  -15.4818 C.ar    1  UNL1        0.0400
     30 C         -22.1775   -9.8072  -16.7980 C.ar    1  UNL1        0.1034
     31 N         -22.8305   -8.7891  -17.4149 N.ar    1  UNL1       -0.2120
     32 C         -23.0610   -7.6145  -16.7717 C.ar    1  UNL1        0.2207
     33 N         -22.6167   -7.4524  -15.4972 N.ar    1  UNL1       -0.2135
     34 C         -21.3801   -6.7082  -11.5054 C.ar    1  UNL1        0.1579
     35 C         -20.9269   -7.7886  -10.7309 C.ar    1  UNL1        0.1356
     36 N         -20.8233   -9.0253  -11.2822 N.ar    1  UNL1       -0.2391
     37 C         -21.1372   -9.2634  -12.5825 C.ar    1  UNL1        0.1006
     38 C         -21.5827   -8.2162  -13.4088 C.ar    1  UNL1        0.0400
     39 C         -21.7053   -6.9345  -12.8450 C.ar    1  UNL1        0.0416
     40 C         -21.6560   -5.1135   -9.6016 C.3     1  UNL1        0.2525
     41 O         -21.5269   -5.4132  -10.9873 O.3     1  UNL1       -0.4699
@<TRIPOS>BOND
     1    40    41    1
     2    41    34    1
     3    34    35   ar
     4    35    36   ar
     5    36    37   ar
     6    37    38   ar
     7    38    28    1
     8    28    29   ar
     9    29    30   ar
    10    30    31   ar
    11    31    32   ar
    12    32    26    1
    13    26     1    1
    14     1     2   ar
    15     2     3   ar
    16     3     8    1
    17     8     9   am
    18     9    10    2
    19     9    12    1
    20    12    13   ar
    21    13    14   ar
    22    14    15   ar
    23    15    18    1
    24    18    19    1
    25    19    20    1
    26    20    21    1
    27    21    22    1
    28    22    23    1
    29    22    24    1
    30    24    25    1
    31    15    16   ar
    32    16    17   ar
    33     3     4   ar
    34     4     5   ar
    35     5     6   ar
    36     6     7    1
    37    32    33   ar
    38    38    39   ar
    39    39    34   ar
    40    33    28   ar
    41     6     1   ar
    42    17    12   ar
    43    25    19    1
    44    26    27    1
    45     8    11    1
@<TRIPOS>MOLECULE
*****
 41 45 0 0 0
SMALL
GASTEIGER

@<TRIPOS>ATOM
      1 C         -24.9000   -6.1003  -18.1279 C.ar    1  UNL1        0.0477
      2 C         -24.1749   -7.2652  -17.8110 C.ar    1  UNL1        0.0290
      3 C         -23.9952   -8.2940  -18.7522 C.ar    1  UNL1        0.0518
      4 C         -24.5088   -8.1224  -20.0438 C.ar    1  UNL1        0.0144
      5 C         -25.2123   -6.9661  -20.3820 C.ar    1  UNL1       -0.0018
      6 C         -25.4272   -5.9550  -19.4323 C.ar    1  UNL1       -0.0083
      7 C         -26.2005   -4.7264  -19.8294 C.3     1  UNL1        0.0323
      8 N         -23.3112   -9.5213  -18.4242 N.am    1  UNL1       -0.2803
      9 C         -23.3279  -10.1139  -17.1172 C.2     1  UNL1        0.2495
     10 O         -23.9450  -11.2008  -16.9535 O.2     1  UNL1       -0.2698
     11 H         -23.0743  -10.1664  -19.2118 H       1  UNL1        0.1552
     12 C         -22.6024   -9.5058  -15.9771 C.ar    1  UNL1        0.0537
     13 C         -21.5098   -8.6483  -16.1944 C.ar    1  UNL1        0.0042
     14 C         -20.8662   -8.0345  -15.1161 C.ar    1  UNL1       -0.0028
     15 C         -21.3026   -8.2701  -13.8036 C.ar    1  UNL1       -0.0061
     16 C         -22.3722   -9.1489  -13.5817 C.ar    1  UNL1       -0.0028
     17 C         -23.0122   -9.7667  -14.6583 C.ar    1  UNL1        0.0042
     18 C         -20.6085   -7.6212  -12.6349 C.3     1  UNL1        0.0992
     19 N         -21.2044   -8.0720  -11.3611 N.3     1  UNL1       -0.2665
     20 C         -21.7284   -6.9285  -10.5981 C.3     1  UNL1        0.0899
     21 C         -22.5550   -7.4292   -9.3969 C.3     1  UNL1        0.0897
     22 N         -22.1043   -8.7433   -8.8795 N.3     1  UNL1       -0.2691
     23 C         -22.8964   -9.8605   -9.4239 C.3     1  UNL1        0.0897
     24 C         -20.6556   -8.9503   -9.0681 C.3     1  UNL1        0.0897
     25 C         -20.2278   -8.8347  -10.5488 C.3     1  UNL1        0.0899
     26 N         -25.0491   -5.0412  -17.1566 N.pl3   1  UNL1       -0.2827
     27 H         -24.3122   -4.3028  -17.1053 H       1  UNL1        0.1551
     28 C         -28.3572   -4.1386  -15.7846 C.ar    1  UNL1        0.0873
     29 C         -28.2745   -4.6936  -14.4978 C.ar    1  UNL1        0.0400
     30 C         -27.1018   -5.3518  -14.1270 C.ar    1  UNL1        0.1034
     31 N         -26.0709   -5.4533  -15.0048 N.ar    1  UNL1       -0.2120
     32 C         -26.1557   -4.9131  -16.2488 C.ar    1  UNL1        0.2207
     33 N         -27.2842   -4.2482  -16.6128 N.ar    1  UNL1       -0.2135
     34 C         -31.8582   -2.6847  -15.8828 C.ar    1  UNL1        0.1579
     35 C         -31.8498   -2.0881  -17.1543 C.ar    1  UNL1        0.1356
     36 N         -30.7427   -2.1684  -17.9366 N.ar    1  UNL1       -0.2391
     37 C         -29.6227   -2.8247  -17.5354 C.ar    1  UNL1        0.1006
     38 C         -29.5797   -3.4529  -16.2778 C.ar    1  UNL1        0.0400
     39 C         -30.7158   -3.3654  -15.4549 C.ar    1  UNL1        0.0416
     40 C         -33.1106   -3.4032  -13.8434 C.3     1  UNL1        0.2525
     41 O         -32.9635   -2.6185  -15.0221 O.3     1  UNL1       -0.4699
@<TRIPOS>BOND
     1    40    41    1
     2    41    34    1
     3    34    35   ar
     4    35    36   ar
     5    36    37   ar
     6    37    38   ar
     7    38    28    1
     8    28    29   ar
     9    29    30   ar
    10    30    31   ar
    11    31    32   ar
    12    32    26    1
    13    26     1    1
    14     1     2   ar
    15     2     3   ar
    16     3     8    1
    17     8     9   am
    18     9    10    2
    19     9    12    1
    20    12    13   ar
    21    13    14   ar
    22    14    15   ar
    23    15    18    1
    24    18    19    1
    25    19    20    1
    26    20    21    1
    27    21    22    1
    28    22    23    1
    29    22    24    1
    30    24    25    1
    31    15    16   ar
    32    16    17   ar
    33     3     4   ar
    34     4     5   ar
    35     5     6   ar
    36     6     7    1
    37    32    33   ar
    38    38    39   ar
    39    39    34   ar
    40    33    28   ar
    41     6     1   ar
    42    17    12   ar
    43    25    19    1
    44    26    27    1
    45     8    11    1
@<TRIPOS>MOLECULE
*****
 41 45 0 0 0
SMALL
GASTEIGER

@<TRIPOS>ATOM
      1 C         -22.4808   -7.0519  -11.5479 C.ar    1  UNL1        0.0477
      2 C         -21.9571   -8.2195  -10.9599 C.ar    1  UNL1        0.0290
      3 C         -21.2676   -8.1763   -9.7355 C.ar    1  UNL1        0.0518
      4 C         -21.1502   -6.9487   -9.0716 C.ar    1  UNL1        0.0144
      5 C         -21.6804   -5.7848   -9.6289 C.ar    1  UNL1       -0.0018
      6 C         -22.3346   -5.8189  -10.8704 C.ar    1  UNL1       -0.0083
      7 C         -22.8841   -4.5417  -11.4466 C.3     1  UNL1        0.0323
      8 N         -20.6690   -9.3521   -9.1517 N.am    1  UNL1       -0.2803
      9 C         -19.7562  -10.2091   -9.8530 C.2     1  UNL1        0.2495
     10 O         -18.5496  -10.2353   -9.4889 O.2     1  UNL1       -0.2698
     11 H         -20.6319   -9.4067   -8.1085 H       1  UNL1        0.1552
     12 C         -20.2068  -11.0912  -10.9552 C.ar    1  UNL1        0.0537
     13 C         -21.0909  -10.6175  -11.9402 C.ar    1  UNL1        0.0042
     14 C         -21.4669  -11.4380  -13.0075 C.ar    1  UNL1       -0.0028
     15 C         -20.9677  -12.7457  -13.1056 C.ar    1  UNL1       -0.0061
     16 C         -20.1103  -13.2312  -12.1083 C.ar    1  UNL1       -0.0028
     17 C         -19.7384  -12.4137  -11.0388 C.ar    1  UNL1        0.0042
     18 C         -21.3758  -13.6404  -14.2465 C.3     1  UNL1        0.0992
     19 N         -22.7346  -13.2995  -14.7137 N.3     1  UNL1       -0.2665
     20 C         -23.5536  -14.5127  -14.8619 C.3     1  UNL1        0.0899
     21 C         -25.0254  -14.1288  -15.1137 C.3     1  UNL1        0.0897
     22 N         -25.1836  -12.8291  -15.8090 N.3     1  UNL1       -0.2691
     23 C         -25.4355  -11.7202  -14.8714 C.3     1  UNL1        0.0897
     24 C         -24.0560  -12.5401  -16.7156 C.3     1  UNL1        0.0897
     25 C         -22.6932  -12.5422  -15.9865 C.3     1  UNL1        0.0899
     26 N         -23.2117   -7.1206  -12.7921 N.pl3   1  UNL1       -0.2827
     27 H         -22.6742   -7.1291  -13.6877 H       1  UNL1        0.1551
     28 C         -26.6816   -6.3823  -13.8191 C.ar    1  UNL1        0.0873
     29 C         -27.3880   -7.3592  -13.0998 C.ar    1  UNL1        0.0400
     30 C         -26.6737   -8.2361  -12.2833 C.ar    1  UNL1        0.1034
     31 N         -25.3217   -8.1411  -12.2001 N.ar    1  UNL1       -0.2120
     32 C         -24.6430   -7.1927  -12.8976 C.ar    1  UNL1        0.2207
     33 N         -25.3308   -6.3170  -13.6776 N.ar    1  UNL1       -0.2135
     34 C         -29.3998   -4.3635  -15.5271 C.ar    1  UNL1        0.1579
     35 C         -28.6251   -3.5822  -16.4000 C.ar    1  UNL1        0.1356
     36 N         -27.2746   -3.7219  -16.4218 N.ar    1  UNL1       -0.2391
     37 C         -26.6291   -4.6125  -15.6242 C.ar    1  UNL1        0.1006
     38 C         -27.3553   -5.4311  -14.7407 C.ar    1  UNL1        0.0400
     39 C         -28.7528   -5.2859  -14.7012 C.ar    1  UNL1        0.0416
     40 C         -31.4762   -3.2411  -14.7070 C.3     1  UNL1        0.2525
     41 O         -30.7953   -4.2503  -15.4449 O.3     1  UNL1       -0.4699
@<TRIPOS>BOND
     1    40    41    1
     2    41    34    1
     3    34    35   ar
     4    35    36   ar
     5    36    37   ar
     6    37    38   ar
     7    38    28    1
     8    28    29   ar
     9    29    30   ar
    10    30    31   ar
    11    31    32   ar
    12    32    26    1
    13    26     1    1
    14     1     2   ar
    15     2     3   ar
    16     3     8    1
    17     8     9   am
    18     9    10    2
    19     9    12    1
    20    12    13   ar
    21    13    14   ar
    22    14    15   ar
    23    15    18    1
    24    18    19    1
    25    19    20    1
    26    20    21    1
    27    21    22    1
    28    22    23    1
    29    22    24    1
    30    24    25    1
    31    15    16   ar
    32    16    17   ar
    33     3     4   ar
    34     4     5   ar
    35     5     6   ar
    36     6     7    1
    37    32    33   ar
    38    38    39   ar
    39    39    34   ar
    40    33    28   ar
    41     6     1   ar
    42    17    12   ar
    43    25    19    1
    44    26    27    1
    45     8    11    1
@<TRIPOS>MOLECULE
*****
 41 45 0 0 0
SMALL
GASTEIGER

@<TRIPOS>ATOM
      1 C         -22.2414  -13.1921  -16.5417 C.ar    1  UNL1        0.0477
      2 C         -23.2114  -13.1661  -15.5211 C.ar    1  UNL1        0.0290
      3 C         -23.6531  -14.3480  -14.9010 C.ar    1  UNL1        0.0518
      4 C         -23.0716  -15.5647  -15.2790 C.ar    1  UNL1        0.0144
      5 C         -22.0945  -15.6077  -16.2738 C.ar    1  UNL1       -0.0018
      6 C         -21.6805  -14.4336  -16.9223 C.ar    1  UNL1       -0.0083
      7 C         -20.6324  -14.5194  -17.9989 C.3     1  UNL1        0.0323
      8 N         -24.6921  -14.3455  -13.8999 N.am    1  UNL1       -0.2803
      9 C         -25.6954  -13.3242  -13.8005 C.2     1  UNL1        0.2495
     10 O         -26.8896  -13.6203  -14.0748 O.2     1  UNL1       -0.2698
     11 H         -24.9268  -15.2576  -13.4466 H       1  UNL1        0.1552
     12 C         -25.3688  -11.9537  -13.3410 C.ar    1  UNL1        0.0537
     13 C         -25.7163  -10.8332  -14.1155 C.ar    1  UNL1        0.0042
     14 C         -25.4551   -9.5417  -13.6491 C.ar    1  UNL1       -0.0028
     15 C         -24.8400   -9.3498  -12.4027 C.ar    1  UNL1       -0.0061
     16 C         -24.4643  -10.4659  -11.6419 C.ar    1  UNL1       -0.0028
     17 C         -24.7202  -11.7567  -12.1098 C.ar    1  UNL1        0.0042
     18 C         -24.5452   -7.9621  -11.8967 C.3     1  UNL1        0.0992
     19 N         -23.1570   -7.8740  -11.4006 N.3     1  UNL1       -0.2665
     20 C         -23.1357   -7.7325   -9.9363 C.3     1  UNL1        0.0899
     21 C         -21.6938   -7.8837   -9.4121 C.3     1  UNL1        0.0897
     22 N         -20.6648   -7.4496  -10.3870 N.3     1  UNL1       -0.2691
     23 C         -20.1140   -8.5779  -11.1588 C.3     1  UNL1        0.0897
     24 C         -21.1482   -6.3653  -11.2631 C.3     1  UNL1        0.0897
     25 C         -22.4253   -6.7562  -12.0411 C.3     1  UNL1        0.0899
     26 N         -21.7790  -11.9644  -17.1467 N.pl3   1  UNL1       -0.2827
     27 H         -21.2214  -12.0208  -18.0282 H       1  UNL1        0.1551
     28 C         -22.9484   -8.4685  -16.9204 C.ar    1  UNL1        0.0873
     29 C         -22.5480   -8.1354  -15.6168 C.ar    1  UNL1        0.0400
     30 C         -21.8889   -9.0985  -14.8526 C.ar    1  UNL1        0.1034
     31 N         -21.6517  -10.3320  -15.3682 N.ar    1  UNL1       -0.2120
     32 C         -22.0404  -10.6488  -16.6312 C.ar    1  UNL1        0.2207
     33 N         -22.6618   -9.7106  -17.3939 N.ar    1  UNL1       -0.2135
     34 C         -25.0246   -7.1091  -19.7880 C.ar    1  UNL1        0.1579
     35 C         -25.1585   -5.7685  -19.3912 C.ar    1  UNL1        0.1356
     36 N         -24.5868   -5.3400  -18.2363 N.ar    1  UNL1       -0.2391
     37 C         -23.8670   -6.1701  -17.4371 C.ar    1  UNL1        0.1006
     38 C         -23.6881   -7.5192  -17.7920 C.ar    1  UNL1        0.0400
     39 C         -24.2860   -7.9762  -18.9792 C.ar    1  UNL1        0.0416
     40 C         -25.0360   -8.6417  -21.7616 C.3     1  UNL1        0.2525
     41 O         -25.6084   -7.6149  -20.9586 O.3     1  UNL1       -0.4699
@<TRIPOS>BOND
     1    40    41    1
     2    41    34    1
     3    34    35   ar
     4    35    36   ar
     5    36    37   ar
     6    37    38   ar
     7    38    28    1
     8    28    29   ar
     9    29    30   ar
    10    30    31   ar
    11    31    32   ar
    12    32    26    1
    13    26     1    1
    14     1     2   ar
    15     2     3   ar
    16     3     8    1
    17     8     9   am
    18     9    10    2
    19     9    12    1
    20    12    13   ar
    21    13    14   ar
    22    14    15   ar
    23    15    18    1
    24    18    19    1
    25    19    20    1
    26    20    21    1
    27    21    22    1
    28    22    23    1
    29    22    24    1
    30    24    25    1
    31    15    16   ar
    32    16    17   ar
    33     3     4   ar
    34     4     5   ar
    35     5     6   ar
    36     6     7    1
    37    32    33   ar
    38    38    39   ar
    39    39    34   ar
    40    33    28   ar
    41     6     1   ar
    42    17    12   ar
    43    25    19    1
    44    26    27    1
    45     8    11    1
