@<TRIPOS>MOLECULE
*****
 46 51 0 0 0
SMALL
GASTEIGER

@<TRIPOS>ATOM
      1 C          -7.7558  -12.3702   29.4049 C.ar    1  UNL1        0.1713
      2 C          -6.9132  -12.9594   28.4455 C.ar    1  UNL1        0.0560
      3 C          -7.3508  -14.0555   27.6933 C.ar    1  UNL1        0.0732
      4 C          -8.6278  -14.5765   27.9449 C.ar    1  UNL1        0.1151
      5 N          -9.4244  -14.0060   28.8849 N.ar    1  UNL1       -0.2248
      6 C          -9.0267  -12.9327   29.6211 C.ar    1  UNL1        0.1660
      7 N          -9.9264  -12.3715   30.5902 N.pl3   1  UNL1       -0.2908
      8 C         -11.3593  -12.2995   30.2747 C.3     1  UNL1        0.0924
      9 C         -12.1231  -11.4674   31.3158 C.3     1  UNL1        0.0252
     10 C         -11.2906  -10.2358   31.7218 C.3     1  UNL1        0.0472
     11 C          -9.9467  -10.6528   32.3754 C.3     1  UNL1        0.0252
     12 C          -9.4633  -12.0497   31.9457 C.3     1  UNL1        0.0924
     13 C         -12.0880   -9.3077   32.6584 C.3     1  UNL1        0.2054
     14 O         -12.4258   -8.0816   32.0073 O.3     1  UNL1       -0.4755
     15 C         -11.5277   -7.2434   31.3260 C.ar    1  UNL1        0.1388
     16 C         -11.7876   -5.8799   31.0898 C.ar    1  UNL1        0.0369
     17 C         -10.8556   -5.0953   30.4079 C.ar    1  UNL1        0.0033
     18 C          -9.6612   -5.6568   29.9519 C.ar    1  UNL1        0.0066
     19 C          -9.3860   -7.0165   30.1728 C.ar    1  UNL1        0.0785
     20 C         -10.3300   -7.8010   30.8610 C.ar    1  UNL1        0.0433
     21 C          -8.1206   -7.6103   29.6875 C.2     1  UNL1        0.3381
     22 O          -7.0166   -7.0558   29.9398 O.2     1  UNL1       -0.2451
     23 O          -8.1372   -8.7890   28.9462 O.3     1  UNL1       -0.4771
     24 H          -7.2767   -9.2039   28.6092 H       1  UNL1        0.2954
     25 N          -6.4656  -14.6518   26.7309 N.am    1  UNL1       -0.2766
     26 C          -6.8350  -14.9515   25.3733 C.2     1  UNL1        0.2839
     27 O          -8.0198  -14.7796   24.9807 O.2     1  UNL1       -0.2665
     28 H          -5.4806  -14.8175   27.0315 H       1  UNL1        0.1553
     29 C          -5.8514  -15.4866   24.4161 C.ar    1  UNL1        0.1946
     30 O          -5.9044  -15.2159   23.1237 O.2     1  UNL1       -0.4492
     31 C          -4.9071  -15.8357   22.5413 C.ar    1  UNL1        0.1452
     32 C          -4.5838  -15.8336   21.1888 C.ar    1  UNL1        0.0375
     33 C          -3.4596  -16.5711   20.7780 C.ar    1  UNL1        0.0031
     34 C          -2.6791  -17.2954   21.7196 C.ar    1  UNL1        0.0002
     35 C          -3.0429  -17.2700   23.0874 C.ar    1  UNL1        0.0028
     36 C          -4.1653  -16.5293   23.4582 C.ar    1  UNL1        0.0337
     37 C          -4.7477  -16.3042   24.6891 C.ar    1  UNL1        0.0202
     38 C          -4.2596  -16.8051   26.0147 C.3     1  UNL1        0.0345
     39 C          -1.4937  -18.0710   21.2742 C.ar    1  UNL1        0.0000
     40 C          -1.2724  -19.3771   21.7511 C.ar    1  UNL1        0.0000
     41 C          -0.1553  -20.1052   21.3302 C.ar    1  UNL1        0.0000
     42 C           0.7522  -19.5397   20.4319 C.ar    1  UNL1        0.0000
     43 C           0.5444  -18.2446   19.9521 C.ar    1  UNL1        0.0000
     44 C          -0.5714  -17.5123   20.3689 C.ar    1  UNL1        0.0000
     45 C          -6.0392  -10.9145   30.5001 C.3     1  UNL1        0.2526
     46 O          -7.3774  -11.2306   30.1324 O.3     1  UNL1       -0.4686
@<TRIPOS>BOND
     1    45    46    1
     2    46     1    1
     3     1     2   ar
     4     2     3   ar
     5     3    25    1
     6    25    26   am
     7    26    27    2
     8    26    29    1
     9    29    30   ar
    10    30    31   ar
    11    31    32   ar
    12    32    33   ar
    13    33    34   ar
    14    34    39    1
    15    39    40   ar
    16    40    41   ar
    17    41    42   ar
    18    42    43   ar
    19    43    44   ar
    20    34    35   ar
    21    35    36   ar
    22    36    37   ar
    23    37    38    1
    24     3     4   ar
    25     4     5   ar
    26     5     6   ar
    27     6     7    1
    28     7     8    1
    29     8     9    1
    30     9    10    1
    31    10    13    1
    32    13    14    1
    33    14    15    1
    34    15    16   ar
    35    16    17   ar
    36    17    18   ar
    37    18    19   ar
    38    19    21    1
    39    21    22    2
    40    21    23    1
    41    19    20   ar
    42    10    11    1
    43    11    12    1
    44     6     1   ar
    45    12     7    1
    46    37    29   ar
    47    20    15   ar
    48    36    31   ar
    49    44    39   ar
    50    25    28    1
    51    23    24    1
@<TRIPOS>MOLECULE
*****
 46 51 0 0 0
SMALL
GASTEIGER

@<TRIPOS>ATOM
      1 C          -7.0265  -11.7235   29.5929 C.ar    1  UNL1        0.1713
      2 C          -6.2608  -12.3926   28.6215 C.ar    1  UNL1        0.0560
      3 C          -6.8011  -13.4692   27.9092 C.ar    1  UNL1        0.0732
      4 C          -8.1035  -13.8903   28.2128 C.ar    1  UNL1        0.1151
      5 N          -8.8252  -13.2436   29.1640 N.ar    1  UNL1       -0.2248
      6 C          -8.3269  -12.1870   29.8621 C.ar    1  UNL1        0.1660
      7 N          -9.1511  -11.5415   30.8456 N.pl3   1  UNL1       -0.2908
      8 C          -9.1646  -12.0642   32.2183 C.3     1  UNL1        0.0924
      9 C         -10.2661  -11.4034   33.0608 C.3     1  UNL1        0.0252
     10 C         -11.5437  -11.2291   32.2170 C.3     1  UNL1        0.0472
     11 C         -11.2929  -10.3042   30.9967 C.3     1  UNL1        0.0252
     12 C          -9.8217  -10.2705   30.5449 C.3     1  UNL1        0.0924
     13 C         -12.7096  -10.6984   33.0733 C.3     1  UNL1        0.2054
     14 O         -13.5556  -11.7628   33.5123 O.3     1  UNL1       -0.4755
     15 C         -13.1428  -13.0791   33.7770 C.ar    1  UNL1        0.1388
     16 C         -12.5855  -13.4695   35.0097 C.ar    1  UNL1        0.0369
     17 C         -12.1948  -14.7940   35.2155 C.ar    1  UNL1        0.0033
     18 C         -12.3501  -15.7402   34.2005 C.ar    1  UNL1        0.0066
     19 C         -12.8989  -15.3690   32.9617 C.ar    1  UNL1        0.0785
     20 C         -13.2905  -14.0323   32.7616 C.ar    1  UNL1        0.0433
     21 C         -13.0612  -16.3726   31.8865 C.2     1  UNL1        0.3381
     22 O         -13.7632  -16.1137   30.8717 O.2     1  UNL1       -0.2451
     23 O         -12.4391  -17.6145   31.9859 O.3     1  UNL1       -0.4771
     24 H         -12.5437  -18.3088   31.2556 H       1  UNL1        0.2954
     25 N          -5.9937  -14.1486   26.9335 N.am    1  UNL1       -0.2766
     26 C          -6.5194  -14.7917   25.7591 C.2     1  UNL1        0.2839
     27 O          -7.7634  -14.8663   25.5741 O.2     1  UNL1       -0.2665
     28 H          -4.9596  -14.1143   27.0670 H       1  UNL1        0.1553
     29 C          -5.6255  -15.3981   24.7574 C.ar    1  UNL1        0.1946
     30 O          -5.7276  -15.1324   23.4669 O.2     1  UNL1       -0.4492
     31 C          -4.8062  -15.8219   22.8397 C.ar    1  UNL1        0.1452
     32 C          -4.5547  -15.8499   21.4723 C.ar    1  UNL1        0.0375
     33 C          -3.5059  -16.6645   21.0109 C.ar    1  UNL1        0.0031
     34 C          -2.7277  -17.4343   21.9178 C.ar    1  UNL1        0.0002
     35 C          -3.0170  -17.3760   23.3023 C.ar    1  UNL1        0.0028
     36 C          -4.0659  -16.5586   23.7235 C.ar    1  UNL1        0.0337
     37 C          -4.5667  -16.2870   24.9808 C.ar    1  UNL1        0.0202
     38 C          -4.0447  -16.8118   26.2840 C.3     1  UNL1        0.0345
     39 C          -1.6222  -18.2912   21.4191 C.ar    1  UNL1        0.0000
     40 C          -1.5079  -19.6297   21.8409 C.ar    1  UNL1        0.0000
     41 C          -0.4659  -20.4343   21.3698 C.ar    1  UNL1        0.0000
     42 C           0.4723  -19.9140   20.4758 C.ar    1  UNL1        0.0000
     43 C           0.3704  -18.5878   20.0504 C.ar    1  UNL1        0.0000
     44 C          -0.6701  -17.7788   20.5174 C.ar    1  UNL1        0.0000
     45 C          -5.6373  -10.6520   31.3783 C.3     1  UNL1        0.2526
     46 O          -6.5429  -10.5995   30.2815 O.3     1  UNL1       -0.4686
@<TRIPOS>BOND
     1    45    46    1
     2    46     1    1
     3     1     2   ar
     4     2     3   ar
     5     3    25    1
     6    25    26   am
     7    26    27    2
     8    26    29    1
     9    29    30   ar
    10    30    31   ar
    11    31    32   ar
    12    32    33   ar
    13    33    34   ar
    14    34    39    1
    15    39    40   ar
    16    40    41   ar
    17    41    42   ar
    18    42    43   ar
    19    43    44   ar
    20    34    35   ar
    21    35    36   ar
    22    36    37   ar
    23    37    38    1
    24     3     4   ar
    25     4     5   ar
    26     5     6   ar
    27     6     7    1
    28     7     8    1
    29     8     9    1
    30     9    10    1
    31    10    13    1
    32    13    14    1
    33    14    15    1
    34    15    16   ar
    35    16    17   ar
    36    17    18   ar
    37    18    19   ar
    38    19    21    1
    39    21    22    2
    40    21    23    1
    41    19    20   ar
    42    10    11    1
    43    11    12    1
    44     6     1   ar
    45    12     7    1
    46    37    29   ar
    47    20    15   ar
    48    36    31   ar
    49    44    39   ar
    50    25    28    1
    51    23    24    1
