@<TRIPOS>MOLECULE
*****
 37 41 0 0 0
SMALL
GASTEIGER

@<TRIPOS>ATOM
      1 C          -7.5901  -11.9274   29.6417 C.ar    1  UNL1        0.1317
      2 C          -6.4902  -11.0780   29.8761 C.ar    1  UNL1        0.0286
      3 C          -5.2738  -11.2847   29.2003 C.ar    1  UNL1        0.0777
      4 C          -5.1615  -12.3395   28.2846 C.ar    1  UNL1        0.2969
      5 N          -6.2433  -13.1361   28.0835 N.ar    1  UNL1       -0.1229
      6 C          -6.4123  -14.1749   27.2482 C.ar    1  UNL1        0.2751
      7 I          -4.9693  -14.8372   25.8404 I       1  UNL1        0.0389
      8 C          -7.7284  -14.6076   27.4061 C.ar    1  UNL1        0.1314
      9 N          -8.3645  -13.8347   28.3192 N.ar    1  UNL1       -0.2939
     10 C          -7.4174  -12.9607   28.7135 C.ar    1  UNL1        0.3125
     11 H          -9.2988  -13.8969   28.6231 H       1  UNL1        0.1718
     12 N         -11.1921  -11.5122   31.8743 N.3     1  UNL1       -0.2647
     13 C         -10.8632  -12.7900   31.2081 C.3     1  UNL1        0.0941
     14 C         -10.0115  -12.5418   29.9602 C.3     1  UNL1        0.1084
     15 N          -8.8465  -11.7270   30.3119 N.pl3   1  UNL1       -0.2988
     16 C          -9.0798  -10.5061   31.0870 C.3     1  UNL1        0.1084
     17 C          -9.9505  -10.8292   32.3013 C.3     1  UNL1        0.0941
     18 C         -12.0738  -11.7636   33.0324 C.3     1  UNL1        0.1199
     19 C         -12.8200  -15.2599   33.2473 C.ar    1  UNL1        0.1165
     20 N         -13.0312  -14.0557   32.6717 N.ar    1  UNL1       -0.2344
     21 C         -12.1718  -13.2356   33.3097 C.ar    1  UNL1        0.0878
     22 C         -11.4749  -13.9514   34.2644 C.ar    1  UNL1        0.0499
     23 C         -10.4510  -13.4259   35.2196 C.3     1  UNL1        0.0511
     24 N         -11.8908  -15.2269   34.2234 N.ar    1  UNL1       -0.3443
     25 H         -11.5764  -16.0188   34.8279 H       1  UNL1        0.1668
     26 C         -12.9209  -17.2614   31.7824 C.3     1  UNL1        0.0084
     27 C         -13.6080  -16.4834   32.8982 C.3     1  UNL1        0.0637
     28 C          -8.4030  -15.7072   26.6869 C.ar    1  UNL1        0.0221
     29 C          -8.7574  -16.8934   27.3418 C.ar    1  UNL1        0.0013
     30 C          -9.4139  -17.9178   26.6541 C.ar    1  UNL1       -0.0042
     31 C          -9.7473  -17.7792   25.2862 C.ar    1  UNL1       -0.0228
     32 C          -9.4050  -16.5663   24.6484 C.ar    1  UNL1       -0.0042
     33 C          -8.7501  -15.5452   25.3404 C.ar    1  UNL1        0.0013
     34 C         -10.4703  -18.8830   24.4867 C.3     1  UNL1        0.0189
     35 C         -10.0441  -18.8086   23.0042 C.3     1  UNL1        0.0044
     36 C         -11.9972  -18.6782   24.5921 C.3     1  UNL1        0.0044
     37 C         -10.1505  -20.3094   24.9956 C.3     1  UNL1        0.0044
@<TRIPOS>BOND
     1    26    27    1
     2    27    19    1
     3    19    20   ar
     4    20    21   ar
     5    21    18    1
     6    18    12    1
     7    12    13    1
     8    13    14    1
     9    14    15    1
    10    15     1    1
    11     1     2   ar
    12     2     3   ar
    13     3     4   ar
    14     4     5   ar
    15     5     6   ar
    16     6     7    1
    17     6     8   ar
    18     8    28    1
    19    28    29   ar
    20    29    30   ar
    21    30    31   ar
    22    31    34    1
    23    34    35    1
    24    34    36    1
    25    34    37    1
    26    31    32   ar
    27    32    33   ar
    28     8     9   ar
    29     9    10   ar
    30    15    16    1
    31    16    17    1
    32    21    22   ar
    33    22    23    1
    34    22    24   ar
    35    24    19   ar
    36    17    12    1
    37    10     1   ar
    38    10     5   ar
    39    33    28   ar
    40    24    25    1
    41     9    11    1
@<TRIPOS>MOLECULE
*****
 37 41 0 0 0
SMALL
GASTEIGER

@<TRIPOS>ATOM
      1 C          -8.9375   -6.1461   30.9463 C.ar    1  UNL1        0.1317
      2 C          -9.2078   -4.8308   30.5185 C.ar    1  UNL1        0.0286
      3 C         -10.5243   -4.4355   30.2190 C.ar    1  UNL1        0.0777
      4 C         -11.5713   -5.3571   30.3544 C.ar    1  UNL1        0.2969
      5 N         -11.2725   -6.6151   30.7709 N.ar    1  UNL1       -0.1229
      6 C         -12.0781   -7.6622   31.0155 C.ar    1  UNL1        0.2751
      7 I         -14.1968   -7.6034   30.9113 I       1  UNL1        0.0389
      8 C         -11.2631   -8.7000   31.4656 C.ar    1  UNL1        0.1314
      9 N          -9.9722   -8.2906   31.5092 N.ar    1  UNL1       -0.2939
     10 C         -10.0250   -7.0192   31.0654 C.ar    1  UNL1        0.3125
     11 H          -9.1817   -8.8017   31.7973 H       1  UNL1        0.1718
     12 N          -5.0816   -7.7046   31.8601 N.3     1  UNL1       -0.2647
     13 C          -6.1868   -7.8118   32.8358 C.3     1  UNL1        0.0941
     14 C          -7.1680   -6.6487   32.6663 C.3     1  UNL1        0.1084
     15 N          -7.6013   -6.5681   31.2697 N.pl3   1  UNL1       -0.2988
     16 C          -6.5654   -6.5869   30.2343 C.3     1  UNL1        0.1084
     17 C          -5.6161   -7.7595   30.4810 C.3     1  UNL1        0.0941
     18 C          -4.1072   -8.7916   32.0855 C.3     1  UNL1        0.1199
     19 C          -5.8528  -11.5156   30.5494 C.ar    1  UNL1        0.1165
     20 N          -5.6709  -10.1854   30.7026 N.ar    1  UNL1       -0.2344
     21 C          -4.6461  -10.0960   31.5743 C.ar    1  UNL1        0.0878
     22 C          -4.2426  -11.3653   31.9424 C.ar    1  UNL1        0.0499
     23 C          -3.1642  -11.7248   32.9145 C.3     1  UNL1        0.0511
     24 N          -5.0099  -12.2569   31.2960 N.ar    1  UNL1       -0.3443
     25 H          -4.9745  -13.2984   31.3685 H       1  UNL1        0.1668
     26 C          -8.2900  -11.4919   30.0788 C.3     1  UNL1        0.0084
     27 C          -6.9433  -12.1011   29.7080 C.3     1  UNL1        0.0637
     28 C         -11.6835  -10.0512   31.8888 C.ar    1  UNL1        0.0221
     29 C         -12.6498  -10.7686   31.1723 C.ar    1  UNL1        0.0013
     30 C         -13.0234  -12.0546   31.5720 C.ar    1  UNL1       -0.0042
     31 C         -12.4290  -12.6682   32.6996 C.ar    1  UNL1       -0.0228
     32 C         -11.4384  -11.9403   33.3951 C.ar    1  UNL1       -0.0042
     33 C         -11.0676  -10.6559   32.9910 C.ar    1  UNL1        0.0013
     34 C         -12.8106  -14.0845   33.1781 C.3     1  UNL1        0.0189
     35 C         -12.0988  -15.1349   32.2978 C.3     1  UNL1        0.0044
     36 C         -14.3392  -14.2714   33.0646 C.3     1  UNL1        0.0044
     37 C         -12.4110  -14.3566   34.6485 C.3     1  UNL1        0.0044
@<TRIPOS>BOND
     1    26    27    1
     2    27    19    1
     3    19    20   ar
     4    20    21   ar
     5    21    18    1
     6    18    12    1
     7    12    13    1
     8    13    14    1
     9    14    15    1
    10    15     1    1
    11     1     2   ar
    12     2     3   ar
    13     3     4   ar
    14     4     5   ar
    15     5     6   ar
    16     6     7    1
    17     6     8   ar
    18     8    28    1
    19    28    29   ar
    20    29    30   ar
    21    30    31   ar
    22    31    34    1
    23    34    35    1
    24    34    36    1
    25    34    37    1
    26    31    32   ar
    27    32    33   ar
    28     8     9   ar
    29     9    10   ar
    30    15    16    1
    31    16    17    1
    32    21    22   ar
    33    22    23    1
    34    22    24   ar
    35    24    19   ar
    36    17    12    1
    37    10     1   ar
    38    10     5   ar
    39    33    28   ar
    40    24    25    1
    41     9    11    1
@<TRIPOS>MOLECULE
*****
 37 41 0 0 0
SMALL
GASTEIGER

@<TRIPOS>ATOM
      1 C          -8.0291  -12.1842   29.5633 C.ar    1  UNL1        0.1317
      2 C          -6.9712  -11.3154   29.8984 C.ar    1  UNL1        0.0286
      3 C          -5.7046  -11.4742   29.3072 C.ar    1  UNL1        0.0777
      4 C          -5.4997  -12.5003   28.3750 C.ar    1  UNL1        0.2969
      5 N          -6.5434  -13.3168   28.0758 N.ar    1  UNL1       -0.1229
      6 C          -6.6253  -14.3359   27.2040 C.ar    1  UNL1        0.2751
      7 I          -5.0684  -14.9243   25.8875 I       1  UNL1        0.0389
      8 C          -7.9376  -14.8042   27.2551 C.ar    1  UNL1        0.1314
      9 N          -8.6572  -14.0722   28.1394 N.ar    1  UNL1       -0.2939
     10 C          -7.7638  -13.1870   28.6236 C.ar    1  UNL1        0.3125
     11 H          -9.6090  -14.1651   28.3733 H       1  UNL1        0.1718
     12 N         -11.7825  -11.8912   31.5529 N.3     1  UNL1       -0.2647
     13 C         -11.3319  -13.1782   30.9826 C.3     1  UNL1        0.0941
     14 C         -10.4216  -12.9415   29.7744 C.3     1  UNL1        0.1084
     15 N          -9.3352  -12.0324   30.1458 N.pl3   1  UNL1       -0.2988
     16 C          -9.6935  -10.7898   30.8335 C.3     1  UNL1        0.1084
     17 C         -10.6159  -11.1042   32.0115 C.3     1  UNL1        0.0941
     18 C         -12.7168  -12.1379   32.6700 C.3     1  UNL1        0.1199
     19 C         -10.6350  -13.5292   35.2308 C.ar    1  UNL1        0.1165
     20 N         -10.9112  -12.5247   34.3702 N.ar    1  UNL1       -0.2344
     21 C         -12.0427  -12.9251   33.7559 C.ar    1  UNL1        0.0878
     22 C         -12.4165  -14.1639   34.2411 C.ar    1  UNL1        0.0499
     23 C         -13.5882  -14.9877   33.8103 C.3     1  UNL1        0.0511
     24 N         -11.5227  -14.5419   35.1684 N.ar    1  UNL1       -0.3443
     25 H         -11.5072  -15.4343   35.7112 H       1  UNL1        0.1668
     26 C          -8.3871  -12.5427   35.5993 C.3     1  UNL1        0.0084
     27 C          -9.4139  -13.5535   36.0957 C.3     1  UNL1        0.0637
     28 C          -8.5303  -15.8994   26.4609 C.ar    1  UNL1        0.0221
     29 C          -8.8524  -17.1297   27.0475 C.ar    1  UNL1        0.0013
     30 C          -9.4319  -18.1503   26.2888 C.ar    1  UNL1       -0.0042
     31 C          -9.7183  -17.9643   24.9159 C.ar    1  UNL1       -0.0228
     32 C          -9.4102  -16.7087   24.3470 C.ar    1  UNL1       -0.0042
     33 C          -8.8323  -15.6915   25.1098 C.ar    1  UNL1        0.0013
     34 C         -10.3560  -19.0621   24.0394 C.3     1  UNL1        0.0189
     35 C         -10.1359  -20.4409   24.6992 C.3     1  UNL1        0.0044
     36 C          -9.6985  -19.0514   22.6422 C.3     1  UNL1        0.0044
     37 C         -11.8799  -18.8738   23.8439 C.3     1  UNL1        0.0044
@<TRIPOS>BOND
     1    26    27    1
     2    27    19    1
     3    19    20   ar
     4    20    21   ar
     5    21    18    1
     6    18    12    1
     7    12    13    1
     8    13    14    1
     9    14    15    1
    10    15     1    1
    11     1     2   ar
    12     2     3   ar
    13     3     4   ar
    14     4     5   ar
    15     5     6   ar
    16     6     7    1
    17     6     8   ar
    18     8    28    1
    19    28    29   ar
    20    29    30   ar
    21    30    31   ar
    22    31    34    1
    23    34    35    1
    24    34    36    1
    25    34    37    1
    26    31    32   ar
    27    32    33   ar
    28     8     9   ar
    29     9    10   ar
    30    15    16    1
    31    16    17    1
    32    21    22   ar
    33    22    23    1
    34    22    24   ar
    35    24    19   ar
    36    17    12    1
    37    10     1   ar
    38    10     5   ar
    39    33    28   ar
    40    24    25    1
    41     9    11    1
@<TRIPOS>MOLECULE
*****
 37 41 0 0 0
SMALL
GASTEIGER

@<TRIPOS>ATOM
      1 C          -5.7203  -12.0535   28.0782 C.ar    1  UNL1        0.1317
      2 C          -4.6893  -11.1293   27.8157 C.ar    1  UNL1        0.0286
      3 C          -4.6169   -9.9204   28.5315 C.ar    1  UNL1        0.0777
      4 C          -5.5747   -9.6403   29.5153 C.ar    1  UNL1        0.2969
      5 N          -6.5525  -10.5558   29.7417 N.ar    1  UNL1       -0.1229
      6 C          -7.5538  -10.5518   30.6376 C.ar    1  UNL1        0.2751
      7 I          -7.8410   -9.0591   32.1182 I       1  UNL1        0.0389
      8 C          -8.2415  -11.7541   30.4771 C.ar    1  UNL1        0.1314
      9 N          -7.6609  -12.4940   29.5018 N.ar    1  UNL1       -0.2939
     10 C          -6.6447  -11.7187   29.0745 C.ar    1  UNL1        0.3125
     11 H          -7.9204  -13.3878   29.1808 H       1  UNL1        0.1718
     12 N          -6.1550  -15.5910   25.7482 N.3     1  UNL1       -0.2647
     13 C          -7.2830  -15.0775   26.5536 C.3     1  UNL1        0.0941
     14 C          -6.7668  -14.3250   27.7831 C.3     1  UNL1        0.1084
     15 N          -5.8063  -13.3007   27.3675 N.pl3   1  UNL1       -0.2988
     16 C          -4.7290  -13.7064   26.4617 C.3     1  UNL1        0.1084
     17 C          -5.3183  -14.4663   25.2732 C.3     1  UNL1        0.0941
     18 C          -6.6701  -16.3757   24.6078 C.3     1  UNL1        0.1199
     19 C          -3.7856  -17.0100   22.5818 C.ar    1  UNL1        0.1165
     20 N          -4.4354  -17.1416   23.7593 N.ar    1  UNL1       -0.2344
     21 C          -5.6149  -16.5225   23.5503 C.ar    1  UNL1        0.0878
     22 C          -5.6480  -16.0165   22.2648 C.ar    1  UNL1        0.0499
     23 C          -6.7508  -15.2296   21.6311 C.3     1  UNL1        0.0511
     24 N          -4.4899  -16.3235   21.6598 N.ar    1  UNL1       -0.3443
     25 H          -4.1909  -16.0705   20.6913 H       1  UNL1        0.1668
     26 C          -1.7151  -16.6996   21.2482 C.3     1  UNL1        0.0084
     27 C          -2.3877  -17.4962   22.3596 C.3     1  UNL1        0.0637
     28 C          -9.4070  -12.2303   31.2493 C.ar    1  UNL1        0.0221
     29 C         -10.5246  -12.7824   30.6108 C.ar    1  UNL1        0.0013
     30 C         -11.6121  -13.2481   31.3551 C.ar    1  UNL1       -0.0042
     31 C         -11.6076  -13.1853   32.7684 C.ar    1  UNL1       -0.0228
     32 C         -10.4618  -12.6489   33.3964 C.ar    1  UNL1       -0.0042
     33 C          -9.3771  -12.1860   32.6483 C.ar    1  UNL1        0.0013
     34 C         -12.7852  -13.6858   33.6305 C.3     1  UNL1        0.0189
     35 C         -13.5441  -14.7961   32.8713 C.3     1  UNL1        0.0044
     36 C         -13.7467  -12.5125   33.9189 C.3     1  UNL1        0.0044
     37 C         -12.3355  -14.2712   34.9909 C.3     1  UNL1        0.0044
@<TRIPOS>BOND
     1    26    27    1
     2    27    19    1
     3    19    20   ar
     4    20    21   ar
     5    21    18    1
     6    18    12    1
     7    12    13    1
     8    13    14    1
     9    14    15    1
    10    15     1    1
    11     1     2   ar
    12     2     3   ar
    13     3     4   ar
    14     4     5   ar
    15     5     6   ar
    16     6     7    1
    17     6     8   ar
    18     8    28    1
    19    28    29   ar
    20    29    30   ar
    21    30    31   ar
    22    31    34    1
    23    34    35    1
    24    34    36    1
    25    34    37    1
    26    31    32   ar
    27    32    33   ar
    28     8     9   ar
    29     9    10   ar
    30    15    16    1
    31    16    17    1
    32    21    22   ar
    33    22    23    1
    34    22    24   ar
    35    24    19   ar
    36    17    12    1
    37    10     1   ar
    38    10     5   ar
    39    33    28   ar
    40    24    25    1
    41     9    11    1
@<TRIPOS>MOLECULE
*****
 37 41 0 0 0
SMALL
GASTEIGER

@<TRIPOS>ATOM
      1 C          -7.5619  -12.3868   29.2909 C.ar    1  UNL1        0.1317
      2 C          -8.7331  -12.3324   30.0729 C.ar    1  UNL1        0.0286
      3 C          -9.7608  -13.2741   29.8831 C.ar    1  UNL1        0.0777
      4 C          -9.6120  -14.2747   28.9133 C.ar    1  UNL1        0.2969
      5 N          -8.4686  -14.2964   28.1801 N.ar    1  UNL1       -0.1229
      6 C          -8.0640  -15.1554   27.2294 C.ar    1  UNL1        0.2751
      7 I          -9.1282  -16.8956   26.6448 I       1  UNL1        0.0389
      8 C          -6.7907  -14.7470   26.8343 C.ar    1  UNL1        0.1314
      9 N          -6.4123  -13.6565   27.5437 N.ar    1  UNL1       -0.2939
     10 C          -7.4705  -13.4110   28.3413 C.ar    1  UNL1        0.3125
     11 H          -5.5638  -13.1602   27.4894 H       1  UNL1        0.1718
     12 N          -4.6273   -9.3604   29.8914 N.3     1  UNL1       -0.2647
     13 C          -5.4050   -9.4153   28.6357 C.3     1  UNL1        0.0941
     14 C          -5.8137  -10.8565   28.3192 C.3     1  UNL1        0.1084
     15 N          -6.4936  -11.4421   29.4766 N.pl3   1  UNL1       -0.2988
     16 C          -5.8439  -11.3145   30.7832 C.3     1  UNL1        0.1084
     17 C          -5.4486   -9.8566   31.0182 C.3     1  UNL1        0.0941
     18 C          -4.1792   -7.9756   30.1429 C.3     1  UNL1        0.1199
     19 C          -7.0335   -5.9208   30.8195 C.ar    1  UNL1        0.1165
     20 N          -6.2666   -6.5970   29.9360 N.ar    1  UNL1       -0.2344
     21 C          -5.3034   -7.1514   30.6997 C.ar    1  UNL1        0.0878
     22 C          -5.4951   -6.7874   32.0189 C.ar    1  UNL1        0.0499
     23 C          -4.6397   -7.1512   33.1906 C.3     1  UNL1        0.0511
     24 N          -6.5855   -6.0078   32.0881 N.ar    1  UNL1       -0.3443
     25 H          -6.9898   -5.5524   32.9369 H       1  UNL1        0.1668
     26 C          -9.3213   -5.9600   29.8571 C.3     1  UNL1        0.0084
     27 C          -8.2055   -5.0836   30.4132 C.3     1  UNL1        0.0637
     28 C          -5.9149  -15.3866   25.8316 C.ar    1  UNL1        0.0221
     29 C          -5.0144  -16.3966   26.1930 C.ar    1  UNL1        0.0013
     30 C          -4.2062  -17.0078   25.2305 C.ar    1  UNL1       -0.0042
     31 C          -4.2846  -16.6322   23.8688 C.ar    1  UNL1       -0.0228
     32 C          -5.2162  -15.6300   23.5186 C.ar    1  UNL1       -0.0042
     33 C          -6.0225  -15.0231   24.4840 C.ar    1  UNL1        0.0013
     34 C          -3.4119  -17.2781   22.7726 C.3     1  UNL1        0.0189
     35 C          -2.9913  -16.2017   21.7481 C.3     1  UNL1        0.0044
     36 C          -4.2201  -18.3809   22.0550 C.3     1  UNL1        0.0044
     37 C          -2.1209  -17.9266   23.3282 C.3     1  UNL1        0.0044
@<TRIPOS>BOND
     1    26    27    1
     2    27    19    1
     3    19    20   ar
     4    20    21   ar
     5    21    18    1
     6    18    12    1
     7    12    13    1
     8    13    14    1
     9    14    15    1
    10    15     1    1
    11     1     2   ar
    12     2     3   ar
    13     3     4   ar
    14     4     5   ar
    15     5     6   ar
    16     6     7    1
    17     6     8   ar
    18     8    28    1
    19    28    29   ar
    20    29    30   ar
    21    30    31   ar
    22    31    34    1
    23    34    35    1
    24    34    36    1
    25    34    37    1
    26    31    32   ar
    27    32    33   ar
    28     8     9   ar
    29     9    10   ar
    30    15    16    1
    31    16    17    1
    32    21    22   ar
    33    22    23    1
    34    22    24   ar
    35    24    19   ar
    36    17    12    1
    37    10     1   ar
    38    10     5   ar
    39    33    28   ar
    40    24    25    1
    41     9    11    1
@<TRIPOS>MOLECULE
*****
 37 41 0 0 0
SMALL
GASTEIGER

@<TRIPOS>ATOM
      1 C          -6.0176   -9.1695   29.3760 C.ar    1  UNL1        0.1317
      2 C          -4.9198   -9.2030   28.4928 C.ar    1  UNL1        0.0286
      3 C          -4.5624  -10.3999   27.8457 C.ar    1  UNL1        0.0777
      4 C          -5.3094  -11.5624   28.0790 C.ar    1  UNL1        0.2969
      5 N          -6.3616  -11.4912   28.9352 N.ar    1  UNL1       -0.1229
      6 C          -7.2490  -12.4321   29.2991 C.ar    1  UNL1        0.2751
      7 I          -7.3183  -14.3971   28.5010 I       1  UNL1        0.0389
      8 C          -8.1521  -11.8189   30.1667 C.ar    1  UNL1        0.1314
      9 N          -7.8302  -10.5122   30.3237 N.ar    1  UNL1       -0.2939
     10 C          -6.7263  -10.3616   29.5653 C.ar    1  UNL1        0.3125
     11 H          -8.2937   -9.8326   30.8646 H       1  UNL1        0.1718
     12 N          -7.4826   -5.6358   31.2464 N.3     1  UNL1       -0.2647
     13 C          -7.3599   -5.7127   29.7754 C.3     1  UNL1        0.0941
     14 C          -6.2237   -6.6596   29.3796 C.3     1  UNL1        0.1084
     15 N          -6.4082   -7.9544   30.0385 N.pl3   1  UNL1       -0.2988
     16 C          -6.6640   -7.9530   31.4808 C.3     1  UNL1        0.1084
     17 C          -7.7933   -6.9730   31.7995 C.3     1  UNL1        0.0941
     18 C          -8.5329   -4.6635   31.6113 C.3     1  UNL1        0.1199
     19 C         -11.6674   -6.3170   31.0938 C.ar    1  UNL1        0.1165
     20 N         -10.5336   -6.1658   31.8132 N.ar    1  UNL1       -0.2344
     21 C          -9.8833   -5.1637   31.1878 C.ar    1  UNL1        0.0878
     22 C         -10.6233   -4.7433   30.0991 C.ar    1  UNL1        0.0499
     23 C         -10.2563   -3.6810   29.1123 C.3     1  UNL1        0.0511
     24 N         -11.7458   -5.4770   30.0422 N.ar    1  UNL1       -0.3443
     25 H         -12.5068   -5.4222   29.3286 H       1  UNL1        0.1668
     26 C         -12.0354   -8.7537   31.3921 C.3     1  UNL1        0.0084
     27 C         -12.6853   -7.3753   31.3830 C.3     1  UNL1        0.0637
     28 C          -9.3285  -12.4318   30.8163 C.ar    1  UNL1        0.0221
     29 C         -10.2368  -13.2101   30.0878 C.ar    1  UNL1        0.0013
     30 C         -11.3346  -13.8012   30.7192 C.ar    1  UNL1       -0.0042
     31 C         -11.5499  -13.6395   32.1081 C.ar    1  UNL1       -0.0228
     32 C         -10.6100  -12.8725   32.8315 C.ar    1  UNL1       -0.0042
     33 C          -9.5139  -12.2849   32.1961 C.ar    1  UNL1        0.0013
     34 C         -12.7475  -14.2720   32.8469 C.3     1  UNL1        0.0189
     35 C         -13.9708  -13.3353   32.7420 C.3     1  UNL1        0.0044
     36 C         -12.3847  -14.4770   34.3338 C.3     1  UNL1        0.0044
     37 C         -13.1594  -15.6476   32.2690 C.3     1  UNL1        0.0044
@<TRIPOS>BOND
     1    26    27    1
     2    27    19    1
     3    19    20   ar
     4    20    21   ar
     5    21    18    1
     6    18    12    1
     7    12    13    1
     8    13    14    1
     9    14    15    1
    10    15     1    1
    11     1     2   ar
    12     2     3   ar
    13     3     4   ar
    14     4     5   ar
    15     5     6   ar
    16     6     7    1
    17     6     8   ar
    18     8    28    1
    19    28    29   ar
    20    29    30   ar
    21    30    31   ar
    22    31    34    1
    23    34    35    1
    24    34    36    1
    25    34    37    1
    26    31    32   ar
    27    32    33   ar
    28     8     9   ar
    29     9    10   ar
    30    15    16    1
    31    16    17    1
    32    21    22   ar
    33    22    23    1
    34    22    24   ar
    35    24    19   ar
    36    17    12    1
    37    10     1   ar
    38    10     5   ar
    39    33    28   ar
    40    24    25    1
    41     9    11    1
@<TRIPOS>MOLECULE
*****
 37 41 0 0 0
SMALL
GASTEIGER

@<TRIPOS>ATOM
      1 C          -7.6006  -11.9359   29.5983 C.ar    1  UNL1        0.1317
      2 C          -6.4445  -11.1951   29.9157 C.ar    1  UNL1        0.0286
      3 C          -5.2058  -11.5244   29.3359 C.ar    1  UNL1        0.0777
      4 C          -5.1268  -12.5929   28.4327 C.ar    1  UNL1        0.2969
      5 N          -6.2624  -13.2827   28.1497 N.ar    1  UNL1       -0.1229
      6 C          -6.4672  -14.3074   27.3051 C.ar    1  UNL1        0.2751
      7 I          -4.9919  -15.1184   26.0133 I       1  UNL1        0.0389
      8 C          -7.8273  -14.6092   27.3616 C.ar    1  UNL1        0.1314
      9 N          -8.4533  -13.7705   28.2221 N.ar    1  UNL1       -0.2939
     10 C          -7.4587  -12.9890   28.6872 C.ar    1  UNL1        0.3125
     11 H          -9.4097  -13.7393   28.4533 H       1  UNL1        0.1718
     12 N         -11.3261  -10.6546   31.2141 N.3     1  UNL1       -0.2647
     13 C         -10.0640  -10.4000   31.9400 C.3     1  UNL1        0.0941
     14 C          -9.0320  -11.4850   31.6207 C.3     1  UNL1        0.1084
     15 N          -8.8792  -11.6090   30.1695 N.pl3   1  UNL1       -0.2988
     16 C         -10.0974  -11.7359   29.3660 C.3     1  UNL1        0.1084
     17 C         -11.0838  -10.6343   29.7541 C.3     1  UNL1        0.0941
     18 C         -12.3332   -9.6416   31.5898 C.3     1  UNL1        0.1199
     19 C         -10.7949   -6.7218   30.1983 C.ar    1  UNL1        0.1165
     20 N         -10.8216   -8.0638   30.3543 N.ar    1  UNL1       -0.2344
     21 C         -11.9132   -8.2807   31.1156 C.ar    1  UNL1        0.0878
     22 C         -12.5113   -7.0722   31.4179 C.ar    1  UNL1        0.0499
     23 C         -13.7233   -6.8503   32.2658 C.3     1  UNL1        0.0511
     24 N         -11.7993   -6.0919   30.8401 N.ar    1  UNL1       -0.3443
     25 H         -11.9741   -5.0633   30.8909 H       1  UNL1        0.1668
     26 C          -8.4484   -5.9219   30.3241 C.3     1  UNL1        0.0084
     27 C          -9.7048   -6.0045   29.4656 C.3     1  UNL1        0.0637
     28 C          -8.5486  -15.6444   26.5938 C.ar    1  UNL1        0.0221
     29 C          -8.9581  -15.4162   25.2740 C.ar    1  UNL1        0.0013
     30 C          -9.6216  -16.4120   24.5520 C.ar    1  UNL1       -0.0042
     31 C          -9.8856  -17.6764   25.1290 C.ar    1  UNL1       -0.0228
     32 C          -9.4431  -17.8977   26.4520 C.ar    1  UNL1       -0.0042
     33 C          -8.7793  -16.8998   27.1689 C.ar    1  UNL1        0.0013
     34 C         -10.6155  -18.8046   24.3709 C.3     1  UNL1        0.0189
     35 C         -10.2019  -20.1716   24.9583 C.3     1  UNL1        0.0044
     36 C         -10.2320  -18.7516   22.8760 C.3     1  UNL1        0.0044
     37 C         -12.1570  -18.7007   24.4653 C.3     1  UNL1        0.0044
@<TRIPOS>BOND
     1    26    27    1
     2    27    19    1
     3    19    20   ar
     4    20    21   ar
     5    21    18    1
     6    18    12    1
     7    12    13    1
     8    13    14    1
     9    14    15    1
    10    15     1    1
    11     1     2   ar
    12     2     3   ar
    13     3     4   ar
    14     4     5   ar
    15     5     6   ar
    16     6     7    1
    17     6     8   ar
    18     8    28    1
    19    28    29   ar
    20    29    30   ar
    21    30    31   ar
    22    31    34    1
    23    34    35    1
    24    34    36    1
    25    34    37    1
    26    31    32   ar
    27    32    33   ar
    28     8     9   ar
    29     9    10   ar
    30    15    16    1
    31    16    17    1
    32    21    22   ar
    33    22    23    1
    34    22    24   ar
    35    24    19   ar
    36    17    12    1
    37    10     1   ar
    38    10     5   ar
    39    33    28   ar
    40    24    25    1
    41     9    11    1
