@<TRIPOS>MOLECULE
*****
 39 43 0 0 0
SMALL
GASTEIGER

@<TRIPOS>ATOM
      1 C          -9.2545  -12.9711   29.2257 C.3     1  UNL1        0.1332
      2 N          -9.4488  -12.2031   30.4557 N.ar    1  UNL1       -0.2977
      3 C         -10.4771  -12.2776   31.3496 C.ar    1  UNL1        0.2018
      4 N         -10.3822  -11.3860   32.3695 N.ar    1  UNL1       -0.2135
      5 C          -9.2246  -10.7538   32.1115 C.ar    1  UNL1        0.0999
      6 C          -8.6173   -9.7536   32.8814 C.ar    1  UNL1        0.0282
      7 C          -7.3638   -9.2433   32.4561 C.ar    1  UNL1        0.0888
      8 C          -6.7867   -9.7892   31.2856 C.ar    1  UNL1        0.1401
      9 C          -7.4123  -10.7617   30.5409 C.ar    1  UNL1        0.0327
     10 C          -8.6520  -11.2463   30.9687 C.ar    1  UNL1        0.0789
     11 C          -6.5686  -11.1254   29.3695 C.3     1  UNL1        0.0709
     12 C          -5.3001  -10.2313   29.5695 C.3     1  UNL1        0.1375
     13 C          -4.0508  -11.0876   29.8171 C.3     1  UNL1        0.0439
     14 C          -5.0784   -9.2946   28.3743 C.3     1  UNL1        0.0439
     15 O          -5.5687   -9.4491   30.7351 O.3     1  UNL1       -0.4824
     16 C          -6.6714   -8.1826   33.2233 C.2     1  UNL1        0.2525
     17 O          -5.6775   -8.4845   33.9367 O.2     1  UNL1       -0.2697
     18 N          -7.1286   -6.8209   33.2125 N.am    1  UNL1       -0.2803
     19 H          -6.9887   -6.2583   34.0822 H       1  UNL1        0.1552
     20 C          -7.7010   -6.1666   32.0657 C.ar    1  UNL1        0.0505
     21 C          -6.8579   -5.5211   31.1511 C.ar    1  UNL1        0.0147
     22 C          -7.3893   -4.8884   30.0255 C.ar    1  UNL1        0.0012
     23 C          -8.7679   -4.8943   29.8012 C.ar    1  UNL1        0.0039
     24 C          -9.6324   -5.5305   30.7084 C.ar    1  UNL1        0.0726
     25 C          -9.0866   -6.1952   31.8203 C.ar    1  UNL1        0.0185
     26 C         -11.1163   -5.5867   30.4456 C.3     1  UNL1        0.4186
     27 F         -11.8281   -5.5652   31.6325 F       1  UNL1       -0.1659
     28 F         -11.4440   -6.7476   29.7662 F       1  UNL1       -0.1659
     29 F         -11.4846   -4.4966   29.6797 F       1  UNL1       -0.1659
     30 N         -11.5607  -13.2148   31.2715 N.pl3   1  UNL1       -0.2814
     31 H         -11.9956  -13.3732   30.3349 H       1  UNL1        0.1551
     32 C         -12.1205  -13.9055   32.4004 C.ar    1  UNL1        0.0889
     33 C         -12.1517  -15.3102   32.3878 C.ar    1  UNL1        0.1543
     34 F         -11.6468  -15.9951   31.3308 F       1  UNL1       -0.2028
     35 C         -12.6765  -16.0161   33.4735 C.ar    1  UNL1        0.0310
     36 C         -13.1897  -15.3285   34.5740 C.ar    1  UNL1        0.0033
     37 C         -13.1921  -13.9324   34.5868 C.ar    1  UNL1        0.0128
     38 C         -12.6698  -13.2128   33.5050 C.ar    1  UNL1        0.0733
     39 CL        -12.7940  -11.4575   33.5448 Cl      1  UNL1       -0.0809
@<TRIPOS>BOND
     1     1     2    1
     2     2     3   ar
     3     3    30    1
     4    30    32    1
     5    32    33   ar
     6    33    34    1
     7    33    35   ar
     8    35    36   ar
     9    36    37   ar
    10    37    38   ar
    11    38    39    1
    12     3     4   ar
    13     4     5   ar
    14     5     6   ar
    15     6     7   ar
    16     7    16    1
    17    16    17    2
    18    16    18   am
    19    18    20    1
    20    20    21   ar
    21    21    22   ar
    22    22    23   ar
    23    23    24   ar
    24    24    26    1
    25    26    27    1
    26    26    28    1
    27    26    29    1
    28    24    25   ar
    29     7     8   ar
    30     8     9   ar
    31     9    10   ar
    32     9    11    1
    33    11    12    1
    34    12    13    1
    35    12    14    1
    36    12    15    1
    37    10     2   ar
    38    38    32   ar
    39    10     5   ar
    40    25    20   ar
    41    15     8    1
    42    30    31    1
    43    18    19    1
@<TRIPOS>MOLECULE
*****
 39 43 0 0 0
SMALL
GASTEIGER

@<TRIPOS>ATOM
      1 C          -9.2129  -13.0392   29.4451 C.3     1  UNL1        0.1332
      2 N          -9.3674  -12.2798   30.6861 N.ar    1  UNL1       -0.2977
      3 C         -10.3288  -12.4082   31.6459 C.ar    1  UNL1        0.2018
      4 N         -10.2159  -11.5102   32.6582 N.ar    1  UNL1       -0.2135
      5 C          -9.1142  -10.8162   32.3249 C.ar    1  UNL1        0.0999
      6 C          -8.5131   -9.7823   33.0541 C.ar    1  UNL1        0.0282
      7 C          -7.3202   -9.2052   32.5475 C.ar    1  UNL1        0.0888
      8 C          -6.7926   -9.7217   31.3408 C.ar    1  UNL1        0.1401
      9 C          -7.4118  -10.7289   30.6381 C.ar    1  UNL1        0.0327
     10 C          -8.5921  -11.2795   31.1463 C.ar    1  UNL1        0.0789
     11 C          -6.6286  -11.0488   29.4131 C.3     1  UNL1        0.0709
     12 C          -5.4007  -10.0861   29.5297 C.3     1  UNL1        0.1375
     13 C          -4.0926  -10.8720   29.6934 C.3     1  UNL1        0.0439
     14 C          -5.3101   -9.1418   28.3235 C.3     1  UNL1        0.0439
     15 O          -5.6342   -9.3168   30.7114 O.3     1  UNL1       -0.4824
     16 C          -6.6379   -8.1062   33.2683 C.2     1  UNL1        0.2525
     17 O          -5.6334   -8.3662   33.9834 O.2     1  UNL1       -0.2697
     18 N          -7.1163   -6.7529   33.2110 N.am    1  UNL1       -0.2803
     19 H          -6.9777   -6.1562   34.0579 H       1  UNL1        0.1552
     20 C          -7.7084   -6.1507   32.0459 C.ar    1  UNL1        0.0505
     21 C          -6.8811   -5.5514   31.0866 C.ar    1  UNL1        0.0147
     22 C          -7.4319   -4.9699   29.9429 C.ar    1  UNL1        0.0012
     23 C          -8.8144   -4.9813   29.7449 C.ar    1  UNL1        0.0039
     24 C          -9.6634   -5.5716   30.6968 C.ar    1  UNL1        0.0726
     25 C          -9.0985   -6.1858   31.8281 C.ar    1  UNL1        0.0185
     26 C         -11.1521   -5.6347   30.4647 C.3     1  UNL1        0.4186
     27 F         -11.4972   -6.7942   29.7919 F       1  UNL1       -0.1659
     28 F         -11.5702   -4.5545   29.7065 F       1  UNL1       -0.1659
     29 F         -11.8043   -5.6099   31.6832 F       1  UNL1       -0.1659
     30 N         -11.3623  -13.4036   31.6386 N.pl3   1  UNL1       -0.2814
     31 H         -11.7870  -13.6518   30.7170 H       1  UNL1        0.1551
     32 C         -11.8870  -14.0386   32.8159 C.ar    1  UNL1        0.0889
     33 C         -11.2822  -13.7724   34.0560 C.ar    1  UNL1        0.1543
     34 F         -10.2309  -12.9181   34.1336 F       1  UNL1       -0.2028
     35 C         -11.7735  -14.3615   35.2239 C.ar    1  UNL1        0.0310
     36 C         -12.8611  -15.2338   35.1644 C.ar    1  UNL1        0.0033
     37 C         -13.4528  -15.5303   33.9351 C.ar    1  UNL1        0.0128
     38 C         -12.9699  -14.9472   32.7570 C.ar    1  UNL1        0.0733
     39 CL        -13.6994  -15.4408   31.2331 Cl      1  UNL1       -0.0809
@<TRIPOS>BOND
     1     1     2    1
     2     2     3   ar
     3     3    30    1
     4    30    32    1
     5    32    33   ar
     6    33    34    1
     7    33    35   ar
     8    35    36   ar
     9    36    37   ar
    10    37    38   ar
    11    38    39    1
    12     3     4   ar
    13     4     5   ar
    14     5     6   ar
    15     6     7   ar
    16     7    16    1
    17    16    17    2
    18    16    18   am
    19    18    20    1
    20    20    21   ar
    21    21    22   ar
    22    22    23   ar
    23    23    24   ar
    24    24    26    1
    25    26    27    1
    26    26    28    1
    27    26    29    1
    28    24    25   ar
    29     7     8   ar
    30     8     9   ar
    31     9    10   ar
    32     9    11    1
    33    11    12    1
    34    12    13    1
    35    12    14    1
    36    12    15    1
    37    10     2   ar
    38    38    32   ar
    39    10     5   ar
    40    25    20   ar
    41    15     8    1
    42    30    31    1
    43    18    19    1
@<TRIPOS>MOLECULE
*****
 39 43 0 0 0
SMALL
GASTEIGER

@<TRIPOS>ATOM
      1 C         -10.3454  -12.6843   30.9258 C.3     1  UNL1        0.1332
      2 N         -10.1645  -11.6980   31.9911 N.ar    1  UNL1       -0.2977
      3 C         -10.9797  -11.4370   33.0538 C.ar    1  UNL1        0.2018
      4 N         -10.5464  -10.4177   33.8395 N.ar    1  UNL1       -0.2135
      5 C          -9.3929  -10.0539   33.2535 C.ar    1  UNL1        0.0999
      6 C          -8.5018   -9.0624   33.6834 C.ar    1  UNL1        0.0282
      7 C          -7.3081   -8.8619   32.9434 C.ar    1  UNL1        0.0888
      8 C          -7.0751   -9.6908   31.8211 C.ar    1  UNL1        0.1401
      9 C          -7.9746  -10.6480   31.4132 C.ar    1  UNL1        0.0327
     10 C          -9.1508  -10.8255   32.1479 C.ar    1  UNL1        0.0789
     11 C          -7.4583  -11.3478   30.2049 C.3     1  UNL1        0.0709
     12 C          -6.0637  -10.6726   29.9870 C.3     1  UNL1        0.1375
     13 C          -4.9231  -11.6831   30.1696 C.3     1  UNL1        0.0439
     14 C          -5.9715  -10.0051   28.6083 C.3     1  UNL1        0.0439
     15 O          -5.9663   -9.6702   31.0011 O.3     1  UNL1       -0.4824
     16 C          -6.3269   -7.8273   33.3431 C.2     1  UNL1        0.2525
     17 O          -5.2624   -8.1755   33.9208 O.2     1  UNL1       -0.2697
     18 N          -6.5741   -6.4284   33.1299 N.am    1  UNL1       -0.2803
     19 H          -6.1788   -5.7572   33.8268 H       1  UNL1        0.1552
     20 C          -7.2682   -5.8921   31.9892 C.ar    1  UNL1        0.0505
     21 C          -6.5309   -5.3322   30.9371 C.ar    1  UNL1        0.0147
     22 C          -7.1817   -4.8150   29.8153 C.ar    1  UNL1        0.0012
     23 C          -8.5754   -4.8520   29.7320 C.ar    1  UNL1        0.0039
     24 C          -9.3350   -5.4035   30.7780 C.ar    1  UNL1        0.0726
     25 C          -8.6707   -5.9538   31.8880 C.ar    1  UNL1        0.0185
     26 C         -10.8365   -5.4951   30.6721 C.3     1  UNL1        0.4186
     27 F         -11.4340   -5.2244   31.8910 F       1  UNL1       -0.1659
     28 F         -11.2174   -6.7661   30.2769 F       1  UNL1       -0.1659
     29 F         -11.2837   -4.5794   29.7381 F       1  UNL1       -0.1659
     30 N         -12.1759  -12.1663   33.3640 N.pl3   1  UNL1       -0.2814
     31 H         -12.9655  -11.6369   33.7971 H       1  UNL1        0.1551
     32 C         -12.3385  -13.5807   33.1697 C.ar    1  UNL1        0.0889
     33 C         -13.2358  -14.0308   32.1865 C.ar    1  UNL1        0.1543
     34 F         -13.9217  -13.1388   31.4283 F       1  UNL1       -0.2028
     35 C         -13.4100  -15.3986   31.9604 C.ar    1  UNL1        0.0310
     36 C         -12.7044  -16.3301   32.7230 C.ar    1  UNL1        0.0033
     37 C         -11.8319  -15.8973   33.7233 C.ar    1  UNL1        0.0128
     38 C         -11.6485  -14.5294   33.9607 C.ar    1  UNL1        0.0733
     39 CL        -10.6097  -14.0567   35.3007 Cl      1  UNL1       -0.0809
@<TRIPOS>BOND
     1     1     2    1
     2     2     3   ar
     3     3    30    1
     4    30    32    1
     5    32    33   ar
     6    33    34    1
     7    33    35   ar
     8    35    36   ar
     9    36    37   ar
    10    37    38   ar
    11    38    39    1
    12     3     4   ar
    13     4     5   ar
    14     5     6   ar
    15     6     7   ar
    16     7    16    1
    17    16    17    2
    18    16    18   am
    19    18    20    1
    20    20    21   ar
    21    21    22   ar
    22    22    23   ar
    23    23    24   ar
    24    24    26    1
    25    26    27    1
    26    26    28    1
    27    26    29    1
    28    24    25   ar
    29     7     8   ar
    30     8     9   ar
    31     9    10   ar
    32     9    11    1
    33    11    12    1
    34    12    13    1
    35    12    14    1
    36    12    15    1
    37    10     2   ar
    38    38    32   ar
    39    10     5   ar
    40    25    20   ar
    41    15     8    1
    42    30    31    1
    43    18    19    1
@<TRIPOS>MOLECULE
*****
 39 43 0 0 0
SMALL
GASTEIGER

@<TRIPOS>ATOM
      1 C          -5.7450  -11.7131   29.0375 C.3     1  UNL1        0.1332
      2 N          -7.0998  -12.2400   29.2040 N.ar    1  UNL1       -0.2977
      3 C          -7.6136  -13.4198   28.7501 C.ar    1  UNL1        0.2018
      4 N          -8.9308  -13.5890   29.0336 N.ar    1  UNL1       -0.2135
      5 C          -9.2366  -12.4768   29.7234 C.ar    1  UNL1        0.0999
      6 C         -10.4710  -12.1520   30.3002 C.ar    1  UNL1        0.0282
      7 C         -10.5757  -10.9407   31.0313 C.ar    1  UNL1        0.0888
      8 C          -9.4184  -10.1365   31.1538 C.ar    1  UNL1        0.1401
      9 C          -8.2220  -10.4734   30.5649 C.ar    1  UNL1        0.0327
     10 C          -8.1389  -11.6657   29.8394 C.ar    1  UNL1        0.0789
     11 C          -7.1992   -9.4332   30.8620 C.3     1  UNL1        0.0709
     12 C          -7.9822   -8.4335   31.7762 C.3     1  UNL1        0.1375
     13 C          -7.3857   -8.3898   33.1896 C.3     1  UNL1        0.0439
     14 C          -8.0188   -7.0253   31.1672 C.3     1  UNL1        0.0439
     15 O          -9.3134   -8.9487   31.8468 O.3     1  UNL1       -0.4824
     16 C         -11.8535  -10.5377   31.6619 C.2     1  UNL1        0.2525
     17 O         -12.5690   -9.6629   31.1044 O.2     1  UNL1       -0.2697
     18 N         -12.2820  -11.0854   32.9188 N.am    1  UNL1       -0.2803
     19 H         -12.8407  -10.4665   33.5492 H       1  UNL1        0.1552
     20 C         -12.0510  -12.4442   33.3323 C.ar    1  UNL1        0.0505
     21 C         -11.0729  -12.7111   34.2998 C.ar    1  UNL1        0.0147
     22 C         -10.8381  -14.0204   34.7244 C.ar    1  UNL1        0.0012
     23 C         -11.5778  -15.0766   34.1878 C.ar    1  UNL1        0.0039
     24 C         -12.5595  -14.8326   33.2122 C.ar    1  UNL1        0.0726
     25 C         -12.8142  -13.5081   32.8158 C.ar    1  UNL1        0.0185
     26 C         -13.3984  -15.9609   32.6670 C.3     1  UNL1        0.4186
     27 F         -12.6597  -17.1285   32.5835 F       1  UNL1       -0.1659
     28 F         -13.8618  -15.6512   31.3997 F       1  UNL1       -0.1659
     29 F         -14.4788  -16.1704   33.5035 F       1  UNL1       -0.1659
     30 N          -6.8600  -14.4268   28.0594 N.pl3   1  UNL1       -0.2814
     31 H          -5.8850  -14.6098   28.3870 H       1  UNL1        0.1551
     32 C          -7.3363  -15.1579   26.9178 C.ar    1  UNL1        0.0889
     33 C          -8.4622  -15.9856   27.0649 C.ar    1  UNL1        0.1543
     34 F          -9.0916  -16.0758   28.2636 F       1  UNL1       -0.2028
     35 C          -8.9617  -16.7014   25.9737 C.ar    1  UNL1        0.0310
     36 C          -8.3340  -16.6118   24.7307 C.ar    1  UNL1        0.0033
     37 C          -7.1968  -15.8164   24.5777 C.ar    1  UNL1        0.0128
     38 C          -6.6856  -15.0944   25.6632 C.ar    1  UNL1        0.0733
     39 CL         -5.1942  -14.1906   25.4239 Cl      1  UNL1       -0.0809
@<TRIPOS>BOND
     1     1     2    1
     2     2     3   ar
     3     3    30    1
     4    30    32    1
     5    32    33   ar
     6    33    34    1
     7    33    35   ar
     8    35    36   ar
     9    36    37   ar
    10    37    38   ar
    11    38    39    1
    12     3     4   ar
    13     4     5   ar
    14     5     6   ar
    15     6     7   ar
    16     7    16    1
    17    16    17    2
    18    16    18   am
    19    18    20    1
    20    20    21   ar
    21    21    22   ar
    22    22    23   ar
    23    23    24   ar
    24    24    26    1
    25    26    27    1
    26    26    28    1
    27    26    29    1
    28    24    25   ar
    29     7     8   ar
    30     8     9   ar
    31     9    10   ar
    32     9    11    1
    33    11    12    1
    34    12    13    1
    35    12    14    1
    36    12    15    1
    37    10     2   ar
    38    38    32   ar
    39    10     5   ar
    40    25    20   ar
    41    15     8    1
    42    30    31    1
    43    18    19    1
@<TRIPOS>MOLECULE
*****
 39 43 0 0 0
SMALL
GASTEIGER

@<TRIPOS>ATOM
      1 C         -12.5424  -11.2047   30.8940 C.3     1  UNL1        0.1332
      2 N         -11.2215  -11.3623   31.5030 N.ar    1  UNL1       -0.2977
      3 C         -10.6256  -12.5037   31.9546 C.ar    1  UNL1        0.2018
      4 N          -9.4056  -12.3001   32.5151 N.ar    1  UNL1       -0.2135
      5 C          -9.2252  -10.9758   32.3732 C.ar    1  UNL1        0.0999
      6 C          -8.0993  -10.2308   32.7466 C.ar    1  UNL1        0.0282
      7 C          -8.0883   -8.8400   32.4674 C.ar    1  UNL1        0.0888
      8 C          -9.2102   -8.2859   31.8075 C.ar    1  UNL1        0.1401
      9 C         -10.3088   -9.0390   31.4646 C.ar    1  UNL1        0.0327
     10 C         -10.3075  -10.4063   31.7563 C.ar    1  UNL1        0.0789
     11 C         -11.3244   -8.1801   30.7958 C.3     1  UNL1        0.0709
     12 C         -10.6192   -6.7839   30.7543 C.3     1  UNL1        0.1375
     13 C         -10.3513   -6.3400   29.3098 C.3     1  UNL1        0.0439
     14 C         -11.4361   -5.7191   31.4984 C.3     1  UNL1        0.0439
     15 O          -9.3708   -6.9707   31.4245 O.3     1  UNL1       -0.4824
     16 C          -6.9301   -7.9957   32.8400 C.2     1  UNL1        0.2525
     17 O          -6.9644   -7.3392   33.9151 O.2     1  UNL1       -0.2697
     18 N          -5.7817   -7.8683   31.9865 N.am    1  UNL1       -0.2803
     19 H          -5.2752   -6.9541   31.9928 H       1  UNL1        0.1552
     20 C          -5.2479   -8.9344   31.1807 C.ar    1  UNL1        0.0505
     21 C          -4.7642  -10.0919   31.8054 C.ar    1  UNL1        0.0147
     22 C          -4.2512  -11.1437   31.0439 C.ar    1  UNL1        0.0012
     23 C          -4.2164  -11.0510   29.6507 C.ar    1  UNL1        0.0039
     24 C          -4.6907   -9.8971   29.0036 C.ar    1  UNL1        0.0726
     25 C          -5.2379   -8.8574   29.7753 C.ar    1  UNL1        0.0185
     26 C          -4.7053   -9.8114   27.4980 C.3     1  UNL1        0.4186
     27 F          -3.7856   -8.8796   27.0486 F       1  UNL1       -0.1659
     28 F          -5.9585   -9.4340   27.0467 F       1  UNL1       -0.1659
     29 F          -4.3889  -11.0483   26.9684 F       1  UNL1       -0.1659
     30 N         -11.1884  -13.8187   31.8412 N.pl3   1  UNL1       -0.2814
     31 H         -10.9745  -14.3624   30.9751 H       1  UNL1        0.1551
     32 C         -12.0671  -14.4128   32.8105 C.ar    1  UNL1        0.0889
     33 C         -13.2186  -15.0812   32.3613 C.ar    1  UNL1        0.1543
     34 F         -13.4811  -15.1721   31.0332 F       1  UNL1       -0.2028
     35 C         -14.0892  -15.6824   33.2741 C.ar    1  UNL1        0.0310
     36 C         -13.8291  -15.6086   34.6431 C.ar    1  UNL1        0.0033
     37 C         -12.7044  -14.9222   35.1048 C.ar    1  UNL1        0.0128
     38 C         -11.8241  -14.3148   34.2009 C.ar    1  UNL1        0.0733
     39 CL        -10.4816  -13.3838   34.8558 Cl      1  UNL1       -0.0809
@<TRIPOS>BOND
     1     1     2    1
     2     2     3   ar
     3     3    30    1
     4    30    32    1
     5    32    33   ar
     6    33    34    1
     7    33    35   ar
     8    35    36   ar
     9    36    37   ar
    10    37    38   ar
    11    38    39    1
    12     3     4   ar
    13     4     5   ar
    14     5     6   ar
    15     6     7   ar
    16     7    16    1
    17    16    17    2
    18    16    18   am
    19    18    20    1
    20    20    21   ar
    21    21    22   ar
    22    22    23   ar
    23    23    24   ar
    24    24    26    1
    25    26    27    1
    26    26    28    1
    27    26    29    1
    28    24    25   ar
    29     7     8   ar
    30     8     9   ar
    31     9    10   ar
    32     9    11    1
    33    11    12    1
    34    12    13    1
    35    12    14    1
    36    12    15    1
    37    10     2   ar
    38    38    32   ar
    39    10     5   ar
    40    25    20   ar
    41    15     8    1
    42    30    31    1
    43    18    19    1
@<TRIPOS>MOLECULE
*****
 39 43 0 0 0
SMALL
GASTEIGER

@<TRIPOS>ATOM
      1 C         -12.1703  -10.9193   32.8631 C.3     1  UNL1        0.1332
      2 N         -10.7512  -10.9182   33.2189 N.ar    1  UNL1       -0.2977
      3 C         -10.0565  -11.8439   33.9417 C.ar    1  UNL1        0.2018
      4 N          -8.7523  -11.5200   34.1374 N.ar    1  UNL1       -0.2135
      5 C          -8.6275  -10.3563   33.4767 C.ar    1  UNL1        0.0999
      6 C          -7.4628   -9.5946   33.3177 C.ar    1  UNL1        0.0282
      7 C          -7.5328   -8.4101   32.5402 C.ar    1  UNL1        0.0888
      8 C          -8.7743   -8.0745   31.9510 C.ar    1  UNL1        0.1401
      9 C          -9.9060   -8.8340   32.1353 C.ar    1  UNL1        0.0327
     10 C          -9.8219   -9.9929   32.9129 C.ar    1  UNL1        0.0789
     11 C         -11.0505   -8.2257   31.4029 C.3     1  UNL1        0.0709
     12 C         -10.3929   -6.9895   30.7047 C.3     1  UNL1        0.1375
     13 C         -10.4296   -7.1302   29.1769 C.3     1  UNL1        0.0439
     14 C         -11.0617   -5.6778   31.1374 C.3     1  UNL1        0.0439
     15 O          -9.0320   -6.9883   31.1411 O.3     1  UNL1       -0.4824
     16 C          -6.3384   -7.5586   32.3371 C.2     1  UNL1        0.2525
     17 O          -5.8937   -6.8779   33.2998 O.2     1  UNL1       -0.2697
     18 N          -5.6951   -7.4516   31.0572 N.am    1  UNL1       -0.2803
     19 H          -5.2480   -6.5379   30.8171 H       1  UNL1        0.1552
     20 C          -5.5687   -8.5361   30.1198 C.ar    1  UNL1        0.0505
     21 C          -4.6295   -8.4430   29.0839 C.ar    1  UNL1        0.0147
     22 C          -4.4816   -9.4869   28.1686 C.ar    1  UNL1        0.0012
     23 C          -5.2696  -10.6349   28.2784 C.ar    1  UNL1        0.0039
     24 C          -6.2218  -10.7470   29.3059 C.ar    1  UNL1        0.0726
     25 C          -6.3400   -9.7069   30.2441 C.ar    1  UNL1        0.0185
     26 C          -7.0389  -12.0048   29.4626 C.3     1  UNL1        0.4186
     27 F          -6.5107  -13.0335   28.7018 F       1  UNL1       -0.1659
     28 F          -8.3432  -11.7893   29.0519 F       1  UNL1       -0.1659
     29 F          -7.0414  -12.3834   30.7921 F       1  UNL1       -0.1659
     30 N         -10.6074  -13.0709   34.4414 N.pl3   1  UNL1       -0.2814
     31 H         -10.2769  -13.4037   35.3750 H       1  UNL1        0.1551
     32 C         -11.5378  -13.8963   33.7220 C.ar    1  UNL1        0.0889
     33 C         -12.4540  -14.6759   34.4481 C.ar    1  UNL1        0.1543
     34 F         -12.4630  -14.6330   35.8043 F       1  UNL1       -0.2028
     35 C         -13.3823  -15.4806   33.7823 C.ar    1  UNL1        0.0310
     36 C         -13.3950  -15.5283   32.3877 C.ar    1  UNL1        0.0033
     37 C         -12.4709  -14.7817   31.6544 C.ar    1  UNL1        0.0128
     38 C         -11.5349  -13.9717   32.3092 C.ar    1  UNL1        0.0733
     39 CL        -10.3376  -13.1350   31.3270 Cl      1  UNL1       -0.0809
@<TRIPOS>BOND
     1     1     2    1
     2     2     3   ar
     3     3    30    1
     4    30    32    1
     5    32    33   ar
     6    33    34    1
     7    33    35   ar
     8    35    36   ar
     9    36    37   ar
    10    37    38   ar
    11    38    39    1
    12     3     4   ar
    13     4     5   ar
    14     5     6   ar
    15     6     7   ar
    16     7    16    1
    17    16    17    2
    18    16    18   am
    19    18    20    1
    20    20    21   ar
    21    21    22   ar
    22    22    23   ar
    23    23    24   ar
    24    24    26    1
    25    26    27    1
    26    26    28    1
    27    26    29    1
    28    24    25   ar
    29     7     8   ar
    30     8     9   ar
    31     9    10   ar
    32     9    11    1
    33    11    12    1
    34    12    13    1
    35    12    14    1
    36    12    15    1
    37    10     2   ar
    38    38    32   ar
    39    10     5   ar
    40    25    20   ar
    41    15     8    1
    42    30    31    1
    43    18    19    1
@<TRIPOS>MOLECULE
*****
 39 43 0 0 0
SMALL
GASTEIGER

@<TRIPOS>ATOM
      1 C         -12.1090   -9.6206   32.1572 C.3     1  UNL1        0.1332
      2 N         -11.2096  -10.4998   31.4099 N.ar    1  UNL1       -0.2977
      3 C         -11.3290  -11.8396   31.1803 C.ar    1  UNL1        0.2018
      4 N         -10.2900  -12.3714   30.4863 N.ar    1  UNL1       -0.2135
      5 C          -9.5085  -11.3044   30.2475 C.ar    1  UNL1        0.0999
      6 C          -8.3107  -11.2788   29.5219 C.ar    1  UNL1        0.0282
      7 C          -7.6559  -10.0327   29.3451 C.ar    1  UNL1        0.0888
      8 C          -8.2622   -8.8796   29.8965 C.ar    1  UNL1        0.1401
      9 C          -9.4325   -8.9361   30.6168 C.ar    1  UNL1        0.0327
     10 C         -10.0593  -10.1737   30.7901 C.ar    1  UNL1        0.0789
     11 C          -9.8142   -7.5713   31.0729 C.3     1  UNL1        0.0709
     12 C          -8.6885   -6.6762   30.4565 C.3     1  UNL1        0.1375
     13 C          -9.2606   -5.7013   29.4183 C.3     1  UNL1        0.0439
     14 C          -7.9205   -5.9111   31.5427 C.3     1  UNL1        0.0439
     15 O          -7.7984   -7.5841   29.8038 O.3     1  UNL1       -0.4824
     16 C          -6.3846   -9.9385   28.5917 C.2     1  UNL1        0.2525
     17 O          -6.3951   -9.4850   27.4160 O.2     1  UNL1       -0.2697
     18 N          -5.1405  -10.3920   29.1485 N.am    1  UNL1       -0.2803
     19 H          -4.4319  -10.7858   28.4887 H       1  UNL1        0.1552
     20 C          -4.7836  -10.2762   30.5377 C.ar    1  UNL1        0.0505
     21 C          -4.2360  -11.3826   31.2010 C.ar    1  UNL1        0.0147
     22 C          -3.8724  -11.2911   32.5459 C.ar    1  UNL1        0.0012
     23 C          -4.0513  -10.0938   33.2425 C.ar    1  UNL1        0.0039
     24 C          -4.6041   -8.9734   32.5988 C.ar    1  UNL1        0.0726
     25 C          -4.9348   -9.0632   31.2354 C.ar    1  UNL1        0.0185
     26 C          -4.7511   -7.6623   33.3291 C.3     1  UNL1        0.4186
     27 F          -4.4815   -6.5966   32.4878 F       1  UNL1       -0.1659
     28 F          -3.8730   -7.6021   34.3977 F       1  UNL1       -0.1659
     29 F          -6.0450   -7.5469   33.8016 F       1  UNL1       -0.1659
     30 N         -12.4451  -12.6422   31.5913 N.pl3   1  UNL1       -0.2814
     31 H         -13.3402  -12.5306   31.0642 H       1  UNL1        0.1551
     32 C         -12.4290  -13.5448   32.7092 C.ar    1  UNL1        0.0889
     33 C         -13.4396  -14.5158   32.8107 C.ar    1  UNL1        0.1543
     34 F         -14.4017  -14.6022   31.8578 F       1  UNL1       -0.2028
     35 C         -13.4486  -15.4189   33.8769 C.ar    1  UNL1        0.0310
     36 C         -12.4606  -15.3520   34.8599 C.ar    1  UNL1        0.0033
     37 C         -11.4675  -14.3733   34.7873 C.ar    1  UNL1        0.0128
     38 C         -11.4472  -13.4617   33.7245 C.ar    1  UNL1        0.0733
     39 CL        -10.2259  -12.1944   33.7480 Cl      1  UNL1       -0.0809
@<TRIPOS>BOND
     1     1     2    1
     2     2     3   ar
     3     3    30    1
     4    30    32    1
     5    32    33   ar
     6    33    34    1
     7    33    35   ar
     8    35    36   ar
     9    36    37   ar
    10    37    38   ar
    11    38    39    1
    12     3     4   ar
    13     4     5   ar
    14     5     6   ar
    15     6     7   ar
    16     7    16    1
    17    16    17    2
    18    16    18   am
    19    18    20    1
    20    20    21   ar
    21    21    22   ar
    22    22    23   ar
    23    23    24   ar
    24    24    26    1
    25    26    27    1
    26    26    28    1
    27    26    29    1
    28    24    25   ar
    29     7     8   ar
    30     8     9   ar
    31     9    10   ar
    32     9    11    1
    33    11    12    1
    34    12    13    1
    35    12    14    1
    36    12    15    1
    37    10     2   ar
    38    38    32   ar
    39    10     5   ar
    40    25    20   ar
    41    15     8    1
    42    30    31    1
    43    18    19    1
@<TRIPOS>MOLECULE
*****
 39 43 0 0 0
SMALL
GASTEIGER

@<TRIPOS>ATOM
      1 C          -5.3895  -11.3808   29.2017 C.3     1  UNL1        0.1332
      2 N          -6.7951  -11.7589   29.3490 N.ar    1  UNL1       -0.2977
      3 C          -7.3976  -12.9357   29.0112 C.ar    1  UNL1        0.2018
      4 N          -8.7372  -12.9490   29.2335 N.ar    1  UNL1       -0.2135
      5 C          -8.9675  -11.7358   29.7640 C.ar    1  UNL1        0.0999
      6 C         -10.1914  -11.2315   30.2220 C.ar    1  UNL1        0.0282
      7 C         -10.2142   -9.9333   30.7935 C.ar    1  UNL1        0.0888
      8 C          -8.9921   -9.2270   30.8871 C.ar    1  UNL1        0.1401
      9 C          -7.8065   -9.7414   30.4163 C.ar    1  UNL1        0.0327
     10 C          -7.8037  -11.0182   29.8467 C.ar    1  UNL1        0.0789
     11 C          -6.7039   -8.7679   30.6462 C.3     1  UNL1        0.0709
     12 C          -7.4303   -7.5947   31.3840 C.3     1  UNL1        0.1375
     13 C          -6.9016   -7.4268   32.8150 C.3     1  UNL1        0.0439
     14 C          -7.3014   -6.2771   30.6080 C.3     1  UNL1        0.0439
     15 O          -8.8068   -7.9756   31.4363 O.3     1  UNL1       -0.4824
     16 C         -11.4763   -9.3410   31.2928 C.2     1  UNL1        0.2525
     17 O         -11.8382   -8.2105   30.8699 O.2     1  UNL1       -0.2697
     18 N         -12.2814  -10.0010   32.2826 N.am    1  UNL1       -0.2803
     19 H         -12.8122   -9.3989   32.9521 H       1  UNL1        0.1552
     20 C         -12.4559  -11.4269   32.3669 C.ar    1  UNL1        0.0505
     21 C         -13.1369  -12.0975   31.3419 C.ar    1  UNL1        0.0147
     22 C         -13.3094  -13.4820   31.3966 C.ar    1  UNL1        0.0012
     23 C         -12.8034  -14.2113   32.4750 C.ar    1  UNL1        0.0039
     24 C         -12.1225  -13.5585   33.5168 C.ar    1  UNL1        0.0726
     25 C         -11.9222  -12.1694   33.4369 C.ar    1  UNL1        0.0185
     26 C         -11.5274  -14.3451   34.6576 C.3     1  UNL1        0.4186
     27 F         -12.3882  -14.3694   35.7413 F       1  UNL1       -0.1659
     28 F         -10.3333  -13.7765   35.0668 F       1  UNL1       -0.1659
     29 F         -11.2903  -15.6418   34.2416 F       1  UNL1       -0.1659
     30 N          -6.7120  -14.0851   28.4940 N.pl3   1  UNL1       -0.2814
     31 H          -5.9135  -14.4626   29.0519 H       1  UNL1        0.1551
     32 C          -7.0147  -14.7150   27.2385 C.ar    1  UNL1        0.0889
     33 C          -6.1655  -14.4847   26.1429 C.ar    1  UNL1        0.1543
     34 F          -5.0730  -13.6919   26.2805 F       1  UNL1       -0.2028
     35 C          -6.4210  -15.0907   24.9100 C.ar    1  UNL1        0.0310
     36 C          -7.5336  -15.9181   24.7533 C.ar    1  UNL1        0.0033
     37 C          -8.4022  -16.1318   25.8253 C.ar    1  UNL1        0.0128
     38 C          -8.1582  -15.5301   27.0661 C.ar    1  UNL1        0.0733
     39 CL         -9.3458  -15.7637   28.3440 Cl      1  UNL1       -0.0809
@<TRIPOS>BOND
     1     1     2    1
     2     2     3   ar
     3     3    30    1
     4    30    32    1
     5    32    33   ar
     6    33    34    1
     7    33    35   ar
     8    35    36   ar
     9    36    37   ar
    10    37    38   ar
    11    38    39    1
    12     3     4   ar
    13     4     5   ar
    14     5     6   ar
    15     6     7   ar
    16     7    16    1
    17    16    17    2
    18    16    18   am
    19    18    20    1
    20    20    21   ar
    21    21    22   ar
    22    22    23   ar
    23    23    24   ar
    24    24    26    1
    25    26    27    1
    26    26    28    1
    27    26    29    1
    28    24    25   ar
    29     7     8   ar
    30     8     9   ar
    31     9    10   ar
    32     9    11    1
    33    11    12    1
    34    12    13    1
    35    12    14    1
    36    12    15    1
    37    10     2   ar
    38    38    32   ar
    39    10     5   ar
    40    25    20   ar
    41    15     8    1
    42    30    31    1
    43    18    19    1
