@<TRIPOS>MOLECULE
*****
 52 57 0 0 0
SMALL
GASTEIGER

@<TRIPOS>ATOM
      1 C          60.0167   89.6016    7.7268 C.ar    1  UNL1        0.0502
      2 C          60.6617   90.2981    8.7592 C.ar    1  UNL1        0.0148
      3 C          60.7336   89.7526   10.0429 C.ar    1  UNL1        0.0080
      4 C          60.1520   88.5039   10.3270 C.ar    1  UNL1        0.0808
      5 C          59.5031   87.8056    9.2857 C.ar    1  UNL1        0.1457
      6 F          58.9713   86.5738    9.4824 F       1  UNL1       -0.2040
      7 C          59.4385   88.3547    8.0018 C.ar    1  UNL1        0.0443
      8 N          59.8751   91.6957    4.0875 N.pl3   1  UNL1       -0.2897
      9 C          58.7010   91.7051    4.9702 C.3     1  UNL1        0.1136
     10 C          58.6457   90.4088    5.7760 C.3     1  UNL1        0.1123
     11 N          59.9499   90.1522    6.3982 N.pl3   1  UNL1       -0.3040
     12 C          61.1344   90.1516    5.5315 C.3     1  UNL1        0.1123
     13 C          61.1831   91.4369    4.7015 C.3     1  UNL1        0.1136
     14 C          60.8511   93.5223    0.9568 C.ar    1  UNL1        0.0155
     15 C          60.9318   92.9195    2.2221 C.ar    1  UNL1        0.0324
     16 C          59.8091   92.3013    2.7833 C.ar    1  UNL1        0.1315
     17 N          58.6366   92.3041    2.0979 N.ar    1  UNL1       -0.2292
     18 C          58.5160   92.8678    0.8695 C.ar    1  UNL1        0.1039
     19 C          59.6180   93.4889    0.2505 C.ar    1  UNL1        0.0890
     20 C          59.4611   94.0907   -1.1333 C.3     1  UNL1        0.4198
     21 F          58.3306   94.8850   -1.2248 F       1  UNL1       -0.1658
     22 F          59.3476   93.0804   -2.0713 F       1  UNL1       -0.1658
     23 F          60.5587   94.8773   -1.4313 F       1  UNL1       -0.1658
     24 C          62.1058   94.1796    0.4146 C.3     1  UNL1        0.1688
     25 C          64.4078   93.9638    0.2518 C.3     1  UNL1        0.1746
     26 O          63.1891   93.2689    0.4031 O.3     1  UNL1       -0.3463
     27 C          60.2811   87.9352   11.6930 C.2     1  UNL1        0.2483
     28 O          60.2153   88.7053   12.6903 O.2     1  UNL1       -0.2701
     29 N          60.4697   86.5268   11.9004 N.am    1  UNL1       -0.2945
     30 H          60.1802   85.8751   11.1376 H       1  UNL1        0.1501
     31 C          60.9451   85.9831   13.1820 C.3     1  UNL1        0.1535
     32 C          60.6906   84.4965   13.2808 C.2     1  UNL1        0.2443
     33 O          60.7901   83.9106   14.3938 O.2     1  UNL1       -0.2730
     34 N          60.2355   83.7772   12.1235 N.am    1  UNL1       -0.2825
     35 H          59.8747   84.3339   11.3155 H       1  UNL1        0.1549
     36 C          60.1317   82.3448   12.0547 C.ar    1  UNL1        0.0535
     37 C          61.1375   81.5615   11.4631 C.ar    1  UNL1        0.0353
     38 C          60.9815   80.1746   11.3980 C.ar    1  UNL1        0.1002
     39 N          59.8578   79.5900   11.8908 N.ar    1  UNL1       -0.2422
     40 C          58.8609   80.3242   12.4515 C.ar    1  UNL1        0.1002
     41 C          58.9762   81.7138   12.5356 C.ar    1  UNL1        0.0353
     42 C          62.4381   86.3056   13.4163 C.3     1  UNL1        0.0569
     43 C          63.3536   85.1643   13.0630 C.ar    1  UNL1       -0.0017
     44 C          64.1810   84.4639   13.9366 C.ar    1  UNL1        0.0681
     45 N          64.8114   83.4587   13.2883 N.ar    1  UNL1       -0.3523
     46 C          64.3933   83.5191   12.0123 C.ar    1  UNL1        0.0563
     47 C          64.7544   82.6719   10.9655 C.ar    1  UNL1        0.0170
     48 C          64.1845   82.9080    9.7013 C.ar    1  UNL1        0.0015
     49 C          63.2832   83.9783    9.5118 C.ar    1  UNL1        0.0001
     50 C          62.9401   84.8196   10.5853 C.ar    1  UNL1        0.0012
     51 C          63.5086   84.5520   11.8323 C.ar    1  UNL1        0.0131
     52 H          65.4804   82.7715   13.7012 H       1  UNL1        0.1660
@<TRIPOS>BOND
     1    25    26    1
     2    26    24    1
     3    24    14    1
     4    14    15   ar
     5    15    16   ar
     6    16     8    1
     7     8     9    1
     8     9    10    1
     9    10    11    1
    10    11     1    1
    11     1     2   ar
    12     2     3   ar
    13     3     4   ar
    14     4    27    1
    15    27    28    2
    16    27    29   am
    17    29    31    1
    18    31    42    1
    19    42    43    1
    20    43    44   ar
    21    44    45   ar
    22    45    46   ar
    23    46    47   ar
    24    47    48   ar
    25    48    49   ar
    26    49    50   ar
    27    50    51   ar
    28    31    32    1
    29    32    33    2
    30    32    34   am
    31    34    36    1
    32    36    37   ar
    33    37    38   ar
    34    38    39   ar
    35    39    40   ar
    36    40    41   ar
    37     4     5   ar
    38     5     6    1
    39     5     7   ar
    40    11    12    1
    41    12    13    1
    42    16    17   ar
    43    17    18   ar
    44    18    19   ar
    45    19    20    1
    46    20    21    1
    47    20    22    1
    48    20    23    1
    49    19    14   ar
    50    13     8    1
    51     7     1   ar
    52    51    43   ar
    53    41    36   ar
    54    51    46   ar
    55    29    30    1
    56    45    52    1
    57    34    35    1
@<TRIPOS>MOLECULE
*****
 52 57 0 0 0
SMALL
GASTEIGER

@<TRIPOS>ATOM
      1 C          59.8680   89.4671    7.7048 C.ar    1  UNL1        0.0502
      2 C          60.2837   90.2286    8.8067 C.ar    1  UNL1        0.0148
      3 C          60.3042   89.6684   10.0861 C.ar    1  UNL1        0.0080
      4 C          59.8982   88.3382   10.2950 C.ar    1  UNL1        0.0808
      5 C          59.4799   87.5745    9.1837 C.ar    1  UNL1        0.1457
      6 F          59.1294   86.2707    9.3112 F       1  UNL1       -0.2040
      7 C          59.4660   88.1393    7.9051 C.ar    1  UNL1        0.0443
      8 N          59.9463   91.5973    4.0847 N.pl3   1  UNL1       -0.2897
      9 C          58.7880   91.7363    4.9774 C.3     1  UNL1        0.1136
     10 C          58.5868   90.4480    5.7726 C.3     1  UNL1        0.1123
     11 N          59.8564   90.0341    6.3815 N.pl3   1  UNL1       -0.3040
     12 C          61.0261   89.9026    5.5047 C.3     1  UNL1        0.1123
     13 C          61.2194   91.1810    4.6853 C.3     1  UNL1        0.1136
     14 C          61.1255   93.1549    0.8793 C.ar    1  UNL1        0.0155
     15 C          61.1415   92.5330    2.1378 C.ar    1  UNL1        0.0324
     16 C          59.9422   92.2188    2.7862 C.ar    1  UNL1        0.1315
     17 N          58.7626   92.5357    2.1922 N.ar    1  UNL1       -0.2292
     18 C          58.7007   93.1296    0.9738 C.ar    1  UNL1        0.1039
     19 C          59.8766   93.4529    0.2693 C.ar    1  UNL1        0.0890
     20 C          59.7780   94.0954   -1.1015 C.3     1  UNL1        0.4198
     21 F          60.8766   94.8916   -1.3778 F       1  UNL1       -0.1658
     22 F          58.6492   94.8925   -1.1630 F       1  UNL1       -0.1658
     23 F          59.7065   93.1166   -2.0757 F       1  UNL1       -0.1658
     24 C          62.4635   93.4724    0.2396 C.3     1  UNL1        0.1688
     25 C          64.0108   94.1946    1.8068 C.3     1  UNL1        0.1746
     26 O          63.0593   94.6026    0.8481 O.3     1  UNL1       -0.3463
     27 C          59.9698   87.7618   11.6620 C.2     1  UNL1        0.2483
     28 O          59.3204   88.3077   12.5961 O.2     1  UNL1       -0.2701
     29 N          60.7552   86.5918   11.9386 N.am    1  UNL1       -0.2945
     30 H          60.9932   85.9606   11.1416 H       1  UNL1        0.1501
     31 C          61.1280   86.2078   13.3089 C.3     1  UNL1        0.1535
     32 C          61.6625   87.3875   14.0880 C.2     1  UNL1        0.2443
     33 O          61.0973   87.7476   15.1570 O.2     1  UNL1       -0.2730
     34 N          62.8748   88.0287   13.6599 N.am    1  UNL1       -0.2825
     35 H          63.4725   87.5250   12.9657 H       1  UNL1        0.1549
     36 C          63.3757   89.2568   14.2149 C.ar    1  UNL1        0.0535
     37 C          63.2557   89.5486   15.5844 C.ar    1  UNL1        0.0353
     38 C          63.7363   90.7658   16.0740 C.ar    1  UNL1        0.1002
     39 N          64.3027   91.6662   15.2279 N.ar    1  UNL1       -0.2422
     40 C          64.4152   91.4186   13.8963 C.ar    1  UNL1        0.1002
     41 C          63.9465   90.2145   13.3654 C.ar    1  UNL1        0.0353
     42 C          59.9481   85.5423   14.0524 C.3     1  UNL1        0.0569
     43 C          59.0489   84.7463   13.1451 C.ar    1  UNL1       -0.0017
     44 C          57.8743   85.1902   12.5440 C.ar    1  UNL1        0.0681
     45 N          57.3618   84.2312   11.7405 N.ar    1  UNL1       -0.3523
     46 C          58.1992   83.1838   11.8305 C.ar    1  UNL1        0.0563
     47 C          58.0979   81.9632   11.1642 C.ar    1  UNL1        0.0170
     48 C          59.0986   81.0021   11.3956 C.ar    1  UNL1        0.0015
     49 C          60.1614   81.2759   12.2839 C.ar    1  UNL1        0.0001
     50 C          60.2359   82.5147   12.9456 C.ar    1  UNL1        0.0012
     51 C          59.2378   83.4556   12.6846 C.ar    1  UNL1        0.0131
     52 H          56.4950   84.2981   11.1620 H       1  UNL1        0.1660
@<TRIPOS>BOND
     1    25    26    1
     2    26    24    1
     3    24    14    1
     4    14    15   ar
     5    15    16   ar
     6    16     8    1
     7     8     9    1
     8     9    10    1
     9    10    11    1
    10    11     1    1
    11     1     2   ar
    12     2     3   ar
    13     3     4   ar
    14     4    27    1
    15    27    28    2
    16    27    29   am
    17    29    31    1
    18    31    42    1
    19    42    43    1
    20    43    44   ar
    21    44    45   ar
    22    45    46   ar
    23    46    47   ar
    24    47    48   ar
    25    48    49   ar
    26    49    50   ar
    27    50    51   ar
    28    31    32    1
    29    32    33    2
    30    32    34   am
    31    34    36    1
    32    36    37   ar
    33    37    38   ar
    34    38    39   ar
    35    39    40   ar
    36    40    41   ar
    37     4     5   ar
    38     5     6    1
    39     5     7   ar
    40    11    12    1
    41    12    13    1
    42    16    17   ar
    43    17    18   ar
    44    18    19   ar
    45    19    20    1
    46    20    21    1
    47    20    22    1
    48    20    23    1
    49    19    14   ar
    50    13     8    1
    51     7     1   ar
    52    51    43   ar
    53    41    36   ar
    54    51    46   ar
    55    29    30    1
    56    45    52    1
    57    34    35    1
@<TRIPOS>MOLECULE
*****
 52 57 0 0 0
SMALL
GASTEIGER

@<TRIPOS>ATOM
      1 C          59.7081   89.6197    7.7200 C.ar    1  UNL1        0.0502
      2 C          59.3642   88.2728    7.9058 C.ar    1  UNL1        0.0148
      3 C          59.2255   87.7495    9.1933 C.ar    1  UNL1        0.0080
      4 C          59.4392   88.5574   10.3245 C.ar    1  UNL1        0.0808
      5 C          59.7857   89.9127   10.1340 C.ar    1  UNL1        0.1457
      6 F          59.9507   90.7562   11.1829 F       1  UNL1       -0.2040
      7 C          59.9185   90.4318    8.8429 C.ar    1  UNL1        0.0443
      8 N          60.2080   91.6947    4.1014 N.pl3   1  UNL1       -0.2897
      9 C          58.9846   91.9021    4.8877 C.3     1  UNL1        0.1136
     10 C          58.6508   90.6359    5.6739 C.3     1  UNL1        0.1123
     11 N          59.8403   90.1688    6.3956 N.pl3   1  UNL1       -0.3040
     12 C          61.0741   89.9685    5.6262 C.3     1  UNL1        0.1123
     13 C          61.4015   91.2249    4.8152 C.3     1  UNL1        0.1136
     14 C          59.3734   93.1643    0.7496 C.ar    1  UNL1        0.0155
     15 C          59.2239   92.5920    2.0228 C.ar    1  UNL1        0.0324
     16 C          60.3482   92.2981    2.8020 C.ar    1  UNL1        0.1315
     17 N          61.5861   92.5581    2.3075 N.ar    1  UNL1       -0.2292
     18 C          61.7763   93.1176    1.0860 C.ar    1  UNL1        0.1039
     19 C          60.6797   93.4490    0.2667 C.ar    1  UNL1        0.0890
     20 C          60.9203   94.0951   -1.0847 C.3     1  UNL1        0.4198
     21 F          62.0525   94.8921   -1.0808 F       1  UNL1       -0.1658
     22 F          59.8405   94.8923   -1.4195 F       1  UNL1       -0.1658
     23 F          61.0909   93.1188   -2.0490 F       1  UNL1       -0.1658
     24 C          58.1110   93.4489   -0.0413 C.3     1  UNL1        0.1688
     25 C          57.4299   92.3356   -1.9567 C.3     1  UNL1        0.1746
     26 O          57.5549   92.2526   -0.5537 O.3     1  UNL1       -0.3463
     27 C          59.2447   87.9792   11.6787 C.2     1  UNL1        0.2483
     28 O          58.1488   88.1636   12.2763 O.2     1  UNL1       -0.2701
     29 N          60.2748   87.2078   12.3160 N.am    1  UNL1       -0.2945
     30 H          61.0069   86.7726   11.7120 H       1  UNL1        0.1501
     31 C          60.2589   86.9258   13.7597 C.3     1  UNL1        0.1535
     32 C          61.4527   86.0969   14.1746 C.2     1  UNL1        0.2443
     33 O          61.3558   85.2861   15.1365 O.2     1  UNL1       -0.2730
     34 N          62.6632   86.1625   13.4038 N.am    1  UNL1       -0.2825
     35 H          62.6127   86.5989   12.4551 H       1  UNL1        0.1549
     36 C          63.9060   85.5596   13.8029 C.ar    1  UNL1        0.0535
     37 C          64.7706   86.1898   14.7142 C.ar    1  UNL1        0.0353
     38 C          65.9792   85.5765   15.0539 C.ar    1  UNL1        0.1002
     39 N          66.3212   84.3856   14.4951 N.ar    1  UNL1       -0.2422
     40 C          65.5133   83.7626   13.5971 C.ar    1  UNL1        0.1002
     41 C          64.2967   84.3420   13.2291 C.ar    1  UNL1        0.0353
     42 C          60.1721   88.2257   14.5907 C.3     1  UNL1        0.0569
     43 C          61.5184   88.7518   15.0106 C.ar    1  UNL1       -0.0017
     44 C          62.1228   88.5856   16.2537 C.ar    1  UNL1        0.0681
     45 N          63.3592   89.1328   16.2560 N.ar    1  UNL1       -0.3523
     46 C          63.5409   89.6466   15.0274 C.ar    1  UNL1        0.0563
     47 C          64.6755   90.2976   14.5447 C.ar    1  UNL1        0.0170
     48 C          64.6585   90.7491   13.2127 C.ar    1  UNL1        0.0015
     49 C          63.5180   90.5497   12.4045 C.ar    1  UNL1        0.0001
     50 C          62.3857   89.8933   12.9193 C.ar    1  UNL1        0.0012
     51 C          62.4366   89.4417   14.2396 C.ar    1  UNL1        0.0131
     52 H          64.0361   89.1442   17.0511 H       1  UNL1        0.1660
@<TRIPOS>BOND
     1    25    26    1
     2    26    24    1
     3    24    14    1
     4    14    15   ar
     5    15    16   ar
     6    16     8    1
     7     8     9    1
     8     9    10    1
     9    10    11    1
    10    11     1    1
    11     1     2   ar
    12     2     3   ar
    13     3     4   ar
    14     4    27    1
    15    27    28    2
    16    27    29   am
    17    29    31    1
    18    31    42    1
    19    42    43    1
    20    43    44   ar
    21    44    45   ar
    22    45    46   ar
    23    46    47   ar
    24    47    48   ar
    25    48    49   ar
    26    49    50   ar
    27    50    51   ar
    28    31    32    1
    29    32    33    2
    30    32    34   am
    31    34    36    1
    32    36    37   ar
    33    37    38   ar
    34    38    39   ar
    35    39    40   ar
    36    40    41   ar
    37     4     5   ar
    38     5     6    1
    39     5     7   ar
    40    11    12    1
    41    12    13    1
    42    16    17   ar
    43    17    18   ar
    44    18    19   ar
    45    19    20    1
    46    20    21    1
    47    20    22    1
    48    20    23    1
    49    19    14   ar
    50    13     8    1
    51     7     1   ar
    52    51    43   ar
    53    41    36   ar
    54    51    46   ar
    55    29    30    1
    56    45    52    1
    57    34    35    1
@<TRIPOS>MOLECULE
*****
 52 57 0 0 0
SMALL
GASTEIGER

@<TRIPOS>ATOM
      1 C          61.4072   86.6897   13.5380 C.ar    1  UNL1        0.0502
      2 C          61.8933   85.4178   13.2022 C.ar    1  UNL1        0.0148
      3 C          61.0089   84.3813   12.8949 C.ar    1  UNL1        0.0080
      4 C          59.6183   84.5892   12.9279 C.ar    1  UNL1        0.0808
      5 C          59.1323   85.8707   13.2668 C.ar    1  UNL1        0.1457
      6 F          57.8052   86.1492   13.2625 F       1  UNL1       -0.2040
      7 C          60.0225   86.9052   13.5688 C.ar    1  UNL1        0.0443
      8 N          64.3989   89.5876   14.0873 N.pl3   1  UNL1       -0.2897
      9 C          64.5442   88.2723   14.7251 C.3     1  UNL1        0.1136
     10 C          63.1668   87.6895   15.0349 C.3     1  UNL1        0.1123
     11 N          62.3133   87.7661   13.8435 N.pl3   1  UNL1       -0.3040
     12 C          62.1677   89.0710   13.1875 C.3     1  UNL1        0.1123
     13 C          63.5446   89.6733   12.8967 C.3     1  UNL1        0.1136
     14 C          66.3149   92.8063   13.8434 C.ar    1  UNL1        0.0155
     15 C          65.3745   91.7978   13.5799 C.ar    1  UNL1        0.0324
     16 C          65.3468   90.6363   14.3594 C.ar    1  UNL1        0.1315
     17 N          66.2491   90.4880   15.3636 N.ar    1  UNL1       -0.2292
     18 C          67.1697   91.4403   15.6578 C.ar    1  UNL1        0.1039
     19 C          67.2315   92.6361   14.9164 C.ar    1  UNL1        0.0890
     20 C          68.2556   93.6942   15.2818 C.3     1  UNL1        0.4198
     21 F          68.2971   93.9215   16.6470 F       1  UNL1       -0.1658
     22 F          67.9343   94.8882   14.6617 F       1  UNL1       -0.1658
     23 F          69.5149   93.2885   14.8798 F       1  UNL1       -0.1658
     24 C          66.2909   94.0340   12.9531 C.3     1  UNL1        0.1688
     25 C          66.1967   94.0605   10.6374 C.3     1  UNL1        0.1746
     26 O          67.0149   93.8066   11.7586 O.3     1  UNL1       -0.3463
     27 C          58.7073   83.4762   12.5573 C.2     1  UNL1        0.2483
     28 O          57.4738   83.5819   12.8012 O.2     1  UNL1       -0.2701
     29 N          59.2012   82.2882   11.9194 N.am    1  UNL1       -0.2945
     30 H          60.1148   82.3444   11.4170 H       1  UNL1        0.1501
     31 C          58.4118   81.0483   11.8598 C.3     1  UNL1        0.1535
     32 C          57.9332   80.7642   10.4545 C.2     1  UNL1        0.2443
     33 O          57.1917   79.7688   10.2283 O.2     1  UNL1       -0.2730
     34 N          58.2422   81.6897    9.4001 N.am    1  UNL1       -0.2825
     35 H          58.5864   82.6389    9.6714 H       1  UNL1        0.1549
     36 C          57.9932   81.4360    8.0069 C.ar    1  UNL1        0.0535
     37 C          57.4673   82.4274    7.1609 C.ar    1  UNL1        0.0353
     38 C          57.2195   82.1271    5.8190 C.ar    1  UNL1        0.1002
     39 N          57.4724   80.8803    5.3404 N.ar    1  UNL1       -0.2422
     40 C          57.9634   79.8971    6.1399 C.ar    1  UNL1        0.1002
     41 C          58.2242   80.1548    7.4879 C.ar    1  UNL1        0.0353
     42 C          59.1987   79.8468   12.4299 C.3     1  UNL1        0.0569
     43 C          60.6870   79.9700   12.2420 C.ar    1  UNL1       -0.0017
     44 C          61.4297   79.4894   11.1670 C.ar    1  UNL1        0.0681
     45 N          62.7296   79.8387   11.2957 N.ar    1  UNL1       -0.3523
     46 C          62.8165   80.5325   12.4436 C.ar    1  UNL1        0.0563
     47 C          63.9574   81.1176   12.9912 C.ar    1  UNL1        0.0170
     48 C          63.8215   81.8145   14.2054 C.ar    1  UNL1        0.0015
     49 C          62.5644   81.9029   14.8423 C.ar    1  UNL1        0.0001
     50 C          61.4310   81.2992   14.2689 C.ar    1  UNL1        0.0012
     51 C          61.5922   80.6278   13.0553 C.ar    1  UNL1        0.0131
     52 H          63.5044   79.6191   10.6310 H       1  UNL1        0.1660
@<TRIPOS>BOND
     1    25    26    1
     2    26    24    1
     3    24    14    1
     4    14    15   ar
     5    15    16   ar
     6    16     8    1
     7     8     9    1
     8     9    10    1
     9    10    11    1
    10    11     1    1
    11     1     2   ar
    12     2     3   ar
    13     3     4   ar
    14     4    27    1
    15    27    28    2
    16    27    29   am
    17    29    31    1
    18    31    42    1
    19    42    43    1
    20    43    44   ar
    21    44    45   ar
    22    45    46   ar
    23    46    47   ar
    24    47    48   ar
    25    48    49   ar
    26    49    50   ar
    27    50    51   ar
    28    31    32    1
    29    32    33    2
    30    32    34   am
    31    34    36    1
    32    36    37   ar
    33    37    38   ar
    34    38    39   ar
    35    39    40   ar
    36    40    41   ar
    37     4     5   ar
    38     5     6    1
    39     5     7   ar
    40    11    12    1
    41    12    13    1
    42    16    17   ar
    43    17    18   ar
    44    18    19   ar
    45    19    20    1
    46    20    21    1
    47    20    22    1
    48    20    23    1
    49    19    14   ar
    50    13     8    1
    51     7     1   ar
    52    51    43   ar
    53    41    36   ar
    54    51    46   ar
    55    29    30    1
    56    45    52    1
    57    34    35    1
@<TRIPOS>MOLECULE
*****
 52 57 0 0 0
SMALL
GASTEIGER

@<TRIPOS>ATOM
      1 C          61.7751   87.6834   11.8537 C.ar    1  UNL1        0.0502
      2 C          61.3907   86.5061   12.5118 C.ar    1  UNL1        0.0148
      3 C          60.5366   85.5938   11.8879 C.ar    1  UNL1        0.0080
      4 C          60.0377   85.8433   10.5968 C.ar    1  UNL1        0.0808
      5 C          60.4263   87.0295    9.9373 C.ar    1  UNL1        0.1457
      6 F          60.0239   87.3007    8.6710 F       1  UNL1       -0.2040
      7 C          61.2851   87.9364   10.5651 C.ar    1  UNL1        0.0443
      8 N          64.7750   90.1586   13.4423 N.pl3   1  UNL1       -0.2897
      9 C          64.6032   88.8011   13.9768 C.3     1  UNL1        0.1136
     10 C          63.1421   88.3740   13.8515 C.3     1  UNL1        0.1123
     11 N          62.6653   88.6219   12.4858 N.pl3   1  UNL1       -0.3040
     12 C          62.8409   89.9701   11.9329 C.3     1  UNL1        0.1123
     13 C          64.2982   90.4157   12.0780 C.3     1  UNL1        0.1136
     14 C          66.7005   93.2796   14.2440 C.ar    1  UNL1        0.0155
     15 C          65.7711   92.4072   13.6556 C.ar    1  UNL1        0.0324
     16 C          65.7116   91.0666   14.0512 C.ar    1  UNL1        0.1315
     17 N          66.5725   90.6144   14.9993 N.ar    1  UNL1       -0.2292
     18 C          67.4809   91.4242   15.5995 C.ar    1  UNL1        0.1039
     19 C          67.5730   92.7858   15.2517 C.ar    1  UNL1        0.0890
     20 C          68.5819   93.6739   15.9553 C.3     1  UNL1        0.4198
     21 F          69.2460   92.9994   16.9659 F       1  UNL1       -0.1658
     22 F          67.9346   94.7574   16.5216 F       1  UNL1       -0.1658
     23 F          69.5269   94.1210   15.0502 F       1  UNL1       -0.1658
     24 C          66.7130   94.7170   13.7604 C.3     1  UNL1        0.1688
     25 C          66.4156   94.3522   11.4909 C.3     1  UNL1        0.1746
     26 O          65.8381   94.8884   12.6614 O.3     1  UNL1       -0.3463
     27 C          59.1633   84.8336    9.9472 C.2     1  UNL1        0.2483
     28 O          57.9437   84.7779   10.2658 O.2     1  UNL1       -0.2701
     29 N          59.6764   83.9273    8.9584 N.am    1  UNL1       -0.2945
     30 H          60.5529   84.1929    8.4568 H       1  UNL1        0.1501
     31 C          58.9491   82.7119    8.5611 C.3     1  UNL1        0.1535
     32 C          59.8568   81.5034    8.5483 C.2     1  UNL1        0.2443
     33 O          59.8227   80.6973    7.5783 O.2     1  UNL1       -0.2730
     34 N          60.8275   81.3353    9.5939 N.am    1  UNL1       -0.2825
     35 H          61.0358   82.1603   10.2015 H       1  UNL1        0.1549
     36 C          61.6150   80.1466    9.7785 C.ar    1  UNL1        0.0535
     37 C          61.2179   79.1310   10.6650 C.ar    1  UNL1        0.0353
     38 C          62.0281   78.0046   10.8292 C.ar    1  UNL1        0.1002
     39 N          63.1988   77.9001   10.1465 N.ar    1  UNL1       -0.2422
     40 C          63.6167   78.8751    9.2969 C.ar    1  UNL1        0.1002
     41 C          62.8372   80.0183    9.1045 C.ar    1  UNL1        0.0353
     42 C          57.7165   82.4687    9.4607 C.3     1  UNL1        0.0569
     43 C          57.8538   81.2537   10.3385 C.ar    1  UNL1       -0.0017
     44 C          57.4630   79.9550   10.0240 C.ar    1  UNL1        0.0681
     45 N          57.7996   79.1049   11.0201 N.ar    1  UNL1       -0.3523
     46 C          58.3962   79.8543   11.9630 C.ar    1  UNL1        0.0563
     47 C          58.9333   79.4170   13.1731 C.ar    1  UNL1        0.0170
     48 C          59.5277   80.3752   14.0139 C.ar    1  UNL1        0.0015
     49 C          59.5641   81.7349   13.6349 C.ar    1  UNL1        0.0001
     50 C          59.0106   82.1482   12.4098 C.ar    1  UNL1        0.0012
     51 C          58.4416   81.1732   11.5882 C.ar    1  UNL1        0.0131
     52 H          57.6351   78.0740   11.0441 H       1  UNL1        0.1660
@<TRIPOS>BOND
     1    25    26    1
     2    26    24    1
     3    24    14    1
     4    14    15   ar
     5    15    16   ar
     6    16     8    1
     7     8     9    1
     8     9    10    1
     9    10    11    1
    10    11     1    1
    11     1     2   ar
    12     2     3   ar
    13     3     4   ar
    14     4    27    1
    15    27    28    2
    16    27    29   am
    17    29    31    1
    18    31    42    1
    19    42    43    1
    20    43    44   ar
    21    44    45   ar
    22    45    46   ar
    23    46    47   ar
    24    47    48   ar
    25    48    49   ar
    26    49    50   ar
    27    50    51   ar
    28    31    32    1
    29    32    33    2
    30    32    34   am
    31    34    36    1
    32    36    37   ar
    33    37    38   ar
    34    38    39   ar
    35    39    40   ar
    36    40    41   ar
    37     4     5   ar
    38     5     6    1
    39     5     7   ar
    40    11    12    1
    41    12    13    1
    42    16    17   ar
    43    17    18   ar
    44    18    19   ar
    45    19    20    1
    46    20    21    1
    47    20    22    1
    48    20    23    1
    49    19    14   ar
    50    13     8    1
    51     7     1   ar
    52    51    43   ar
    53    41    36   ar
    54    51    46   ar
    55    29    30    1
    56    45    52    1
    57    34    35    1
@<TRIPOS>MOLECULE
*****
 52 57 0 0 0
SMALL
GASTEIGER

@<TRIPOS>ATOM
      1 C          61.3486   89.1059   13.3823 C.ar    1  UNL1        0.0502
      2 C          60.5579   88.4163   14.3130 C.ar    1  UNL1        0.0148
      3 C          59.4642   87.6586   13.8880 C.ar    1  UNL1        0.0080
      4 C          59.1287   87.5826   12.5243 C.ar    1  UNL1        0.0808
      5 C          59.9265   88.2784   11.5901 C.ar    1  UNL1        0.1457
      6 F          59.6881   88.2002   10.2574 F       1  UNL1       -0.2040
      7 C          61.0225   89.0312   12.0212 C.ar    1  UNL1        0.0443
      8 N          64.9688   90.9434   14.4627 N.pl3   1  UNL1       -0.2897
      9 C          64.4415   89.8493   15.2891 C.3     1  UNL1        0.1136
     10 C          62.9161   89.8297   15.2142 C.3     1  UNL1        0.1123
     11 N          62.4849   89.8785   13.8122 N.pl3   1  UNL1       -0.3040
     12 C          63.0125   90.9586   12.9702 C.3     1  UNL1        0.1123
     13 C          64.5401   91.0011   13.0600 C.3     1  UNL1        0.1136
     14 C          68.4648   92.3071   14.5585 C.ar    1  UNL1        0.0155
     15 C          67.3231   91.6091   14.1338 C.ar    1  UNL1        0.0324
     16 C          66.1403   91.6692   14.8787 C.ar    1  UNL1        0.1315
     17 N          66.1128   92.3973   16.0249 N.ar    1  UNL1       -0.2292
     18 C          67.1900   93.0933   16.4679 C.ar    1  UNL1        0.1039
     19 C          68.4009   93.0816   15.7487 C.ar    1  UNL1        0.0890
     20 C          69.5825   93.8876   16.2546 C.3     1  UNL1        0.4198
     21 F          70.2843   94.4795   15.2181 F       1  UNL1       -0.1658
     22 F          70.4535   93.0591   16.9389 F       1  UNL1       -0.1658
     23 F          69.1410   94.8914   17.0969 F       1  UNL1       -0.1658
     24 C          69.7131   92.1900   13.7052 C.3     1  UNL1        0.1688
     25 C          68.5445   92.3177   11.7076 C.3     1  UNL1        0.1746
     26 O          69.4298   91.5378   12.4816 O.3     1  UNL1       -0.3463
     27 C          57.9833   86.7361   12.1029 C.2     1  UNL1        0.2483
     28 O          56.8614   86.8962   12.6579 O.2     1  UNL1       -0.2701
     29 N          58.1255   85.7473   11.0714 N.am    1  UNL1       -0.2945
     30 H          58.9150   85.8524   10.3960 H       1  UNL1        0.1501
     31 C          57.1381   84.6744   10.8768 C.3     1  UNL1        0.1535
     32 C          57.3343   83.9757    9.5510 C.2     1  UNL1        0.2443
     33 O          56.6226   84.2918    8.5583 O.2     1  UNL1       -0.2730
     34 N          58.4020   83.0261    9.4018 N.am    1  UNL1       -0.2825
     35 H          59.1485   83.0146   10.1335 H       1  UNL1        0.1549
     36 C          58.5720   82.1792    8.2524 C.ar    1  UNL1        0.0535
     37 C          57.5238   81.9519    7.3442 C.ar    1  UNL1        0.0353
     38 C          57.7288   81.1018    6.2545 C.ar    1  UNL1        0.1002
     39 N          58.9297   80.4885    6.0834 N.ar    1  UNL1       -0.2422
     40 C          59.9550   80.6754    6.9558 C.ar    1  UNL1        0.1002
     41 C          59.7917   81.5164    8.0593 C.ar    1  UNL1        0.0353
     42 C          57.1622   83.6625   12.0444 C.3     1  UNL1        0.0569
     43 C          58.5185   83.0503   12.2703 C.ar    1  UNL1       -0.0017
     44 C          59.6453   83.6938   12.7748 C.ar    1  UNL1        0.0681
     45 N          60.6695   82.8211   12.9072 N.ar    1  UNL1       -0.3523
     46 C          60.2022   81.6327   12.4878 C.ar    1  UNL1        0.0563
     47 C          60.8894   80.4200   12.4554 C.ar    1  UNL1        0.0170
     48 C          60.2014   79.2860   11.9872 C.ar    1  UNL1        0.0015
     49 C          58.8600   79.3897   11.5588 C.ar    1  UNL1        0.0001
     50 C          58.1929   80.6271   11.5987 C.ar    1  UNL1        0.0012
     51 C          58.8952   81.7325   12.0831 C.ar    1  UNL1        0.0131
     52 H          61.6259   83.0305   13.2704 H       1  UNL1        0.1660
@<TRIPOS>BOND
     1    25    26    1
     2    26    24    1
     3    24    14    1
     4    14    15   ar
     5    15    16   ar
     6    16     8    1
     7     8     9    1
     8     9    10    1
     9    10    11    1
    10    11     1    1
    11     1     2   ar
    12     2     3   ar
    13     3     4   ar
    14     4    27    1
    15    27    28    2
    16    27    29   am
    17    29    31    1
    18    31    42    1
    19    42    43    1
    20    43    44   ar
    21    44    45   ar
    22    45    46   ar
    23    46    47   ar
    24    47    48   ar
    25    48    49   ar
    26    49    50   ar
    27    50    51   ar
    28    31    32    1
    29    32    33    2
    30    32    34   am
    31    34    36    1
    32    36    37   ar
    33    37    38   ar
    34    38    39   ar
    35    39    40   ar
    36    40    41   ar
    37     4     5   ar
    38     5     6    1
    39     5     7   ar
    40    11    12    1
    41    12    13    1
    42    16    17   ar
    43    17    18   ar
    44    18    19   ar
    45    19    20    1
    46    20    21    1
    47    20    22    1
    48    20    23    1
    49    19    14   ar
    50    13     8    1
    51     7     1   ar
    52    51    43   ar
    53    41    36   ar
    54    51    46   ar
    55    29    30    1
    56    45    52    1
    57    34    35    1
@<TRIPOS>MOLECULE
*****
 52 57 0 0 0
SMALL
GASTEIGER

@<TRIPOS>ATOM
      1 C          60.0483   87.5839    9.4046 C.ar    1  UNL1        0.0502
      2 C          59.7456   86.2379    9.1524 C.ar    1  UNL1        0.0148
      3 C          59.7968   85.2965   10.1829 C.ar    1  UNL1        0.0080
      4 C          60.1635   85.6767   11.4864 C.ar    1  UNL1        0.0808
      5 C          60.4680   87.0323   11.7368 C.ar    1  UNL1        0.1457
      6 F          60.7744   87.4714   12.9827 F       1  UNL1       -0.2040
      7 C          60.4104   87.9707   10.7023 C.ar    1  UNL1        0.0443
      8 N          60.3159   90.2040    6.1315 N.pl3   1  UNL1       -0.2897
      9 C          61.2312   90.3748    7.2678 C.3     1  UNL1        0.1136
     10 C          60.5590   89.8972    8.5534 C.3     1  UNL1        0.1123
     11 N          59.9851   88.5619    8.3499 N.pl3   1  UNL1       -0.3040
     12 C          59.0782   88.3719    7.2116 C.3     1  UNL1        0.1123
     13 C          59.7353   88.8721    5.9227 C.3     1  UNL1        0.1136
     14 C          61.3614   92.1907    3.1231 C.ar    1  UNL1        0.0155
     15 C          61.3746   91.2417    4.1576 C.ar    1  UNL1        0.0324
     16 C          60.3053   91.1610    5.0562 C.ar    1  UNL1        0.1315
     17 N          59.2617   92.0205    4.9265 N.ar    1  UNL1       -0.2292
     18 C          59.2042   92.9475    3.9373 C.ar    1  UNL1        0.1039
     19 C          60.2451   93.0614    2.9954 C.ar    1  UNL1        0.0890
     20 C          60.1442   94.0911    1.8858 C.3     1  UNL1        0.4198
     21 F          60.0464   93.4971    0.6388 F       1  UNL1       -0.1658
     22 F          61.2726   94.8912    1.8879 F       1  UNL1       -0.1658
     23 F          59.0207   94.8753    2.0725 F       1  UNL1       -0.1658
     24 C          62.5576   92.2254    2.1914 C.3     1  UNL1        0.1688
     25 C          64.5061   93.3410    1.6159 C.3     1  UNL1        0.1746
     26 O          63.4222   93.2971    2.5182 O.3     1  UNL1       -0.3463
     27 C          60.1696   84.6576   12.5669 C.2     1  UNL1        0.2483
     28 O          59.0888   84.3745   13.1534 O.2     1  UNL1       -0.2701
     29 N          61.3780   83.9829   12.9498 N.am    1  UNL1       -0.2945
     30 H          62.1630   83.9536   12.2619 H       1  UNL1        0.1501
     31 C          61.4930   83.2473   14.2185 C.3     1  UNL1        0.1535
     32 C          60.9447   81.8441   14.0961 C.2     1  UNL1        0.2443
     33 O          61.4687   80.9013   14.7506 O.2     1  UNL1       -0.2730
     34 N          59.7632   81.6109   13.3129 N.am    1  UNL1       -0.2825
     35 H          59.1880   82.4406   13.0414 H       1  UNL1        0.1549
     36 C          59.2591   80.3050   12.9847 C.ar    1  UNL1        0.0535
     37 C          59.1352   79.2981   13.9573 C.ar    1  UNL1        0.0353
     38 C          58.6627   78.0366   13.5864 C.ar    1  UNL1        0.1002
     39 N          58.3392   77.7825   12.2909 N.ar    1  UNL1       -0.2422
     40 C          58.4665   78.7313   11.3262 C.ar    1  UNL1        0.1002
     41 C          58.9363   80.0054   11.6541 C.ar    1  UNL1        0.0353
     42 C          62.9497   83.2292   14.7338 C.3     1  UNL1        0.0569
     43 C          63.5310   84.6055   14.9163 C.ar    1  UNL1       -0.0017
     44 C          64.8155   85.0158   14.5699 C.ar    1  UNL1        0.0681
     45 N          64.9725   86.3365   14.8133 N.ar    1  UNL1       -0.3523
     46 C          63.8007   86.7644   15.3138 C.ar    1  UNL1        0.0563
     47 C          63.4721   88.0635   15.6990 C.ar    1  UNL1        0.0170
     48 C          62.1743   88.2963   16.1889 C.ar    1  UNL1        0.0015
     49 C          61.2472   87.2362   16.2897 C.ar    1  UNL1        0.0001
     50 C          61.6076   85.9346   15.8976 C.ar    1  UNL1        0.0012
     51 C          62.8970   85.7359   15.4000 C.ar    1  UNL1        0.0131
     52 H          65.8297   86.9066   14.6384 H       1  UNL1        0.1660
@<TRIPOS>BOND
     1    25    26    1
     2    26    24    1
     3    24    14    1
     4    14    15   ar
     5    15    16   ar
     6    16     8    1
     7     8     9    1
     8     9    10    1
     9    10    11    1
    10    11     1    1
    11     1     2   ar
    12     2     3   ar
    13     3     4   ar
    14     4    27    1
    15    27    28    2
    16    27    29   am
    17    29    31    1
    18    31    42    1
    19    42    43    1
    20    43    44   ar
    21    44    45   ar
    22    45    46   ar
    23    46    47   ar
    24    47    48   ar
    25    48    49   ar
    26    49    50   ar
    27    50    51   ar
    28    31    32    1
    29    32    33    2
    30    32    34   am
    31    34    36    1
    32    36    37   ar
    33    37    38   ar
    34    38    39   ar
    35    39    40   ar
    36    40    41   ar
    37     4     5   ar
    38     5     6    1
    39     5     7   ar
    40    11    12    1
    41    12    13    1
    42    16    17   ar
    43    17    18   ar
    44    18    19   ar
    45    19    20    1
    46    20    21    1
    47    20    22    1
    48    20    23    1
    49    19    14   ar
    50    13     8    1
    51     7     1   ar
    52    51    43   ar
    53    41    36   ar
    54    51    46   ar
    55    29    30    1
    56    45    52    1
    57    34    35    1
@<TRIPOS>MOLECULE
*****
 52 57 0 0 0
SMALL
GASTEIGER

@<TRIPOS>ATOM
      1 C          60.4810   87.4975    9.7457 C.ar    1  UNL1        0.0502
      2 C          59.5819   86.4518   10.0007 C.ar    1  UNL1        0.0148
      3 C          59.7982   85.5779   11.0686 C.ar    1  UNL1        0.0080
      4 C          60.9245   85.7218   11.8985 C.ar    1  UNL1        0.0808
      5 C          61.8279   86.7752   11.6388 C.ar    1  UNL1        0.1457
      6 F          62.9020   87.0003   12.4353 F       1  UNL1       -0.2040
      7 C          61.6034   87.6495   10.5714 C.ar    1  UNL1        0.0443
      8 N          60.2976   89.9728    6.3562 N.pl3   1  UNL1       -0.2897
      9 C          61.2292   90.3061    7.4420 C.3     1  UNL1        0.1136
     10 C          60.6715   89.8125    8.7755 C.3     1  UNL1        0.1123
     11 N          60.2575   88.4097    8.6545 N.pl3   1  UNL1       -0.3040
     12 C          59.3364   88.0585    7.5671 C.3     1  UNL1        0.1123
     13 C          59.8762   88.5724    6.2300 C.3     1  UNL1        0.1136
     14 C          61.0413   92.1175    3.3666 C.ar    1  UNL1        0.0155
     15 C          61.2152   91.2284    4.4390 C.ar    1  UNL1        0.0324
     16 C          60.1278   90.8696    5.2430 C.ar    1  UNL1        0.1315
     17 N          58.9056   91.4023    4.9845 N.ar    1  UNL1       -0.2292
     18 C          58.6910   92.2588    3.9541 C.ar    1  UNL1        0.1039
     19 C          59.7462   92.6409    3.1032 C.ar    1  UNL1        0.0890
     20 C          59.4734   93.5817    1.9446 C.3     1  UNL1        0.4198
     21 F          60.4178   93.4503    0.9406 F       1  UNL1       -0.1658
     22 F          59.5055   94.8911    2.3895 F       1  UNL1       -0.1658
     23 F          58.2323   93.3088    1.3993 F       1  UNL1       -0.1658
     24 C          62.2659   92.4669    2.5428 C.3     1  UNL1        0.1688
     25 C          63.8210   90.8408    3.0993 C.3     1  UNL1        0.1746
     26 O          63.4537   92.1935    3.2618 O.3     1  UNL1       -0.3463
     27 C          61.1032   84.7994   13.0488 C.2     1  UNL1        0.2483
     28 O          60.3410   84.9058   14.0487 O.2     1  UNL1       -0.2701
     29 N          62.1191   83.7844   13.0410 N.am    1  UNL1       -0.2945
     30 H          62.4965   83.4747   12.1179 H       1  UNL1        0.1501
     31 C          62.5503   83.1019   14.2707 C.3     1  UNL1        0.1535
     32 C          62.6370   84.0618   15.4349 C.2     1  UNL1        0.2443
     33 O          62.3573   83.6687   16.6007 O.2     1  UNL1       -0.2730
     34 N          63.1375   85.3914   15.2212 N.am    1  UNL1       -0.2825
     35 H          63.6395   85.5838   14.3245 H       1  UNL1        0.1549
     36 C          63.0989   86.4352   16.2092 C.ar    1  UNL1        0.0535
     37 C          62.7974   86.1640   17.5548 C.ar    1  UNL1        0.0353
     38 C          62.7479   87.2145   18.4748 C.ar    1  UNL1        0.1002
     39 N          62.9760   88.4908   18.0667 N.ar    1  UNL1       -0.2422
     40 C          63.2515   88.7844   16.7686 C.ar    1  UNL1        0.1002
     41 C          63.3094   87.7640   15.8163 C.ar    1  UNL1        0.0353
     42 C          61.6323   81.9054   14.6073 C.3     1  UNL1        0.0569
     43 C          61.3008   81.0570   13.4089 C.ar    1  UNL1       -0.0017
     44 C          62.0370   79.9779   12.9276 C.ar    1  UNL1        0.0681
     45 N          61.4084   79.4075   11.8752 N.ar    1  UNL1       -0.3523
     46 C          60.2836   80.1180   11.6841 C.ar    1  UNL1        0.0563
     47 C          59.2987   79.8958   10.7225 C.ar    1  UNL1        0.0170
     48 C          58.1881   80.7587   10.7064 C.ar    1  UNL1        0.0015
     49 C          58.0915   81.8174   11.6356 C.ar    1  UNL1        0.0001
     50 C          59.1023   82.0204   12.5922 C.ar    1  UNL1        0.0012
     51 C          60.1852   81.1389   12.5952 C.ar    1  UNL1        0.0131
     52 H          61.7309   78.5777   11.3295 H       1  UNL1        0.1660
@<TRIPOS>BOND
     1    25    26    1
     2    26    24    1
     3    24    14    1
     4    14    15   ar
     5    15    16   ar
     6    16     8    1
     7     8     9    1
     8     9    10    1
     9    10    11    1
    10    11     1    1
    11     1     2   ar
    12     2     3   ar
    13     3     4   ar
    14     4    27    1
    15    27    28    2
    16    27    29   am
    17    29    31    1
    18    31    42    1
    19    42    43    1
    20    43    44   ar
    21    44    45   ar
    22    45    46   ar
    23    46    47   ar
    24    47    48   ar
    25    48    49   ar
    26    49    50   ar
    27    50    51   ar
    28    31    32    1
    29    32    33    2
    30    32    34   am
    31    34    36    1
    32    36    37   ar
    33    37    38   ar
    34    38    39   ar
    35    39    40   ar
    36    40    41   ar
    37     4     5   ar
    38     5     6    1
    39     5     7   ar
    40    11    12    1
    41    12    13    1
    42    16    17   ar
    43    17    18   ar
    44    18    19   ar
    45    19    20    1
    46    20    21    1
    47    20    22    1
    48    20    23    1
    49    19    14   ar
    50    13     8    1
    51     7     1   ar
    52    51    43   ar
    53    41    36   ar
    54    51    46   ar
    55    29    30    1
    56    45    52    1
    57    34    35    1
