@<TRIPOS>MOLECULE
*****
 45 51 0 0 0
SMALL
GASTEIGER

@<TRIPOS>ATOM
      1 C         -10.1317   -7.1481   29.4042 C.3     1  UNL1        0.0817
      2 C          -9.7907   -7.8453   28.0700 C.3     1  UNL1        0.0252
      3 C         -10.4100   -9.2544   28.1437 C.3     1  UNL1        0.0278
      4 C         -10.7568   -9.4160   29.5774 C.ar    1  UNL1       -0.0248
      5 C         -11.1999  -10.5831   30.2002 C.ar    1  UNL1       -0.0045
      6 C         -11.4229  -10.5744   31.5929 C.ar    1  UNL1       -0.0002
      7 C         -11.2312   -9.3744   32.3171 C.ar    1  UNL1       -0.0003
      8 C         -10.8105   -8.2068   31.6632 C.ar    1  UNL1       -0.0033
      9 C         -10.5661   -8.2582   30.2898 C.ar    1  UNL1       -0.0117
     10 C          -8.9316   -5.0104   30.0644 C.3     1  UNL1        0.1158
     11 N          -7.7632   -4.5669   30.5902 N.3     1  UNL1       -0.2851
     12 C          -7.0816   -5.6983   30.8204 C.3     1  UNL1        0.0910
     13 C          -5.8138   -5.8062   31.3675 C.3     1  UNL1        0.1018
     14 C          -5.2978   -7.0960   31.5466 C.3     1  UNL1        0.3136
     15 N          -6.0316   -8.2110   31.2016 N.am    1  UNL1       -0.1294
     16 C          -7.2635   -8.0770   30.5920 C.2     1  UNL1        0.4047
     17 O          -7.8848   -9.0904   30.1791 O.2     1  UNL1       -0.2174
     18 C          -7.8021   -6.7885   30.4364 C.3     1  UNL1        0.2038
     19 N          -8.9987   -6.3712   29.9498 N.3     1  UNL1       -0.2473
     20 H          -7.9236   -4.0538   31.4570 H       1  UNL1        0.1244
     21 C         -11.3362   -4.3791   30.2934 C.3     1  UNL1        0.0029
     22 C         -10.0035   -4.0486   29.6306 C.3     1  UNL1        0.0326
     23 C          -5.4581   -9.5450   31.4673 C.3     1  UNL1        0.3394
     24 C          -5.5527  -10.4511   30.2526 C.ar    1  UNL1        0.0505
     25 C          -6.4282  -11.5519   30.3009 C.ar    1  UNL1        0.0021
     26 C          -6.5563  -12.4099   29.2080 C.ar    1  UNL1       -0.0001
     27 C          -5.8158  -12.1824   28.0500 C.ar    1  UNL1       -0.0003
     28 C          -4.9397  -11.0987   27.9816 C.ar    1  UNL1       -0.0044
     29 C          -4.7831  -10.2323   29.0777 C.ar    1  UNL1       -0.0193
     30 C          -3.8550   -9.0547   28.9339 C.3     1  UNL1        0.0309
     31 C         -11.8938  -11.7998   32.2862 C.ar    1  UNL1        0.0030
     32 C         -13.1860  -12.2676   31.9986 C.ar    1  UNL1        0.0002
     33 C         -13.6532  -13.4632   32.5425 C.ar    1  UNL1        0.0028
     34 C         -12.8390  -14.2330   33.3871 C.ar    1  UNL1        0.0348
     35 C         -11.5470  -13.7648   33.6891 C.ar    1  UNL1        0.0059
     36 C         -11.0691  -12.5497   33.1663 C.ar    1  UNL1        0.0372
     37 C          -9.7247  -12.0921   33.5925 C.ar    1  UNL1        0.1806
     38 N          -8.7614  -11.6759   32.7482 N.ar    1  UNL1       -0.1084
     39 N          -7.7172  -11.4103   33.5207 N.ar    1  UNL1       -0.0229
     40 N          -8.0156  -11.6625   34.7862 N.ar    1  UNL1       -0.0464
     41 N          -9.2618  -12.0928   34.8537 N.ar    1  UNL1       -0.2388
     42 H          -9.7458  -12.3972   35.7243 H       1  UNL1        0.1923
     43 C         -13.3512  -15.5131   33.9485 C.2     1  UNL1        0.1735
     44 C         -13.9159  -16.5939   33.0757 C.3     1  UNL1        0.0773
     45 O         -13.3144  -15.7092   35.1940 O.2     1  UNL1       -0.2913
@<TRIPOS>BOND
     1    21    22    1
     2    22    10    1
     3    10    11    1
     4    11    12    1
     5    12    13    1
     6    13    14    1
     7    14    15    1
     8    15    23    1
     9    23    24    1
    10    24    25   ar
    11    25    26   ar
    12    26    27   ar
    13    27    28   ar
    14    28    29   ar
    15    29    30    1
    16    15    16    1
    17    16    17    2
    18    16    18    1
    19    18    19    1
    20    19     1    1
    21     1     2    1
    22     2     3    1
    23     3     4    1
    24     4     5   ar
    25     5     6   ar
    26     6    31    1
    27    31    32   ar
    28    32    33   ar
    29    33    34   ar
    30    34    43    1
    31    43    44    1
    32    43    45    2
    33    34    35   ar
    34    35    36   ar
    35    36    37    1
    36    37    38   ar
    37    38    39   ar
    38    39    40   ar
    39    40    41   ar
    40     6     7   ar
    41     7     8   ar
    42     8     9   ar
    43    19    10    1
    44     9     1    1
    45    18    12    1
    46     9     4   ar
    47    29    24   ar
    48    36    31   ar
    49    41    37   ar
    50    41    42    1
    51    11    20    1
@<TRIPOS>MOLECULE
*****
 45 51 0 0 0
SMALL
GASTEIGER

@<TRIPOS>ATOM
      1 C          -6.1240   -9.0797   32.5880 C.3     1  UNL1        0.0817
      2 C          -7.2589   -9.3009   33.6104 C.3     1  UNL1        0.0252
      3 C          -7.9156  -10.6471   33.2485 C.3     1  UNL1        0.0278
      4 C          -7.3842  -10.9500   31.8966 C.ar    1  UNL1       -0.0248
      5 C          -7.7946  -11.9825   31.0529 C.ar    1  UNL1       -0.0045
      6 C          -7.2229  -12.0856   29.7677 C.ar    1  UNL1       -0.0002
      7 C          -6.2199  -11.1660   29.3805 C.ar    1  UNL1       -0.0003
      8 C          -5.8053  -10.1526   30.2573 C.ar    1  UNL1       -0.0033
      9 C          -6.4156  -10.0577   31.5092 C.ar    1  UNL1       -0.0117
     10 C          -5.0492   -6.7894   32.3762 C.3     1  UNL1        0.1158
     11 N          -5.2472   -5.5705   31.8162 N.3     1  UNL1       -0.2851
     12 C          -6.4116   -5.7166   31.1677 C.3     1  UNL1        0.0910
     13 C          -7.0680   -4.7570   30.4151 C.3     1  UNL1        0.1018
     14 C          -8.2672   -5.1332   29.7968 C.3     1  UNL1        0.3136
     15 N          -8.7639   -6.4129   29.9254 N.am    1  UNL1       -0.1294
     16 C          -8.1296   -7.3314   30.7385 C.2     1  UNL1        0.4047
     17 O          -8.6403   -8.4634   30.9419 O.2     1  UNL1       -0.2174
     18 C          -6.9105   -6.9725   31.3380 C.3     1  UNL1        0.2038
     19 N          -6.0489   -7.6832   32.1096 N.3     1  UNL1       -0.2473
     20 H          -4.4943   -5.3391   31.1682 H       1  UNL1        0.1244
     21 C          -2.8843   -5.8800   33.2241 C.3     1  UNL1        0.0029
     22 C          -3.8435   -7.0650   33.2321 C.3     1  UNL1        0.0326
     23 C         -10.0018   -6.7667   29.2033 C.3     1  UNL1        0.3394
     24 C         -11.1170   -7.1596   30.1560 C.ar    1  UNL1        0.0505
     25 C         -11.5116   -8.5094   30.2098 C.ar    1  UNL1        0.0021
     26 C         -12.5265   -8.9220   31.0740 C.ar    1  UNL1       -0.0001
     27 C         -13.1615   -7.9962   31.8990 C.ar    1  UNL1       -0.0003
     28 C         -12.7881   -6.6525   31.8598 C.ar    1  UNL1       -0.0044
     29 C         -11.7798   -6.2132   30.9839 C.ar    1  UNL1       -0.0193
     30 C         -11.3883   -4.7590   31.0131 C.3     1  UNL1        0.0309
     31 C          -7.6384  -13.1721   28.8453 C.ar    1  UNL1        0.0030
     32 C          -6.6530  -13.7761   28.0480 C.ar    1  UNL1        0.0002
     33 C          -6.9589  -14.8639   27.2315 C.ar    1  UNL1        0.0028
     34 C          -8.2605  -15.3867   27.1918 C.ar    1  UNL1        0.0348
     35 C          -9.2559  -14.7794   27.9793 C.ar    1  UNL1        0.0059
     36 C          -8.9683  -13.6675   28.7912 C.ar    1  UNL1        0.0372
     37 C         -10.0894  -13.0415   29.5326 C.ar    1  UNL1        0.1806
     38 N         -10.7074  -11.9052   29.1569 N.ar    1  UNL1       -0.1084
     39 N         -11.6017  -11.6692   30.1067 N.ar    1  UNL1       -0.0229
     40 N         -11.5328  -12.6101   31.0362 N.ar    1  UNL1       -0.0464
     41 N         -10.5931  -13.4744   30.7003 N.ar    1  UNL1       -0.2388
     42 H         -10.3027  -14.2970   31.2692 H       1  UNL1        0.1923
     43 C          -8.5651  -16.5566   26.3229 C.2     1  UNL1        0.1735
     44 C          -8.5237  -16.4670   24.8265 C.3     1  UNL1        0.0773
     45 O          -8.8676  -17.6633   26.8470 O.2     1  UNL1       -0.2913
@<TRIPOS>BOND
     1    21    22    1
     2    22    10    1
     3    10    11    1
     4    11    12    1
     5    12    13    1
     6    13    14    1
     7    14    15    1
     8    15    23    1
     9    23    24    1
    10    24    25   ar
    11    25    26   ar
    12    26    27   ar
    13    27    28   ar
    14    28    29   ar
    15    29    30    1
    16    15    16    1
    17    16    17    2
    18    16    18    1
    19    18    19    1
    20    19     1    1
    21     1     2    1
    22     2     3    1
    23     3     4    1
    24     4     5   ar
    25     5     6   ar
    26     6    31    1
    27    31    32   ar
    28    32    33   ar
    29    33    34   ar
    30    34    43    1
    31    43    44    1
    32    43    45    2
    33    34    35   ar
    34    35    36   ar
    35    36    37    1
    36    37    38   ar
    37    38    39   ar
    38    39    40   ar
    39    40    41   ar
    40     6     7   ar
    41     7     8   ar
    42     8     9   ar
    43    19    10    1
    44     9     1    1
    45    18    12    1
    46     9     4   ar
    47    29    24   ar
    48    36    31   ar
    49    41    37   ar
    50    41    42    1
    51    11    20    1
