@<TRIPOS>MOLECULE
*****
 49 54 0 0 0
SMALL
GASTEIGER

@<TRIPOS>ATOM
      1 O          -6.1645  -16.6922   28.0953 O.2     1  UNL1       -0.2701
      2 C          -6.4642  -15.8095   27.2487 C.2     1  UNL1        0.2483
      3 N          -6.2769  -16.0671   25.8458 N.am    1  UNL1       -0.2945
      4 H          -5.8717  -16.9886   25.5634 H       1  UNL1        0.1501
      5 C          -7.0029  -14.5207   27.7041 C.ar    1  UNL1        0.0808
      6 C          -6.1165  -13.4952   28.0546 C.ar    1  UNL1        0.0080
      7 C          -6.5642  -12.4098   28.8089 C.ar    1  UNL1        0.0148
      8 C          -7.9033  -12.3377   29.2300 C.ar    1  UNL1        0.0502
      9 C          -8.8084  -13.3216   28.7893 C.ar    1  UNL1        0.0443
     10 C          -8.3610  -14.4070   28.0313 C.ar    1  UNL1        0.1457
     11 F          -9.2288  -15.4025   27.7177 F       1  UNL1       -0.2040
     12 N          -8.2906  -11.3673   30.2266 N.pl3   1  UNL1       -0.3040
     13 C          -7.9042  -11.6059   31.6305 C.3     1  UNL1        0.1123
     14 C          -9.0300  -11.1977   32.5894 C.3     1  UNL1        0.1136
     15 N         -10.3286  -11.4377   31.9459 N.pl3   1  UNL1       -0.2897
     16 C         -10.6256  -10.7495   30.6801 C.3     1  UNL1        0.1136
     17 C          -9.3262  -10.3581   29.9563 C.3     1  UNL1        0.1123
     18 C         -11.2229  -12.4626   32.4146 C.ar    1  UNL1        0.1318
     19 C         -10.9697  -13.1517   33.6102 C.ar    1  UNL1        0.0343
     20 C         -11.8309  -14.1733   34.0110 C.ar    1  UNL1        0.0083
     21 C         -12.9311  -14.5227   33.2151 C.ar    1  UNL1        0.0906
     22 C         -13.1580  -13.7971   32.0346 C.ar    1  UNL1        0.1041
     23 N         -12.3013  -12.8099   31.6603 N.ar    1  UNL1       -0.2292
     24 C         -13.8925  -15.5943   33.6610 C.3     1  UNL1        0.4200
     25 F         -13.5124  -16.8286   33.1629 F       1  UNL1       -0.1658
     26 F         -15.1726  -15.3208   33.2113 F       1  UNL1       -0.1658
     27 F         -13.9027  -15.6498   35.0420 F       1  UNL1       -0.1658
     28 C          -6.4376  -15.0200   24.8277 C.3     1  UNL1        0.1535
     29 C          -5.5247  -15.2920   23.6615 C.2     1  UNL1        0.2443
     30 O          -5.1754  -14.3417   22.9092 O.2     1  UNL1       -0.2730
     31 N          -5.0586  -16.6284   23.4143 N.am    1  UNL1       -0.2825
     32 H          -5.5327  -17.4191   23.9065 H       1  UNL1        0.1549
     33 C          -4.0695  -16.9526   22.4274 C.ar    1  UNL1        0.0535
     34 C          -2.8065  -17.4416   22.7952 C.ar    1  UNL1        0.0353
     35 C          -1.8801  -17.7670   21.8013 C.ar    1  UNL1        0.1002
     36 N          -2.2063  -17.6199   20.4898 N.ar    1  UNL1       -0.2422
     37 C          -3.4279  -17.1633   20.1068 C.ar    1  UNL1        0.1002
     38 C          -4.3845  -16.8317   21.0686 C.ar    1  UNL1        0.0353
     39 C          -7.9018  -14.9137   24.3732 C.3     1  UNL1        0.0569
     40 C          -8.2998  -16.1193   23.5653 C.ar    1  UNL1       -0.0017
     41 C          -8.2522  -16.2359   22.1791 C.ar    1  UNL1        0.0681
     42 N          -8.8343  -17.3901   21.7812 N.ar    1  UNL1       -0.3523
     43 C          -9.2642  -17.9956   22.9018 C.ar    1  UNL1        0.0563
     44 C          -9.9784  -19.1896   22.9952 C.ar    1  UNL1        0.0170
     45 C         -10.3893  -19.6125   24.2724 C.ar    1  UNL1        0.0015
     46 C         -10.0812  -18.8414   25.4148 C.ar    1  UNL1        0.0001
     47 C          -9.3573  -17.6419   25.2909 C.ar    1  UNL1        0.0012
     48 C          -8.9608  -17.2492   24.0114 C.ar    1  UNL1        0.0131
     49 H          -8.9580  -17.7208   20.7986 H       1  UNL1        0.1660
@<TRIPOS>BOND
     1     1     2    2
     2     2     3   am
     3     3    28    1
     4    28    39    1
     5    39    40    1
     6    40    41   ar
     7    41    42   ar
     8    42    43   ar
     9    43    44   ar
    10    44    45   ar
    11    45    46   ar
    12    46    47   ar
    13    47    48   ar
    14    28    29    1
    15    29    30    2
    16    29    31   am
    17    31    33    1
    18    33    34   ar
    19    34    35   ar
    20    35    36   ar
    21    36    37   ar
    22    37    38   ar
    23     2     5    1
    24     5     6   ar
    25     6     7   ar
    26     7     8   ar
    27     8    12    1
    28    12    13    1
    29    13    14    1
    30    14    15    1
    31    15    18    1
    32    18    19   ar
    33    19    20   ar
    34    20    21   ar
    35    21    24    1
    36    24    25    1
    37    24    26    1
    38    24    27    1
    39    21    22   ar
    40    22    23   ar
    41    15    16    1
    42    16    17    1
    43     8     9   ar
    44     9    10   ar
    45    10    11    1
    46    48    40   ar
    47    38    33   ar
    48    10     5   ar
    49    48    43   ar
    50    17    12    1
    51    23    18   ar
    52     3     4    1
    53    42    49    1
    54    31    32    1
@<TRIPOS>MOLECULE
*****
 49 54 0 0 0
SMALL
GASTEIGER

@<TRIPOS>ATOM
      1 O         -10.1726   -9.8318   28.7485 O.2     1  UNL1       -0.2701
      2 C          -9.7196  -10.4592   29.7418 C.2     1  UNL1        0.2483
      3 N          -9.9611   -9.9681   31.0723 N.am    1  UNL1       -0.2945
      4 H         -10.4986   -9.0776   31.1794 H       1  UNL1        0.1501
      5 C          -8.9456  -11.6900   29.5311 C.ar    1  UNL1        0.0808
      6 C          -7.5502  -11.6135   29.4472 C.ar    1  UNL1        0.0080
      7 C          -6.8217  -12.6747   28.9077 C.ar    1  UNL1        0.0148
      8 C          -7.4788  -13.8248   28.4374 C.ar    1  UNL1        0.0502
      9 C          -8.8708  -13.9337   28.6170 C.ar    1  UNL1        0.0443
     10 C          -9.6000  -12.8726   29.1601 C.ar    1  UNL1        0.1457
     11 F         -10.9539  -12.9548   29.2152 F       1  UNL1       -0.2040
     12 N          -6.7565  -14.7885   27.6410 N.pl3   1  UNL1       -0.3040
     13 C          -6.4141  -14.4377   26.2492 C.3     1  UNL1        0.1123
     14 C          -6.5776  -15.6470   25.3195 C.3     1  UNL1        0.1136
     15 N          -7.6795  -16.4887   25.8047 N.pl3   1  UNL1       -0.2897
     16 C          -7.5930  -17.0491   27.1621 C.3     1  UNL1        0.1136
     17 C          -6.6598  -16.2005   28.0421 C.3     1  UNL1        0.1123
     18 C          -8.9097  -16.6155   25.0697 C.ar    1  UNL1        0.1318
     19 C          -9.6439  -17.8109   25.0895 C.ar    1  UNL1        0.0343
     20 C         -10.8071  -17.9165   24.3267 C.ar    1  UNL1        0.0083
     21 C         -11.2296  -16.8425   23.5303 C.ar    1  UNL1        0.0906
     22 C         -10.4752  -15.6585   23.5519 C.ar    1  UNL1        0.1041
     23 N          -9.3411  -15.5808   24.2977 N.ar    1  UNL1       -0.2292
     24 C         -12.5083  -16.9304   22.7375 C.3     1  UNL1        0.4200
     25 F         -13.5467  -17.3799   23.5349 F       1  UNL1       -0.1658
     26 F         -12.3663  -17.8068   21.6758 F       1  UNL1       -0.1658
     27 F         -12.8266  -15.6776   22.2479 F       1  UNL1       -0.1658
     28 C          -9.3120  -10.5522   32.2539 C.3     1  UNL1        0.1535
     29 C          -8.2031   -9.6515   32.7297 C.2     1  UNL1        0.2443
     30 O          -7.9198   -9.6081   33.9581 O.2     1  UNL1       -0.2730
     31 N          -7.4769   -8.8499   31.7839 N.am    1  UNL1       -0.2825
     32 H          -7.8714   -8.7357   30.8229 H       1  UNL1        0.1549
     33 C          -6.3111   -8.0860   32.1229 C.ar    1  UNL1        0.0535
     34 C          -5.7278   -8.1736   33.3963 C.ar    1  UNL1        0.0353
     35 C          -4.5792   -7.4299   33.6780 C.ar    1  UNL1        0.1002
     36 N          -4.0276   -6.6373   32.7211 N.ar    1  UNL1       -0.2422
     37 C          -4.5639   -6.5470   31.4753 C.ar    1  UNL1        0.1002
     38 C          -5.7088   -7.2778   31.1513 C.ar    1  UNL1        0.0353
     39 C         -10.3341  -10.8120   33.3718 C.3     1  UNL1        0.0569
     40 C         -11.4270  -11.7297   32.8943 C.ar    1  UNL1       -0.0017
     41 C         -12.4236  -11.4170   31.9742 C.ar    1  UNL1        0.0681
     42 N         -13.3303  -12.4179   31.9006 N.ar    1  UNL1       -0.3523
     43 C         -12.9251  -13.3524   32.7780 C.ar    1  UNL1        0.0563
     44 C         -13.5710  -14.5459   33.0984 C.ar    1  UNL1        0.0170
     45 C         -13.0027  -15.3534   34.1003 C.ar    1  UNL1        0.0015
     46 C         -11.8151  -14.9547   34.7524 C.ar    1  UNL1        0.0001
     47 C         -11.1838  -13.7463   34.4071 C.ar    1  UNL1        0.0012
     48 C         -11.7694  -12.9673   33.4077 C.ar    1  UNL1        0.0131
     49 H         -14.1910  -12.4387   31.3097 H       1  UNL1        0.1660
@<TRIPOS>BOND
     1     1     2    2
     2     2     3   am
     3     3    28    1
     4    28    39    1
     5    39    40    1
     6    40    41   ar
     7    41    42   ar
     8    42    43   ar
     9    43    44   ar
    10    44    45   ar
    11    45    46   ar
    12    46    47   ar
    13    47    48   ar
    14    28    29    1
    15    29    30    2
    16    29    31   am
    17    31    33    1
    18    33    34   ar
    19    34    35   ar
    20    35    36   ar
    21    36    37   ar
    22    37    38   ar
    23     2     5    1
    24     5     6   ar
    25     6     7   ar
    26     7     8   ar
    27     8    12    1
    28    12    13    1
    29    13    14    1
    30    14    15    1
    31    15    18    1
    32    18    19   ar
    33    19    20   ar
    34    20    21   ar
    35    21    24    1
    36    24    25    1
    37    24    26    1
    38    24    27    1
    39    21    22   ar
    40    22    23   ar
    41    15    16    1
    42    16    17    1
    43     8     9   ar
    44     9    10   ar
    45    10    11    1
    46    48    40   ar
    47    38    33   ar
    48    10     5   ar
    49    48    43   ar
    50    17    12    1
    51    23    18   ar
    52     3     4    1
    53    42    49    1
    54    31    32    1
@<TRIPOS>MOLECULE
*****
 49 54 0 0 0
SMALL
GASTEIGER

@<TRIPOS>ATOM
      1 O         -10.1549  -10.0427   28.9443 O.2     1  UNL1       -0.2701
      2 C          -9.6054  -10.6766   29.8834 C.2     1  UNL1        0.2483
      3 N          -9.7499  -10.2191   31.2396 N.am    1  UNL1       -0.2945
      4 H         -10.3003   -9.3466   31.4098 H       1  UNL1        0.1501
      5 C          -8.8186  -11.8805   29.5831 C.ar    1  UNL1        0.0808
      6 C          -7.4314  -11.7696   29.4302 C.ar    1  UNL1        0.0080
      7 C          -6.7110  -12.7921   28.8111 C.ar    1  UNL1        0.0148
      8 C          -7.3685  -13.9371   28.3293 C.ar    1  UNL1        0.0502
      9 C          -8.7465  -14.0842   28.5761 C.ar    1  UNL1        0.0443
     10 C          -9.4676  -13.0619   29.1988 C.ar    1  UNL1        0.1457
     11 F         -10.8147  -13.1765   29.3205 F       1  UNL1       -0.2040
     12 N          -6.6696  -14.8522   27.4580 N.pl3   1  UNL1       -0.3040
     13 C          -6.4165  -14.4431   26.0631 C.3     1  UNL1        0.1123
     14 C          -6.6035  -15.6225   25.0999 C.3     1  UNL1        0.1136
     15 N          -7.6546  -16.5101   25.6152 N.pl3   1  UNL1       -0.2897
     16 C          -7.4764  -17.1159   26.9439 C.3     1  UNL1        0.1136
     17 C          -6.5152  -16.2745   27.8005 C.3     1  UNL1        0.1123
     18 C          -8.9215  -16.6434   24.9469 C.ar    1  UNL1        0.1318
     19 C          -9.6479  -17.8423   25.0066 C.ar    1  UNL1        0.0343
     20 C         -10.8495  -17.9542   24.3069 C.ar    1  UNL1        0.0083
     21 C         -11.3189  -16.8831   23.5333 C.ar    1  UNL1        0.0906
     22 C         -10.5700  -15.6955   23.5137 C.ar    1  UNL1        0.1041
     23 N          -9.3983  -15.6116   24.1980 N.ar    1  UNL1       -0.2292
     24 C         -12.6376  -16.9778   22.8097 C.3     1  UNL1        0.4200
     25 F         -13.6207  -17.4710   23.6502 F       1  UNL1       -0.1658
     26 F         -12.5368  -17.8224   21.7179 F       1  UNL1       -0.1658
     27 F         -13.0080  -15.7198   22.3732 F       1  UNL1       -0.1658
     28 C          -8.9907  -10.8078   32.3512 C.3     1  UNL1        0.1535
     29 C          -7.6443  -10.1432   32.4637 C.2     1  UNL1        0.2443
     30 O          -6.6077  -10.8521   32.5825 O.2     1  UNL1       -0.2730
     31 N          -7.5494   -8.7098   32.4347 N.am    1  UNL1       -0.2825
     32 H          -8.4237   -8.1512   32.5604 H       1  UNL1        0.1549
     33 C          -6.3046   -7.9991   32.3792 C.ar    1  UNL1        0.0535
     34 C          -5.8996   -7.3295   31.2143 C.ar    1  UNL1        0.0353
     35 C          -4.6902   -6.6299   31.2098 C.ar    1  UNL1        0.1002
     36 N          -3.9199   -6.5914   32.3292 N.ar    1  UNL1       -0.2422
     37 C          -4.2969   -7.2184   33.4748 C.ar    1  UNL1        0.1002
     38 C          -5.5008   -7.9243   33.5230 C.ar    1  UNL1        0.0353
     39 C          -9.7734  -10.7025   33.6696 C.3     1  UNL1        0.0569
     40 C         -10.2692  -12.0544   34.1065 C.ar    1  UNL1       -0.0017
     41 C          -9.6652  -12.8929   35.0391 C.ar    1  UNL1        0.0681
     42 N         -10.2878  -14.0933   35.0691 N.ar    1  UNL1       -0.3523
     43 C         -11.2685  -14.0268   34.1520 C.ar    1  UNL1        0.0563
     44 C         -12.1465  -15.0442   33.7800 C.ar    1  UNL1        0.0170
     45 C         -13.0604  -14.7786   32.7440 C.ar    1  UNL1        0.0015
     46 C         -13.0763  -13.5168   32.1101 C.ar    1  UNL1        0.0001
     47 C         -12.1802  -12.5082   32.5077 C.ar    1  UNL1        0.0012
     48 C         -11.2869  -12.7999   33.5398 C.ar    1  UNL1        0.0131
     49 H         -10.0301  -14.9159   35.6583 H       1  UNL1        0.1660
@<TRIPOS>BOND
     1     1     2    2
     2     2     3   am
     3     3    28    1
     4    28    39    1
     5    39    40    1
     6    40    41   ar
     7    41    42   ar
     8    42    43   ar
     9    43    44   ar
    10    44    45   ar
    11    45    46   ar
    12    46    47   ar
    13    47    48   ar
    14    28    29    1
    15    29    30    2
    16    29    31   am
    17    31    33    1
    18    33    34   ar
    19    34    35   ar
    20    35    36   ar
    21    36    37   ar
    22    37    38   ar
    23     2     5    1
    24     5     6   ar
    25     6     7   ar
    26     7     8   ar
    27     8    12    1
    28    12    13    1
    29    13    14    1
    30    14    15    1
    31    15    18    1
    32    18    19   ar
    33    19    20   ar
    34    20    21   ar
    35    21    24    1
    36    24    25    1
    37    24    26    1
    38    24    27    1
    39    21    22   ar
    40    22    23   ar
    41    15    16    1
    42    16    17    1
    43     8     9   ar
    44     9    10   ar
    45    10    11    1
    46    48    40   ar
    47    38    33   ar
    48    10     5   ar
    49    48    43   ar
    50    17    12    1
    51    23    18   ar
    52     3     4    1
    53    42    49    1
    54    31    32    1
@<TRIPOS>MOLECULE
*****
 49 54 0 0 0
SMALL
GASTEIGER

@<TRIPOS>ATOM
      1 O          -7.5648  -10.5241   31.8079 O.2     1  UNL1       -0.2701
      2 C          -8.4472  -10.9403   31.0118 C.2     1  UNL1        0.2483
      3 N          -9.8313  -10.6260   31.2460 N.am    1  UNL1       -0.2945
      4 H         -10.0733  -10.0675   32.0961 H       1  UNL1        0.1501
      5 C          -8.0528  -11.7465   29.8485 C.ar    1  UNL1        0.0808
      6 C          -8.8918  -12.7815   29.4186 C.ar    1  UNL1        0.0080
      7 C          -8.4020  -13.7714   28.5653 C.ar    1  UNL1        0.0148
      8 C          -7.0640  -13.7447   28.1356 C.ar    1  UNL1        0.0502
      9 C          -6.2572  -12.6478   28.4925 C.ar    1  UNL1        0.0443
     10 C          -6.7483  -11.6548   29.3443 C.ar    1  UNL1        0.1457
     11 F          -5.9157  -10.6699   29.7679 F       1  UNL1       -0.2040
     12 N          -6.4961  -14.9023   27.4857 N.pl3   1  UNL1       -0.3040
     13 C          -6.0646  -14.7806   26.0800 C.3     1  UNL1        0.1123
     14 C          -6.4078  -16.0477   25.2861 C.3     1  UNL1        0.1136
     15 N          -7.6483  -16.6317   25.8135 N.pl3   1  UNL1       -0.2897
     16 C          -7.6919  -17.0337   27.2280 C.3     1  UNL1        0.1136
     17 C          -6.6504  -16.2531   28.0473 C.3     1  UNL1        0.1123
     18 C          -8.8635  -16.6392   25.0436 C.ar    1  UNL1        0.1318
     19 C          -9.6613  -17.7905   24.9629 C.ar    1  UNL1        0.0343
     20 C         -10.8077  -17.7787   24.1682 C.ar    1  UNL1        0.0083
     21 C         -11.1503  -16.6308   23.4393 C.ar    1  UNL1        0.0906
     22 C         -10.3340  -15.4949   23.5609 C.ar    1  UNL1        0.1041
     23 N          -9.2177  -15.5316   24.3361 N.ar    1  UNL1       -0.2292
     24 C         -12.4103  -16.5929   22.6133 C.3     1  UNL1        0.4200
     25 F         -13.3705  -17.4334   23.1495 F       1  UNL1       -0.1658
     26 F         -12.1560  -16.9979   21.3145 F       1  UNL1       -0.1658
     27 F         -12.9026  -15.3014   22.5941 F       1  UNL1       -0.1658
     28 C         -10.9165  -11.2282   30.4595 C.3     1  UNL1        0.1535
     29 C         -11.8045  -12.0517   31.3543 C.2     1  UNL1        0.2443
     30 O         -13.0510  -11.8589   31.3426 O.2     1  UNL1       -0.2730
     31 N         -11.2278  -13.0490   32.2128 N.am    1  UNL1       -0.2825
     32 H         -10.1942  -13.0345   32.3671 H       1  UNL1        0.1549
     33 C         -12.0047  -13.9805   32.9785 C.ar    1  UNL1        0.0535
     34 C         -12.7300  -15.0084   32.3566 C.ar    1  UNL1        0.0353
     35 C         -13.4554  -15.9086   33.1410 C.ar    1  UNL1        0.1002
     36 N         -13.4481  -15.7933   34.4955 N.ar    1  UNL1       -0.2422
     37 C         -12.7414  -14.8164   35.1232 C.ar    1  UNL1        0.1002
     38 C         -11.9989  -13.8995   34.3762 C.ar    1  UNL1        0.0353
     39 C         -11.7225  -10.1505   29.7174 C.3     1  UNL1        0.0569
     40 C         -11.7865   -8.8811   30.5231 C.ar    1  UNL1       -0.0017
     41 C         -12.7113   -8.5821   31.5196 C.ar    1  UNL1        0.0681
     42 N         -12.5776   -7.2967   31.9185 N.ar    1  UNL1       -0.3523
     43 C         -11.5886   -6.7760   31.1714 C.ar    1  UNL1        0.0563
     44 C         -11.1266   -5.4604   31.1810 C.ar    1  UNL1        0.0170
     45 C         -10.1192   -5.1100   30.2639 C.ar    1  UNL1        0.0015
     46 C          -9.6019   -6.0711   29.3676 C.ar    1  UNL1        0.0001
     47 C         -10.0854   -7.3918   29.3818 C.ar    1  UNL1        0.0012
     48 C         -11.0832   -7.7106   30.3045 C.ar    1  UNL1        0.0131
     49 H         -13.1548   -6.8017   32.6341 H       1  UNL1        0.1660
@<TRIPOS>BOND
     1     1     2    2
     2     2     3   am
     3     3    28    1
     4    28    39    1
     5    39    40    1
     6    40    41   ar
     7    41    42   ar
     8    42    43   ar
     9    43    44   ar
    10    44    45   ar
    11    45    46   ar
    12    46    47   ar
    13    47    48   ar
    14    28    29    1
    15    29    30    2
    16    29    31   am
    17    31    33    1
    18    33    34   ar
    19    34    35   ar
    20    35    36   ar
    21    36    37   ar
    22    37    38   ar
    23     2     5    1
    24     5     6   ar
    25     6     7   ar
    26     7     8   ar
    27     8    12    1
    28    12    13    1
    29    13    14    1
    30    14    15    1
    31    15    18    1
    32    18    19   ar
    33    19    20   ar
    34    20    21   ar
    35    21    24    1
    36    24    25    1
    37    24    26    1
    38    24    27    1
    39    21    22   ar
    40    22    23   ar
    41    15    16    1
    42    16    17    1
    43     8     9   ar
    44     9    10   ar
    45    10    11    1
    46    48    40   ar
    47    38    33   ar
    48    10     5   ar
    49    48    43   ar
    50    17    12    1
    51    23    18   ar
    52     3     4    1
    53    42    49    1
    54    31    32    1
@<TRIPOS>MOLECULE
*****
 49 54 0 0 0
SMALL
GASTEIGER

@<TRIPOS>ATOM
      1 O          -8.7004  -16.3025   28.3157 O.2     1  UNL1       -0.2701
      2 C          -8.2565  -15.5006   27.4523 C.2     1  UNL1        0.2483
      3 N          -8.2637  -15.8669   26.0612 N.am    1  UNL1       -0.2945
      4 H          -8.6253  -16.8132   25.8022 H       1  UNL1        0.1501
      5 C          -7.7330  -14.1949   27.8762 C.ar    1  UNL1        0.0808
      6 C          -6.3985  -13.8723   27.6022 C.ar    1  UNL1        0.0080
      7 C          -5.7785  -12.8217   28.2801 C.ar    1  UNL1        0.0148
      8 C          -6.4818  -12.0832   29.2473 C.ar    1  UNL1        0.0502
      9 C          -7.8499  -12.3500   29.4440 C.ar    1  UNL1        0.0443
     10 C          -8.4719  -13.3998   28.7630 C.ar    1  UNL1        0.1457
     11 F          -9.7600  -13.7124   29.0556 F       1  UNL1       -0.2040
     12 N          -5.7664  -11.1909   30.1287 N.pl3   1  UNL1       -0.3040
     13 C          -6.2704  -11.0034   31.5027 C.3     1  UNL1        0.1123
     14 C          -6.1396   -9.5396   31.9431 C.3     1  UNL1        0.1136
     15 N          -6.3162   -8.6629   30.7777 N.pl3   1  UNL1       -0.2897
     16 C          -5.3970   -8.8113   29.6387 C.3     1  UNL1        0.1136
     17 C          -4.7862  -10.2226   29.6134 C.3     1  UNL1        0.1123
     18 C          -7.4676   -7.8108   30.6444 C.ar    1  UNL1        0.1318
     19 C          -7.3319   -6.4646   30.2733 C.ar    1  UNL1        0.0343
     20 C          -8.4645   -5.6535   30.2007 C.ar    1  UNL1        0.0083
     21 C          -9.7278   -6.1743   30.5153 C.ar    1  UNL1        0.0906
     22 C          -9.8219   -7.5307   30.8660 C.ar    1  UNL1        0.1041
     23 N          -8.7035   -8.3005   30.9368 N.ar    1  UNL1       -0.2292
     24 C         -10.9628   -5.3187   30.3968 C.3     1  UNL1        0.4200
     25 F         -11.3614   -4.8626   31.6415 F       1  UNL1       -0.1658
     26 F         -12.0068   -6.0405   29.8448 F       1  UNL1       -0.1658
     27 F         -10.6878   -4.2332   29.5865 F       1  UNL1       -0.1658
     28 C          -7.5998  -15.0545   25.0326 C.3     1  UNL1        0.1535
     29 C          -6.2283  -15.6066   24.7469 C.2     1  UNL1        0.2443
     30 O          -5.5292  -16.0590   25.6943 O.2     1  UNL1       -0.2730
     31 N          -5.7266  -15.6146   23.4005 N.am    1  UNL1       -0.2825
     32 H          -6.2224  -15.0400   22.6820 H       1  UNL1        0.1549
     33 C          -4.5042  -16.2582   23.0144 C.ar    1  UNL1        0.0535
     34 C          -3.5881  -15.6279   22.1583 C.ar    1  UNL1        0.0353
     35 C          -2.3985  -16.2805   21.8254 C.ar    1  UNL1        0.1002
     36 N          -2.1289  -17.5110   22.3366 N.ar    1  UNL1       -0.2422
     37 C          -2.9921  -18.1362   23.1801 C.ar    1  UNL1        0.1002
     38 C          -4.1899  -17.5163   23.5421 C.ar    1  UNL1        0.0353
     39 C          -8.4479  -14.9856   23.7528 C.3     1  UNL1        0.0569
     40 C          -9.0777  -16.3197   23.4563 C.ar    1  UNL1       -0.0017
     41 C          -8.4099  -17.5311   23.3008 C.ar    1  UNL1        0.0681
     42 N          -9.2647  -18.4921   22.8822 N.ar    1  UNL1       -0.3523
     43 C         -10.4626  -17.8952   22.7554 C.ar    1  UNL1        0.0563
     44 C         -11.6471  -18.4690   22.2949 C.ar    1  UNL1        0.0170
     45 C         -12.7779  -17.6405   22.1785 C.ar    1  UNL1        0.0015
     46 C         -12.7008  -16.2725   22.5208 C.ar    1  UNL1        0.0001
     47 C         -11.4930  -15.7210   22.9848 C.ar    1  UNL1        0.0012
     48 C         -10.3886  -16.5680   23.0923 C.ar    1  UNL1        0.0131
     49 H          -9.0291  -19.4857   22.6644 H       1  UNL1        0.1660
@<TRIPOS>BOND
     1     1     2    2
     2     2     3   am
     3     3    28    1
     4    28    39    1
     5    39    40    1
     6    40    41   ar
     7    41    42   ar
     8    42    43   ar
     9    43    44   ar
    10    44    45   ar
    11    45    46   ar
    12    46    47   ar
    13    47    48   ar
    14    28    29    1
    15    29    30    2
    16    29    31   am
    17    31    33    1
    18    33    34   ar
    19    34    35   ar
    20    35    36   ar
    21    36    37   ar
    22    37    38   ar
    23     2     5    1
    24     5     6   ar
    25     6     7   ar
    26     7     8   ar
    27     8    12    1
    28    12    13    1
    29    13    14    1
    30    14    15    1
    31    15    18    1
    32    18    19   ar
    33    19    20   ar
    34    20    21   ar
    35    21    24    1
    36    24    25    1
    37    24    26    1
    38    24    27    1
    39    21    22   ar
    40    22    23   ar
    41    15    16    1
    42    16    17    1
    43     8     9   ar
    44     9    10   ar
    45    10    11    1
    46    48    40   ar
    47    38    33   ar
    48    10     5   ar
    49    48    43   ar
    50    17    12    1
    51    23    18   ar
    52     3     4    1
    53    42    49    1
    54    31    32    1
@<TRIPOS>MOLECULE
*****
 49 54 0 0 0
SMALL
GASTEIGER

@<TRIPOS>ATOM
      1 O          -3.9241   -6.5563   33.5291 O.2     1  UNL1       -0.2701
      2 C          -4.8182   -7.2678   32.9999 C.2     1  UNL1        0.2483
      3 N          -4.6597   -8.6965   32.9446 N.am    1  UNL1       -0.2945
      4 H          -3.7825   -9.1110   33.3344 H       1  UNL1        0.1501
      5 C          -6.0176   -6.6291   32.4413 C.ar    1  UNL1        0.0808
      6 C          -7.2390   -6.7649   33.1120 C.ar    1  UNL1        0.0080
      7 C          -8.4359   -6.4846   32.4511 C.ar    1  UNL1        0.0148
      8 C          -8.4291   -6.0716   31.1076 C.ar    1  UNL1        0.0502
      9 C          -7.1936   -5.8425   30.4732 C.ar    1  UNL1        0.0443
     10 C          -5.9949   -6.1200   31.1357 C.ar    1  UNL1        0.1457
     11 F          -4.8209   -6.0029   30.4644 F       1  UNL1       -0.2040
     12 N          -9.6629   -6.0489   30.3580 N.pl3   1  UNL1       -0.3040
     13 C         -10.9019   -5.6478   31.0516 C.3     1  UNL1        0.1123
     14 C         -12.0905   -6.5047   30.5972 C.3     1  UNL1        0.1136
     15 N         -11.6202   -7.8592   30.2773 N.pl3   1  UNL1       -0.2897
     16 C         -10.5993   -8.0216   29.2306 C.3     1  UNL1        0.1136
     17 C          -9.7864   -6.7274   29.0586 C.3     1  UNL1        0.1123
     18 C         -11.9848   -8.9927   31.0846 C.ar    1  UNL1        0.1318
     19 C         -11.6811   -9.0330   32.4538 C.ar    1  UNL1        0.0343
     20 C         -12.0053  -10.1680   33.1972 C.ar    1  UNL1        0.0083
     21 C         -12.6127  -11.2691   32.5769 C.ar    1  UNL1        0.0906
     22 C         -12.9145  -11.1814   31.2084 C.ar    1  UNL1        0.1041
     23 N         -12.5832  -10.0678   30.5024 N.ar    1  UNL1       -0.2292
     24 C         -13.0074  -12.4819   33.3798 C.3     1  UNL1        0.4200
     25 F         -11.8907  -13.0876   33.9294 F       1  UNL1       -0.1658
     26 F         -13.6538  -13.4085   32.5803 F       1  UNL1       -0.1658
     27 F         -13.8575  -12.0956   34.3989 F       1  UNL1       -0.1658
     28 C          -5.5762   -9.5586   32.1860 C.3     1  UNL1        0.1535
     29 C          -4.9863   -9.8761   30.8375 C.2     1  UNL1        0.2443
     30 O          -4.2199  -10.8700   30.7113 O.2     1  UNL1       -0.2730
     31 N          -5.2996   -9.0472   29.7065 N.am    1  UNL1       -0.2825
     32 H          -5.7462   -8.1184   29.8796 H       1  UNL1        0.1549
     33 C          -4.9113   -9.3618   28.3619 C.ar    1  UNL1        0.0535
     34 C          -4.4212   -8.3730   27.4951 C.ar    1  UNL1        0.0353
     35 C          -4.0324   -8.7262   26.2005 C.ar    1  UNL1        0.1002
     36 N          -4.1194  -10.0195   25.7906 N.ar    1  UNL1       -0.2422
     37 C          -4.5759  -10.9986   26.6157 C.ar    1  UNL1        0.1002
     38 C          -4.9698  -10.6886   27.9190 C.ar    1  UNL1        0.0353
     39 C          -5.8980  -10.8425   32.9671 C.3     1  UNL1        0.0569
     40 C          -7.3494  -11.2102   32.8167 C.ar    1  UNL1       -0.0017
     41 C          -8.2487  -11.4597   33.8495 C.ar    1  UNL1        0.0681
     42 N          -9.4207  -11.9197   33.3554 N.ar    1  UNL1       -0.3523
     43 C          -9.2644  -11.9794   32.0215 C.ar    1  UNL1        0.0563
     44 C         -10.1841  -12.4483   31.0841 C.ar    1  UNL1        0.0170
     45 C          -9.7881  -12.4842   29.7347 C.ar    1  UNL1        0.0015
     46 C          -8.4967  -12.0557   29.3565 C.ar    1  UNL1        0.0001
     47 C          -7.5903  -11.5852   30.3235 C.ar    1  UNL1        0.0012
     48 C          -8.0121  -11.5588   31.6539 C.ar    1  UNL1        0.0131
     49 H         -10.2605  -12.2070   33.9054 H       1  UNL1        0.1660
@<TRIPOS>BOND
     1     1     2    2
     2     2     3   am
     3     3    28    1
     4    28    39    1
     5    39    40    1
     6    40    41   ar
     7    41    42   ar
     8    42    43   ar
     9    43    44   ar
    10    44    45   ar
    11    45    46   ar
    12    46    47   ar
    13    47    48   ar
    14    28    29    1
    15    29    30    2
    16    29    31   am
    17    31    33    1
    18    33    34   ar
    19    34    35   ar
    20    35    36   ar
    21    36    37   ar
    22    37    38   ar
    23     2     5    1
    24     5     6   ar
    25     6     7   ar
    26     7     8   ar
    27     8    12    1
    28    12    13    1
    29    13    14    1
    30    14    15    1
    31    15    18    1
    32    18    19   ar
    33    19    20   ar
    34    20    21   ar
    35    21    24    1
    36    24    25    1
    37    24    26    1
    38    24    27    1
    39    21    22   ar
    40    22    23   ar
    41    15    16    1
    42    16    17    1
    43     8     9   ar
    44     9    10   ar
    45    10    11    1
    46    48    40   ar
    47    38    33   ar
    48    10     5   ar
    49    48    43   ar
    50    17    12    1
    51    23    18   ar
    52     3     4    1
    53    42    49    1
    54    31    32    1
