@<TRIPOS>MOLECULE
*****
 41 43 0 0 0
SMALL
GASTEIGER

@<TRIPOS>ATOM
      1 N         -25.4982   -7.0044  -12.4929 N.pl3   1  UNL1       -0.2847
      2 C         -25.8741   -8.1979  -11.7193 C.3     1  UNL1        0.1049
      3 C         -25.1461   -8.2261  -10.3669 C.3     1  UNL1        0.0839
      4 S         -25.4860   -9.7943   -9.4940 S.3     1  UNL1       -0.1654
      5 C         -23.6267   -8.0049  -10.5174 C.3     1  UNL1        0.1119
      6 C         -23.3485   -6.7007  -11.2973 C.3     1  UNL1        0.1537
      7 C         -24.0662   -6.7069  -12.6549 C.3     1  UNL1        0.1238
      8 H         -26.8569   -9.5099   -9.3432 H       1  UNL1        0.1024
      9 C         -27.2579   -4.9890  -14.9531 C.ar    1  UNL1        0.1486
     10 N         -26.1736   -5.4197  -14.2506 N.ar    1  UNL1       -0.2193
     11 C         -26.4780   -6.3834  -13.3533 C.ar    1  UNL1        0.1635
     12 S         -28.1219   -6.7457  -13.3956 S.2     1  UNL1       -0.0449
     13 C         -28.4636   -5.6204  -14.6013 C.ar    1  UNL1        0.1295
     14 N         -28.0260   -3.9622  -17.1222 N.am    1  UNL1       -0.2988
     15 C         -27.0904   -3.9975  -16.0334 C.2     1  UNL1        0.2644
     16 O         -26.1610   -3.1483  -15.9745 O.2     1  UNL1       -0.2685
     17 H         -28.7324   -4.7299  -17.1970 H       1  UNL1        0.1498
     18 C         -28.0056   -2.9069  -18.1413 C.3     1  UNL1        0.1015
     19 C         -27.2777   -3.3946  -19.4003 C.3     1  UNL1        0.0239
     20 C         -29.4372   -2.4584  -18.4724 C.3     1  UNL1        0.1617
     21 C         -31.5224   -2.1808  -17.5331 C.3     1  UNL1        0.1742
     22 O         -30.1359   -2.1603  -17.2806 O.3     1  UNL1       -0.3494
     23 C         -29.8287   -5.3310  -15.0748 C.2     1  UNL1        0.3459
     24 O         -30.2908   -4.1639  -14.9657 O.2     1  UNL1       -0.2445
     25 O         -30.5948   -6.3144  -15.6917 O.3     1  UNL1       -0.4767
     26 H         -31.5264   -6.1104  -16.0333 H       1  UNL1        0.2954
     27 N         -22.9788   -9.1530  -11.1695 N.am    1  UNL1       -0.2980
     28 C         -21.8125   -9.7935  -10.6271 C.2     1  UNL1        0.2624
     29 O         -21.2556   -9.3195   -9.6003 O.2     1  UNL1       -0.2685
     30 H         -23.2946   -9.4266  -12.1251 H       1  UNL1        0.1498
     31 C         -21.2529  -11.0042  -11.2657 C.ar    1  UNL1        0.1220
     32 N         -20.2230  -11.7179  -10.7612 N.ar    1  UNL1       -0.3515
     33 C         -19.9868  -12.7299  -11.6186 C.ar    1  UNL1        0.0456
     34 C         -18.8780  -13.7194  -11.4556 C.3     1  UNL1        0.0507
     35 C         -20.8562  -12.6599  -12.6895 C.ar    1  UNL1        0.0811
     36 CL        -20.9093  -13.7365  -14.0753 Cl      1  UNL1       -0.0802
     37 C         -21.6655  -11.5645  -12.4679 C.ar    1  UNL1        0.0893
     38 CL        -22.9636  -11.0190  -13.5194 Cl      1  UNL1       -0.0797
     39 H         -19.6809  -11.5165   -9.8920 H       1  UNL1        0.1658
     40 O         -21.9559   -6.5538  -11.5257 O.3     1  UNL1       -0.3501
     41 C         -21.5380   -5.2370  -11.2394 C.3     1  UNL1        0.1741
@<TRIPOS>BOND
     1    21    22    1
     2    22    20    1
     3    20    18    1
     4    18    19    1
     5    18    14    1
     6    14    15   am
     7    15    16    2
     8    15     9    1
     9     9    10   ar
    10    10    11   ar
    11    11     1    1
    12     1     2    1
    13     2     3    1
    14     3     4    1
    15     3     5    1
    16     5    27    1
    17    27    28   am
    18    28    29    2
    19    28    31    1
    20    31    32   ar
    21    32    33   ar
    22    33    34    1
    23    33    35   ar
    24    35    36    1
    25    35    37   ar
    26    37    38    1
    27     5     6    1
    28     6    40    1
    29    40    41    1
    30     6     7    1
    31    11    12   ar
    32    12    13   ar
    33    13    23    1
    34    23    24    2
    35    23    25    1
    36    13     9   ar
    37     7     1    1
    38    37    31   ar
    39    14    17    1
    40     4     8    1
    41    27    30    1
    42    32    39    1
    43    25    26    1
@<TRIPOS>MOLECULE
*****
 41 43 0 0 0
SMALL
GASTEIGER

@<TRIPOS>ATOM
      1 N         -23.6716   -8.9970  -11.2996 N.pl3   1  UNL1       -0.2847
      2 C         -24.6427   -8.0648  -10.7061 C.3     1  UNL1        0.1049
      3 C         -26.0817   -8.5446  -10.9485 C.3     1  UNL1        0.0839
      4 S         -27.2768   -7.2941  -10.3615 S.3     1  UNL1       -0.1654
      5 C         -26.3395   -8.8910  -12.4297 C.3     1  UNL1        0.1119
      6 C         -25.2961   -9.9138  -12.9315 C.3     1  UNL1        0.1537
      7 C         -23.8671   -9.4011  -12.7009 C.3     1  UNL1        0.1238
      8 H         -26.8970   -7.4427   -9.0137 H       1  UNL1        0.1024
      9 C         -20.7143   -8.7873   -9.1969 C.ar    1  UNL1        0.1486
     10 N         -21.9350   -8.4007   -9.6609 N.ar    1  UNL1       -0.2193
     11 C         -22.3977   -9.1978  -10.6493 C.ar    1  UNL1        0.1635
     12 S         -21.3008  -10.4286  -10.9913 S.2     1  UNL1       -0.0449
     13 C         -20.1834   -9.9198   -9.8383 C.ar    1  UNL1        0.1295
     14 N         -19.9818   -8.7313   -6.7865 N.am    1  UNL1       -0.2988
     15 C         -20.0989   -8.0765   -8.0592 C.2     1  UNL1        0.2644
     16 O         -19.6278   -6.9182   -8.2168 O.2     1  UNL1       -0.2685
     17 H         -20.4581   -9.6531   -6.6550 H       1  UNL1        0.1498
     18 C         -19.2444   -8.1403   -5.6643 C.3     1  UNL1        0.1015
     19 C         -19.9229   -8.4932   -4.3347 C.3     1  UNL1        0.0239
     20 C         -17.7829   -8.6138   -5.6788 C.3     1  UNL1        0.1617
     21 C         -16.9515  -10.7498   -5.4472 C.3     1  UNL1        0.1742
     22 O         -17.6967   -9.8902   -6.2795 O.3     1  UNL1       -0.3494
     23 C         -18.8580  -10.5406   -9.6668 C.2     1  UNL1        0.3459
     24 O         -18.5845  -11.6045  -10.2840 O.2     1  UNL1       -0.2445
     25 O         -17.8839   -9.9393   -8.8768 O.3     1  UNL1       -0.4767
     26 H         -16.9668  -10.3569   -8.7735 H       1  UNL1        0.2954
     27 N         -26.3372   -7.6851  -13.2716 N.am    1  UNL1       -0.2980
     28 C         -27.5362   -7.1418  -13.8476 C.2     1  UNL1        0.2624
     29 O         -28.6312   -7.7512  -13.7104 O.2     1  UNL1       -0.2685
     30 H         -25.4203   -7.2884  -13.5712 H       1  UNL1        0.1498
     31 C         -27.4990   -5.8735  -14.6071 C.ar    1  UNL1        0.1220
     32 N         -26.3700   -5.1767  -14.8605 N.ar    1  UNL1       -0.3515
     33 C         -26.7307   -4.0804  -15.5556 C.ar    1  UNL1        0.0456
     34 C         -25.7765   -3.0101  -15.9790 C.3     1  UNL1        0.0507
     35 C         -28.0997   -4.0603  -15.7373 C.ar    1  UNL1        0.0811
     36 CL        -29.0363   -2.8175  -16.5500 Cl      1  UNL1       -0.0802
     37 C         -28.5926   -5.2009  -15.1372 C.ar    1  UNL1        0.0893
     38 CL        -30.2818   -5.6827  -15.0825 Cl      1  UNL1       -0.0797
     39 H         -25.4003   -5.4119  -14.5535 H       1  UNL1        0.1658
     40 O         -25.4702  -10.1507  -14.3195 O.3     1  UNL1       -0.3501
     41 C         -25.2345  -11.5069  -14.6291 C.3     1  UNL1        0.1741
@<TRIPOS>BOND
     1    21    22    1
     2    22    20    1
     3    20    18    1
     4    18    19    1
     5    18    14    1
     6    14    15   am
     7    15    16    2
     8    15     9    1
     9     9    10   ar
    10    10    11   ar
    11    11     1    1
    12     1     2    1
    13     2     3    1
    14     3     4    1
    15     3     5    1
    16     5    27    1
    17    27    28   am
    18    28    29    2
    19    28    31    1
    20    31    32   ar
    21    32    33   ar
    22    33    34    1
    23    33    35   ar
    24    35    36    1
    25    35    37   ar
    26    37    38    1
    27     5     6    1
    28     6    40    1
    29    40    41    1
    30     6     7    1
    31    11    12   ar
    32    12    13   ar
    33    13    23    1
    34    23    24    2
    35    23    25    1
    36    13     9   ar
    37     7     1    1
    38    37    31   ar
    39    14    17    1
    40     4     8    1
    41    27    30    1
    42    32    39    1
    43    25    26    1
@<TRIPOS>MOLECULE
*****
 41 43 0 0 0
SMALL
GASTEIGER

@<TRIPOS>ATOM
      1 N         -22.7161   -8.5564  -13.1433 N.pl3   1  UNL1       -0.2847
      2 C         -23.3501   -9.2760  -12.0278 C.3     1  UNL1        0.1049
      3 C         -23.7091   -8.3118  -10.8871 C.3     1  UNL1        0.0839
      4 S         -24.3333   -9.2394   -9.4426 S.3     1  UNL1       -0.1654
      5 C         -22.5200   -7.4144  -10.4856 C.3     1  UNL1        0.1119
      6 C         -21.9684   -6.6692  -11.7213 C.3     1  UNL1        0.1537
      7 C         -21.5938   -7.6553  -12.8373 C.3     1  UNL1        0.1238
      8 H         -25.4796   -9.6921  -10.1238 H       1  UNL1        0.1024
      9 C         -23.3365   -8.8181  -16.7151 C.ar    1  UNL1        0.1486
     10 N         -23.1458   -8.1658  -15.5349 N.ar    1  UNL1       -0.2193
     11 C         -22.9470   -9.0070  -14.4960 C.ar    1  UNL1        0.1635
     12 S         -22.9991  -10.6115  -15.0040 S.2     1  UNL1       -0.0449
     13 C         -23.2973  -10.2196  -16.6147 C.ar    1  UNL1        0.1295
     14 N         -24.2050   -8.6175  -19.0720 N.am    1  UNL1       -0.2988
     15 C         -23.4852   -8.0500  -17.9666 C.2     1  UNL1        0.2644
     16 O         -23.0293   -6.8779  -18.0476 O.2     1  UNL1       -0.2685
     17 H         -24.4950   -9.6208  -19.0151 H       1  UNL1        0.1498
     18 C         -24.5201   -7.8490  -20.2814 C.3     1  UNL1        0.1015
     19 C         -24.9413   -8.7900  -21.4172 C.3     1  UNL1        0.0239
     20 C         -25.6193   -6.8172  -19.9856 C.3     1  UNL1        0.1617
     21 C         -25.9331   -4.8125  -18.8947 C.3     1  UNL1        0.1742
     22 O         -25.0357   -5.5677  -19.6765 O.3     1  UNL1       -0.3494
     23 C         -23.5660  -11.2269  -17.6562 C.2     1  UNL1        0.3459
     24 O         -23.0360  -11.1035  -18.7926 O.2     1  UNL1       -0.2445
     25 O         -24.3515  -12.3425  -17.3860 O.3     1  UNL1       -0.4767
     26 H         -24.5212  -13.0439  -18.0969 H       1  UNL1        0.2954
     27 N         -21.4595   -8.1913   -9.8263 N.am    1  UNL1       -0.2980
     28 C         -20.7346   -7.6992   -8.6875 C.2     1  UNL1        0.2624
     29 O         -20.9386   -6.5268   -8.2715 O.2     1  UNL1       -0.2685
     30 H         -21.1300   -9.0703  -10.2808 H       1  UNL1        0.1498
     31 C         -19.7441   -8.5542   -7.9984 C.ar    1  UNL1        0.1220
     32 N         -19.3478   -8.3727   -6.7200 N.ar    1  UNL1       -0.3515
     33 C         -18.4340   -9.3255   -6.4512 C.ar    1  UNL1        0.0456
     34 C         -17.6993   -9.4340   -5.1537 C.3     1  UNL1        0.0507
     35 C         -18.2268  -10.1150   -7.5654 C.ar    1  UNL1        0.0811
     36 CL        -17.1062  -11.4586   -7.7107 Cl      1  UNL1       -0.0802
     37 C         -19.0603   -9.6291   -8.5519 C.ar    1  UNL1        0.0893
     38 CL        -19.2094  -10.2763  -10.1789 Cl      1  UNL1       -0.0797
     39 H         -19.6558   -7.6213   -6.0639 H       1  UNL1        0.1658
     40 O         -20.8112   -5.9273  -11.3700 O.3     1  UNL1       -0.3501
     41 C         -21.1444   -4.5869  -11.0823 C.3     1  UNL1        0.1741
@<TRIPOS>BOND
     1    21    22    1
     2    22    20    1
     3    20    18    1
     4    18    19    1
     5    18    14    1
     6    14    15   am
     7    15    16    2
     8    15     9    1
     9     9    10   ar
    10    10    11   ar
    11    11     1    1
    12     1     2    1
    13     2     3    1
    14     3     4    1
    15     3     5    1
    16     5    27    1
    17    27    28   am
    18    28    29    2
    19    28    31    1
    20    31    32   ar
    21    32    33   ar
    22    33    34    1
    23    33    35   ar
    24    35    36    1
    25    35    37   ar
    26    37    38    1
    27     5     6    1
    28     6    40    1
    29    40    41    1
    30     6     7    1
    31    11    12   ar
    32    12    13   ar
    33    13    23    1
    34    23    24    2
    35    23    25    1
    36    13     9   ar
    37     7     1    1
    38    37    31   ar
    39    14    17    1
    40     4     8    1
    41    27    30    1
    42    32    39    1
    43    25    26    1
@<TRIPOS>MOLECULE
*****
 41 43 0 0 0
SMALL
GASTEIGER

@<TRIPOS>ATOM
      1 N         -22.7839   -8.5369  -13.1994 N.pl3   1  UNL1       -0.2847
      2 C         -23.4535   -9.1093  -12.0212 C.3     1  UNL1        0.1049
      3 C         -23.7687   -8.0188  -10.9862 C.3     1  UNL1        0.0839
      4 S         -24.4390   -8.7651   -9.4596 S.3     1  UNL1       -0.1654
      5 C         -22.5393   -7.1422  -10.6694 C.3     1  UNL1        0.1119
      6 C         -21.9505   -6.5526  -11.9703 C.3     1  UNL1        0.1537
      7 C         -21.6208   -7.6630  -12.9785 C.3     1  UNL1        0.1238
      8 H         -25.6041   -9.2303  -10.0994 H       1  UNL1        0.1024
      9 C         -23.4215  -10.7427  -16.0170 C.ar    1  UNL1        0.1486
     10 N         -23.1909  -10.4366  -14.7101 N.ar    1  UNL1       -0.2193
     11 C         -23.0332   -9.1107  -14.5012 C.ar    1  UNL1        0.1635
     12 S         -23.1761   -8.2543  -15.9439 S.2     1  UNL1       -0.0449
     13 C         -23.4403   -9.6312  -16.8772 C.ar    1  UNL1        0.1295
     14 N         -23.1883  -13.2193  -15.6147 N.am    1  UNL1       -0.2988
     15 C         -23.6995  -12.1381  -16.4096 C.2     1  UNL1        0.2644
     16 O         -24.4286  -12.3812  -17.4084 O.2     1  UNL1       -0.2685
     17 H         -22.5143  -12.9973  -14.8464 H       1  UNL1        0.1498
     18 C         -23.5568  -14.6178  -15.8615 C.3     1  UNL1        0.1015
     19 C         -22.5835  -15.5610  -15.1434 C.3     1  UNL1        0.0239
     20 C         -25.0036  -14.8746  -15.4128 C.3     1  UNL1        0.1617
     21 C         -26.1496  -13.6764  -13.8133 C.3     1  UNL1        0.1742
     22 O         -25.1292  -14.6249  -14.0274 O.3     1  UNL1       -0.3494
     23 C         -23.5544   -9.6034  -18.3461 C.2     1  UNL1        0.3459
     24 O         -23.8046   -8.5154  -18.9304 O.2     1  UNL1       -0.2445
     25 O         -23.3347  -10.7501  -19.1020 O.3     1  UNL1       -0.4767
     26 H         -23.3956  -10.7267  -20.1129 H       1  UNL1        0.2954
     27 N         -21.5180   -7.8973   -9.9278 N.am    1  UNL1       -0.2980
     28 C         -20.8817   -7.3828   -8.7466 C.2     1  UNL1        0.2624
     29 O         -21.1297   -6.2088   -8.3600 O.2     1  UNL1       -0.2685
     30 H         -21.1459   -8.7766  -10.3475 H       1  UNL1        0.1498
     31 C         -19.9315   -8.2166   -7.9794 C.ar    1  UNL1        0.1220
     32 N         -19.5662   -7.9672   -6.7032 N.ar    1  UNL1       -0.3515
     33 C         -18.6834   -8.9222   -6.3517 C.ar    1  UNL1        0.0456
     34 C         -17.9875   -8.9686   -5.0292 C.3     1  UNL1        0.0507
     35 C         -18.4646   -9.7819   -7.4103 C.ar    1  UNL1        0.0811
     36 CL        -17.3731  -11.1566   -7.4426 Cl      1  UNL1       -0.0802
     37 C         -19.2588   -9.3380   -8.4477 C.ar    1  UNL1        0.0893
     38 CL        -19.3786  -10.0787  -10.0369 Cl      1  UNL1       -0.0797
     39 H         -19.8741   -7.1709   -6.1023 H       1  UNL1        0.1658
     40 O         -20.7602   -5.8340  -11.6879 O.3     1  UNL1       -0.3501
     41 C         -21.0571   -4.5258  -11.2509 C.3     1  UNL1        0.1741
@<TRIPOS>BOND
     1    21    22    1
     2    22    20    1
     3    20    18    1
     4    18    19    1
     5    18    14    1
     6    14    15   am
     7    15    16    2
     8    15     9    1
     9     9    10   ar
    10    10    11   ar
    11    11     1    1
    12     1     2    1
    13     2     3    1
    14     3     4    1
    15     3     5    1
    16     5    27    1
    17    27    28   am
    18    28    29    2
    19    28    31    1
    20    31    32   ar
    21    32    33   ar
    22    33    34    1
    23    33    35   ar
    24    35    36    1
    25    35    37   ar
    26    37    38    1
    27     5     6    1
    28     6    40    1
    29    40    41    1
    30     6     7    1
    31    11    12   ar
    32    12    13   ar
    33    13    23    1
    34    23    24    2
    35    23    25    1
    36    13     9   ar
    37     7     1    1
    38    37    31   ar
    39    14    17    1
    40     4     8    1
    41    27    30    1
    42    32    39    1
    43    25    26    1
@<TRIPOS>MOLECULE
*****
 41 43 0 0 0
SMALL
GASTEIGER

@<TRIPOS>ATOM
      1 N         -20.9423   -8.3226   -8.6029 N.pl3   1  UNL1       -0.2847
      2 C         -20.7145   -7.1221   -9.4220 C.3     1  UNL1        0.1049
      3 C         -22.0397   -6.4078   -9.7279 C.3     1  UNL1        0.0839
      4 S         -21.7632   -5.0228  -10.8865 S.3     1  UNL1       -0.1654
      5 C         -23.1093   -7.3735  -10.2789 C.3     1  UNL1        0.1119
      6 C         -23.3035   -8.5658   -9.3160 C.3     1  UNL1        0.1537
      7 C         -21.9702   -9.2781   -9.0455 C.3     1  UNL1        0.1238
      8 H         -20.9807   -4.2996   -9.9659 H       1  UNL1        0.1024
      9 C         -18.9059   -8.7687   -5.6255 C.ar    1  UNL1        0.1486
     10 N         -19.9336   -8.2582   -6.3589 N.ar    1  UNL1       -0.2193
     11 C         -19.9476   -8.7134   -7.6314 C.ar    1  UNL1        0.1635
     12 S         -18.6730   -9.7800   -7.9016 S.2     1  UNL1       -0.0449
     13 C         -18.0707   -9.6497   -6.3341 C.ar    1  UNL1        0.1295
     14 N         -19.4000   -7.2465   -3.6791 N.am    1  UNL1       -0.2988
     15 C         -18.7899   -8.4414   -4.1910 C.2     1  UNL1        0.2644
     16 O         -18.2040   -9.2347   -3.4062 O.2     1  UNL1       -0.2685
     17 H         -19.8012   -6.5612   -4.3599 H       1  UNL1        0.1498
     18 C         -19.4538   -6.9448   -2.2443 C.3     1  UNL1        0.1015
     19 C         -19.3098   -5.4358   -2.0103 C.3     1  UNL1        0.0239
     20 C         -20.7627   -7.4732   -1.6376 C.3     1  UNL1        0.1617
     21 C         -21.6806   -9.4728   -2.3207 C.3     1  UNL1        0.1742
     22 O         -21.5350   -8.1070   -2.6373 O.3     1  UNL1       -0.3494
     23 C         -16.8213  -10.2933   -5.8912 C.2     1  UNL1        0.3459
     24 O         -16.4506  -11.3699   -6.4308 O.2     1  UNL1       -0.2445
     25 O         -16.0156   -9.7006   -4.9247 O.3     1  UNL1       -0.4767
     26 H         -15.1477  -10.1343   -4.6333 H       1  UNL1        0.2954
     27 N         -22.7650   -7.8422  -11.6297 N.am    1  UNL1       -0.2980
     28 C         -23.7323   -7.9264  -12.6890 C.2     1  UNL1        0.2624
     29 O         -24.9450   -7.6750  -12.4539 O.2     1  UNL1       -0.2685
     30 H         -21.8200   -8.2541  -11.7883 H       1  UNL1        0.1498
     31 C         -23.3202   -8.3112  -14.0561 C.ar    1  UNL1        0.1220
     32 N         -23.5288   -7.5490  -15.1515 N.ar    1  UNL1       -0.3515
     33 C         -23.0367   -8.2294  -16.2051 C.ar    1  UNL1        0.0456
     34 C         -23.1274   -7.7553  -17.6200 C.3     1  UNL1        0.0507
     35 C         -22.5236   -9.4431  -15.7910 C.ar    1  UNL1        0.0811
     36 CL        -21.8087  -10.6854  -16.8048 Cl      1  UNL1       -0.0802
     37 C         -22.6997   -9.4983  -14.4236 C.ar    1  UNL1        0.0893
     38 CL        -22.2119  -10.8252  -13.3797 Cl      1  UNL1       -0.0797
     39 H         -24.0090   -6.6230  -15.1945 H       1  UNL1        0.1658
     40 O         -24.2092   -9.5044   -9.8745 O.3     1  UNL1       -0.3501
     41 C         -25.5237   -9.2602   -9.4242 C.3     1  UNL1        0.1741
@<TRIPOS>BOND
     1    21    22    1
     2    22    20    1
     3    20    18    1
     4    18    19    1
     5    18    14    1
     6    14    15   am
     7    15    16    2
     8    15     9    1
     9     9    10   ar
    10    10    11   ar
    11    11     1    1
    12     1     2    1
    13     2     3    1
    14     3     4    1
    15     3     5    1
    16     5    27    1
    17    27    28   am
    18    28    29    2
    19    28    31    1
    20    31    32   ar
    21    32    33   ar
    22    33    34    1
    23    33    35   ar
    24    35    36    1
    25    35    37   ar
    26    37    38    1
    27     5     6    1
    28     6    40    1
    29    40    41    1
    30     6     7    1
    31    11    12   ar
    32    12    13   ar
    33    13    23    1
    34    23    24    2
    35    23    25    1
    36    13     9   ar
    37     7     1    1
    38    37    31   ar
    39    14    17    1
    40     4     8    1
    41    27    30    1
    42    32    39    1
    43    25    26    1
@<TRIPOS>MOLECULE
*****
 41 43 0 0 0
SMALL
GASTEIGER

@<TRIPOS>ATOM
      1 N         -25.7133   -6.4218  -13.0146 N.pl3   1  UNL1       -0.2847
      2 C         -26.2439   -7.5833  -12.2841 C.3     1  UNL1        0.1049
      3 C         -25.6625   -7.6497  -10.8638 C.3     1  UNL1        0.0839
      4 S         -26.1919   -9.1869  -10.0308 S.3     1  UNL1       -0.1654
      5 C         -24.1244   -7.5285  -10.8567 C.3     1  UNL1        0.1119
      6 C         -23.6831   -6.2502  -11.6035 C.3     1  UNL1        0.1537
      7 C         -24.2559   -6.2189  -13.0280 C.3     1  UNL1        0.1238
      8 H         -27.5495   -8.8132  -10.0223 H       1  UNL1        0.1024
      9 C         -28.4883   -5.0908  -14.9482 C.ar    1  UNL1        0.1486
     10 N         -27.9063   -5.8154  -13.9528 N.ar    1  UNL1       -0.2193
     11 C         -26.5568   -5.7444  -13.9715 C.ar    1  UNL1        0.1635
     12 S         -26.0244   -4.7685  -15.2362 S.2     1  UNL1       -0.0449
     13 C         -27.5781   -4.4291  -15.7906 C.ar    1  UNL1        0.1295
     14 N         -30.6194   -3.8055  -14.5529 N.am    1  UNL1       -0.2988
     15 C         -29.9589   -4.9903  -15.0241 C.2     1  UNL1        0.2644
     16 O         -30.6302   -5.9180  -15.5504 O.2     1  UNL1       -0.2685
     17 H         -30.0539   -3.0905  -14.0402 H       1  UNL1        0.1498
     18 C         -32.0568   -3.5800  -14.7417 C.3     1  UNL1        0.1015
     19 C         -32.6423   -2.8314  -13.5377 C.3     1  UNL1        0.0239
     20 C         -32.3080   -2.8070  -16.0454 C.3     1  UNL1        0.1617
     21 C         -31.3188   -1.7816  -17.8559 C.3     1  UNL1        0.1742
     22 O         -31.0772   -2.5099  -16.6734 O.3     1  UNL1       -0.3494
     23 C         -27.8494   -3.6546  -17.0146 C.2     1  UNL1        0.3459
     24 O         -27.0613   -2.7323  -17.3548 O.2     1  UNL1       -0.2445
     25 O         -28.9326   -3.9636  -17.8306 O.3     1  UNL1       -0.4767
     26 H         -29.1085   -3.4426  -18.6813 H       1  UNL1        0.2954
     27 N         -23.4890   -8.7204  -11.4386 N.am    1  UNL1       -0.2980
     28 C         -22.3001   -9.3098  -10.8875 C.2     1  UNL1        0.2624
     29 O         -21.7134   -8.7536   -9.9202 O.2     1  UNL1       -0.2685
     30 H         -23.8341   -9.0699  -12.3587 H       1  UNL1        0.1498
     31 C         -21.7519  -10.5636  -11.4480 C.ar    1  UNL1        0.1220
     32 N         -20.7796  -11.2935  -10.8594 N.ar    1  UNL1       -0.3515
     33 C         -20.5343  -12.3458  -11.6642 C.ar    1  UNL1        0.0456
     34 C         -19.4747  -13.3673  -11.4016 C.3     1  UNL1        0.0507
     35 C         -21.3392  -12.2864  -12.7850 C.ar    1  UNL1        0.0811
     36 CL        -21.3555  -13.4134  -14.1310 Cl      1  UNL1       -0.0802
     37 C         -22.1175  -11.1550  -12.6505 C.ar    1  UNL1        0.0893
     38 CL        -23.3332  -10.6047  -13.7940 Cl      1  UNL1       -0.0797
     39 H         -20.2798  -11.0780   -9.9686 H       1  UNL1        0.1658
     40 O         -22.2678   -6.1954  -11.6870 O.3     1  UNL1       -0.3501
     41 C         -21.7555   -5.1862  -10.8445 C.3     1  UNL1        0.1741
@<TRIPOS>BOND
     1    21    22    1
     2    22    20    1
     3    20    18    1
     4    18    19    1
     5    18    14    1
     6    14    15   am
     7    15    16    2
     8    15     9    1
     9     9    10   ar
    10    10    11   ar
    11    11     1    1
    12     1     2    1
    13     2     3    1
    14     3     4    1
    15     3     5    1
    16     5    27    1
    17    27    28   am
    18    28    29    2
    19    28    31    1
    20    31    32   ar
    21    32    33   ar
    22    33    34    1
    23    33    35   ar
    24    35    36    1
    25    35    37   ar
    26    37    38    1
    27     5     6    1
    28     6    40    1
    29    40    41    1
    30     6     7    1
    31    11    12   ar
    32    12    13   ar
    33    13    23    1
    34    23    24    2
    35    23    25    1
    36    13     9   ar
    37     7     1    1
    38    37    31   ar
    39    14    17    1
    40     4     8    1
    41    27    30    1
    42    32    39    1
    43    25    26    1
@<TRIPOS>MOLECULE
*****
 41 43 0 0 0
SMALL
GASTEIGER

@<TRIPOS>ATOM
      1 N         -21.0061   -8.8438   -9.7410 N.pl3   1  UNL1       -0.2847
      2 C         -20.8322   -7.4423  -10.1525 C.3     1  UNL1        0.1049
      3 C         -22.1066   -6.6289   -9.8802 C.3     1  UNL1        0.0839
      4 S         -21.9390   -4.9391  -10.5535 S.3     1  UNL1       -0.1654
      5 C         -23.3686   -7.3162  -10.4420 C.3     1  UNL1        0.1119
      6 C         -23.4778   -8.7604   -9.9044 C.3     1  UNL1        0.1537
      7 C         -22.2029   -9.5600  -10.2104 C.3     1  UNL1        0.1238
      8 H         -20.9019   -4.5980   -9.6642 H       1  UNL1        0.1024
      9 C         -18.2860  -10.1577   -7.7197 C.ar    1  UNL1        0.1486
     10 N         -19.3448   -9.3471   -7.9964 N.ar    1  UNL1       -0.2193
     11 C         -19.8731   -9.5722   -9.2198 C.ar    1  UNL1        0.1635
     12 S         -19.0405  -10.7998  -10.0167 S.2     1  UNL1       -0.0449
     13 C         -17.9539  -11.0495   -8.7543 C.ar    1  UNL1        0.1295
     14 N         -18.1352   -9.1937   -5.3965 N.am    1  UNL1       -0.2988
     15 C         -17.6421  -10.1027   -6.3928 C.2     1  UNL1        0.2644
     16 O         -16.6969  -10.8887   -6.1150 O.2     1  UNL1       -0.2685
     17 H         -18.8576   -8.4913   -5.6770 H       1  UNL1        0.1498
     18 C         -17.6419   -9.2001   -4.0147 C.3     1  UNL1        0.1015
     19 C         -16.4023   -8.3059   -3.8863 C.3     1  UNL1        0.0239
     20 C         -18.7497   -8.7465   -3.0516 C.3     1  UNL1        0.1617
     21 C         -21.0198   -9.0907   -3.2399 C.3     1  UNL1        0.1742
     22 O         -19.9120   -8.4073   -3.7806 O.3     1  UNL1       -0.3494
     23 C         -16.8162  -11.9823   -8.8384 C.2     1  UNL1        0.3459
     24 O         -17.0301  -13.2090   -9.0308 O.2     1  UNL1       -0.2445
     25 O         -15.5063  -11.5205   -8.7645 O.3     1  UNL1       -0.4767
     26 H         -14.7241  -12.1596   -8.8404 H       1  UNL1        0.2954
     27 N         -23.3778   -7.3030  -11.9126 N.am    1  UNL1       -0.2980
     28 C         -24.5430   -6.9492  -12.6754 C.2     1  UNL1        0.2624
     29 O         -25.6338   -6.7198  -12.0864 O.2     1  UNL1       -0.2685
     30 H         -22.5537   -7.6923  -12.4195 H       1  UNL1        0.1498
     31 C         -24.4781   -6.8562  -14.1498 C.ar    1  UNL1        0.1220
     32 N         -23.6418   -7.5880  -14.9175 N.ar    1  UNL1       -0.3515
     33 C         -23.8566   -7.2206  -16.1958 C.ar    1  UNL1        0.0456
     34 C         -23.0822   -7.7539  -17.3582 C.3     1  UNL1        0.0507
     35 C         -24.8232   -6.2357  -16.2525 C.ar    1  UNL1        0.0811
     36 CL        -25.4130   -5.4202  -17.6911 Cl      1  UNL1       -0.0802
     37 C         -25.2233   -6.0023  -14.9528 C.ar    1  UNL1        0.0893
     38 CL        -26.4486   -4.8478  -14.4487 Cl      1  UNL1       -0.0797
     39 H         -22.9343   -8.2843  -14.5943 H       1  UNL1        0.1658
     40 O         -24.5793   -9.4243  -10.5035 O.3     1  UNL1       -0.3501
     41 C         -25.6949   -9.4221   -9.6399 C.3     1  UNL1        0.1741
@<TRIPOS>BOND
     1    21    22    1
     2    22    20    1
     3    20    18    1
     4    18    19    1
     5    18    14    1
     6    14    15   am
     7    15    16    2
     8    15     9    1
     9     9    10   ar
    10    10    11   ar
    11    11     1    1
    12     1     2    1
    13     2     3    1
    14     3     4    1
    15     3     5    1
    16     5    27    1
    17    27    28   am
    18    28    29    2
    19    28    31    1
    20    31    32   ar
    21    32    33   ar
    22    33    34    1
    23    33    35   ar
    24    35    36    1
    25    35    37   ar
    26    37    38    1
    27     5     6    1
    28     6    40    1
    29    40    41    1
    30     6     7    1
    31    11    12   ar
    32    12    13   ar
    33    13    23    1
    34    23    24    2
    35    23    25    1
    36    13     9   ar
    37     7     1    1
    38    37    31   ar
    39    14    17    1
    40     4     8    1
    41    27    30    1
    42    32    39    1
    43    25    26    1
@<TRIPOS>MOLECULE
*****
 41 43 0 0 0
SMALL
GASTEIGER

@<TRIPOS>ATOM
      1 N         -25.2529   -7.4046  -14.0544 N.pl3   1  UNL1       -0.2847
      2 C         -25.5357   -8.5296  -13.1497 C.3     1  UNL1        0.1049
      3 C         -24.3387   -8.8053  -12.2272 C.3     1  UNL1        0.0839
      4 S         -24.6345  -10.3091  -11.2332 S.3     1  UNL1       -0.1654
      5 C         -23.0139   -8.9215  -13.0094 C.3     1  UNL1        0.1119
      6 C         -22.7943   -7.6665  -13.8830 C.3     1  UNL1        0.1537
      7 C         -23.9923   -7.4263  -14.8132 C.3     1  UNL1        0.1238
      8 H         -25.7123   -9.7346  -10.5324 H       1  UNL1        0.1024
      9 C         -27.3162   -4.7758  -15.4838 C.ar    1  UNL1        0.1486
     10 N         -26.1569   -5.4493  -15.2446 N.ar    1  UNL1       -0.2193
     11 C         -26.3304   -6.5269  -14.4475 C.ar    1  UNL1        0.1635
     12 S         -27.9462   -6.6910  -14.0029 S.2     1  UNL1       -0.0449
     13 C         -28.4458   -5.3259  -14.8535 C.ar    1  UNL1        0.1295
     14 N         -28.1848   -3.6262  -17.5510 N.am    1  UNL1       -0.2988
     15 C         -27.3220   -3.6212  -16.4031 C.2     1  UNL1        0.2644
     16 O         -26.6125   -2.6099  -16.1534 O.2     1  UNL1       -0.2685
     17 H         -28.6950   -4.5083  -17.7868 H       1  UNL1        0.1498
     18 C         -28.3513   -2.4509  -18.4134 C.3     1  UNL1        0.1015
     19 C         -27.7173   -2.7028  -19.7872 C.3     1  UNL1        0.0239
     20 C         -29.8401   -2.0977  -18.5509 C.3     1  UNL1        0.1617
     21 C         -31.7320   -2.2526  -17.2453 C.3     1  UNL1        0.1742
     22 O         -30.6154   -2.9569  -17.7395 O.3     1  UNL1       -0.3494
     23 C         -29.8228   -4.8029  -14.8076 C.2     1  UNL1        0.3459
     24 O         -30.0176   -3.5854  -14.5482 O.2     1  UNL1       -0.2445
     25 O         -30.9084   -5.6212  -15.1017 O.3     1  UNL1       -0.4767
     26 H         -31.8535   -5.2569  -15.0877 H       1  UNL1        0.2954
     27 N         -22.9793  -10.1423  -13.8289 N.am    1  UNL1       -0.2980
     28 C         -22.0723  -11.2252  -13.5652 C.2     1  UNL1        0.2624
     29 O         -21.2070  -11.1126  -12.6554 O.2     1  UNL1       -0.2685
     30 H         -23.5368  -10.1668  -14.7100 H       1  UNL1        0.1498
     31 C         -22.1394  -12.4730  -14.3560 C.ar    1  UNL1        0.1220
     32 N         -21.1235  -12.9458  -15.1101 N.ar    1  UNL1       -0.3515
     33 C         -21.5576  -14.0825  -15.6887 C.ar    1  UNL1        0.0456
     34 C         -20.7504  -14.8862  -16.6571 C.3     1  UNL1        0.0507
     35 C         -22.8644  -14.3358  -15.3203 C.ar    1  UNL1        0.0811
     36 CL        -23.8658  -15.6782  -15.8469 Cl      1  UNL1       -0.0802
     37 C         -23.2380  -13.3152  -14.4702 C.ar    1  UNL1        0.0893
     38 CL        -24.8054  -13.1503  -13.6927 Cl      1  UNL1       -0.0797
     39 H         -20.1870  -12.5076  -15.2545 H       1  UNL1        0.1658
     40 O         -21.6306   -7.8216  -14.6799 O.3     1  UNL1       -0.3501
     41 C         -21.9640   -7.8601  -16.0502 C.3     1  UNL1        0.1741
@<TRIPOS>BOND
     1    21    22    1
     2    22    20    1
     3    20    18    1
     4    18    19    1
     5    18    14    1
     6    14    15   am
     7    15    16    2
     8    15     9    1
     9     9    10   ar
    10    10    11   ar
    11    11     1    1
    12     1     2    1
    13     2     3    1
    14     3     4    1
    15     3     5    1
    16     5    27    1
    17    27    28   am
    18    28    29    2
    19    28    31    1
    20    31    32   ar
    21    32    33   ar
    22    33    34    1
    23    33    35   ar
    24    35    36    1
    25    35    37   ar
    26    37    38    1
    27     5     6    1
    28     6    40    1
    29    40    41    1
    30     6     7    1
    31    11    12   ar
    32    12    13   ar
    33    13    23    1
    34    23    24    2
    35    23    25    1
    36    13     9   ar
    37     7     1    1
    38    37    31   ar
    39    14    17    1
    40     4     8    1
    41    27    30    1
    42    32    39    1
    43    25    26    1
@<TRIPOS>MOLECULE
*****
 41 43 0 0 0
SMALL
GASTEIGER

@<TRIPOS>ATOM
      1 N         -23.1930   -8.9185  -12.0387 N.pl3   1  UNL1       -0.2847
      2 C         -22.6661   -7.5527  -12.1839 C.3     1  UNL1        0.1049
      3 C         -23.5481   -6.5425  -11.4345 C.3     1  UNL1        0.0839
      4 S         -22.9846   -4.8368  -11.7663 S.3     1  UNL1       -0.1654
      5 C         -25.0424   -6.7001  -11.7846 C.3     1  UNL1        0.1119
      6 C         -25.4992   -8.1564  -11.5455 C.3     1  UNL1        0.1537
      7 C         -24.6187   -9.1447  -12.3241 C.3     1  UNL1        0.1238
      8 H         -21.7484   -5.0308  -11.1204 H       1  UNL1        0.1024
      9 C         -21.3113  -11.9711  -12.6317 C.ar    1  UNL1        0.1486
     10 N         -22.2749  -11.0413  -12.8799 N.ar    1  UNL1       -0.2193
     11 C         -22.2707  -10.0287  -11.9849 C.ar    1  UNL1        0.1635
     12 S         -21.0580  -10.2467  -10.8372 S.2     1  UNL1       -0.0449
     13 C         -20.5207  -11.6979  -11.5019 C.ar    1  UNL1        0.1295
     14 N         -22.1985  -13.5133  -14.4161 N.am    1  UNL1       -0.2988
     15 C         -21.1208  -13.1019  -13.5609 C.2     1  UNL1        0.2644
     16 O         -19.9993  -13.6709  -13.6437 O.2     1  UNL1       -0.2685
     17 H         -23.1425  -13.0883  -14.2671 H       1  UNL1        0.1498
     18 C         -22.0261  -14.5234  -15.4661 C.3     1  UNL1        0.1015
     19 C         -23.2753  -15.4077  -15.5664 C.3     1  UNL1        0.0239
     20 C         -21.7216  -13.8467  -16.8113 C.3     1  UNL1        0.1617
     21 C         -22.8658  -11.9653  -17.4888 C.3     1  UNL1        0.1742
     22 O         -21.8175  -12.4430  -16.6765 O.3     1  UNL1       -0.3494
     23 C         -19.4719  -12.5305  -10.8868 C.2     1  UNL1        0.3459
     24 O         -18.6440  -12.0046  -10.0959 O.2     1  UNL1       -0.2445
     25 O         -19.4164  -13.9001  -11.1228 O.3     1  UNL1       -0.4767
     26 H         -18.7063  -14.4751  -10.6856 H       1  UNL1        0.2954
     27 N         -25.3163   -6.2862  -13.1690 N.am    1  UNL1       -0.2980
     28 C         -26.3624   -5.3609  -13.5069 C.2     1  UNL1        0.2624
     29 O         -27.1423   -4.9396  -12.6105 O.2     1  UNL1       -0.2685
     30 H         -24.8245   -6.7819  -13.9438 H       1  UNL1        0.1498
     31 C         -26.5385   -4.8997  -14.9008 C.ar    1  UNL1        0.1220
     32 N         -27.4830   -4.0168  -15.2916 N.ar    1  UNL1       -0.3515
     33 C         -27.3458   -3.8554  -16.6221 C.ar    1  UNL1        0.0456
     34 C         -28.2464   -3.0016  -17.4558 C.3     1  UNL1        0.0507
     35 C         -26.3199   -4.6499  -17.0953 C.ar    1  UNL1        0.0811
     36 CL        -25.7912   -4.8057  -18.7621 Cl      1  UNL1       -0.0802
     37 C         -25.8016   -5.3146  -16.0028 C.ar    1  UNL1        0.0893
     38 CL        -24.4616   -6.4512  -16.0348 Cl      1  UNL1       -0.0797
     39 H         -28.2096   -3.5637  -14.6945 H       1  UNL1        0.1658
     40 O         -26.8436   -8.3237  -11.9671 O.3     1  UNL1       -0.3501
     41 C         -27.7393   -7.9449  -10.9450 C.3     1  UNL1        0.1741
@<TRIPOS>BOND
     1    21    22    1
     2    22    20    1
     3    20    18    1
     4    18    19    1
     5    18    14    1
     6    14    15   am
     7    15    16    2
     8    15     9    1
     9     9    10   ar
    10    10    11   ar
    11    11     1    1
    12     1     2    1
    13     2     3    1
    14     3     4    1
    15     3     5    1
    16     5    27    1
    17    27    28   am
    18    28    29    2
    19    28    31    1
    20    31    32   ar
    21    32    33   ar
    22    33    34    1
    23    33    35   ar
    24    35    36    1
    25    35    37   ar
    26    37    38    1
    27     5     6    1
    28     6    40    1
    29    40    41    1
    30     6     7    1
    31    11    12   ar
    32    12    13   ar
    33    13    23    1
    34    23    24    2
    35    23    25    1
    36    13     9   ar
    37     7     1    1
    38    37    31   ar
    39    14    17    1
    40     4     8    1
    41    27    30    1
    42    32    39    1
    43    25    26    1
