@<TRIPOS>MOLECULE
*****
 39 43 0 0 0
SMALL
GASTEIGER

@<TRIPOS>ATOM
      1 C          49.9249   11.7833  -21.6318 C.2     1  UNL1        0.2506
      2 O          51.0735   12.0128  -22.0986 O.2     1  UNL1       -0.2699
      3 N          48.8588   11.3738  -22.5116 N.am    1  UNL1       -0.2680
      4 C          47.8940   10.3605  -22.0717 C.3     1  UNL1        0.1412
      5 C          46.5701   11.0226  -21.6960 C.3     1  UNL1        0.2268
      6 O          46.3111   12.1725  -22.4992 O.3     1  UNL1       -0.4739
      7 C          46.3550   12.1404  -23.8946 C.ar    1  UNL1        0.1362
      8 C          45.1726   12.3903  -24.5978 C.ar    1  UNL1        0.0366
      9 C          45.1509   12.3388  -25.9913 C.ar    1  UNL1        0.0032
     10 C          46.3201   12.0459  -26.7069 C.ar    1  UNL1        0.0029
     11 C          47.5176   11.8325  -26.0050 C.ar    1  UNL1        0.0005
     12 C          47.5530   11.8682  -24.6000 C.ar    1  UNL1        0.0317
     13 C          48.9122   11.7629  -23.9281 C.3     1  UNL1        0.1236
     14 C          46.2982   12.0022  -28.1890 C.ar    1  UNL1        0.0355
     15 C          46.5733   10.7751  -28.8430 C.ar    1  UNL1        0.0047
     16 C          46.5496   10.6835  -30.2400 C.ar    1  UNL1        0.0208
     17 C          46.2501   11.8297  -30.9619 C.ar    1  UNL1        0.1015
     18 N          46.1768   11.9368  -32.2996 N.ar    1  UNL1       -0.2240
     19 C          45.8609   13.2409  -32.4810 C.ar    1  UNL1        0.1751
     20 N          45.7389   13.9328  -31.3251 N.ar    1  UNL1       -0.3326
     21 C          45.9875   13.0305  -30.3576 C.ar    1  UNL1        0.1100
     22 C          46.0086   13.1706  -28.9476 C.ar    1  UNL1        0.1556
     23 H          45.4974   14.9419  -31.2630 H       1  UNL1        0.1676
     24 O          45.7884   14.3723  -28.2478 O.3     1  UNL1       -0.4699
     25 C          46.7589   15.3383  -27.8734 C.3     1  UNL1        0.2525
     26 C          49.0023   13.0343  -19.6421 C.ar    1  UNL1        0.0503
     27 C          48.7710   13.0770  -18.2518 C.ar    1  UNL1        0.0328
     28 C          49.2495   12.0639  -17.4122 C.ar    1  UNL1        0.1069
     29 C          49.9599   10.9901  -17.9559 C.ar    1  UNL1        0.0186
     30 C          50.1900   10.9259  -19.3293 C.ar    1  UNL1        0.0071
     31 C          49.7033   11.9277  -20.1809 C.ar    1  UNL1        0.0667
     32 S          48.9344   12.1355  -15.6813 S.O2    1  UNL1        0.0105
     33 C          50.4745   12.0349  -14.7985 C.3     1  UNL1        0.1816
     34 O          48.2436   13.4253  -15.3365 O.2     1  UNL1       -0.1686
     35 O          48.0467   10.9908  -15.2806 O.2     1  UNL1       -0.1686
     36 N          48.5684   14.1124  -20.5023 N.pl3   1  UNL1       -0.3325
     37 H          47.5467   14.2864  -20.6306 H       1  UNL1        0.1468
     38 C          48.8550   15.4378  -22.5482 C.3     1  UNL1        0.0229
     39 C          49.4678   15.0183  -21.2167 C.3     1  UNL1        0.0871
@<TRIPOS>BOND
     1    38    39    1
     2    39    36    1
     3    36    26    1
     4    26    27   ar
     5    27    28   ar
     6    28    32    1
     7    32    33    1
     8    32    34    2
     9    32    35    2
    10    28    29   ar
    11    29    30   ar
    12    30    31   ar
    13    31     1    1
    14     1     2    2
    15     1     3   am
    16     3     4    1
    17     4     5    1
    18     5     6    1
    19     6     7    1
    20     7     8   ar
    21     8     9   ar
    22     9    10   ar
    23    10    14    1
    24    14    15   ar
    25    15    16   ar
    26    16    17   ar
    27    17    18   ar
    28    18    19   ar
    29    19    20   ar
    30    20    21   ar
    31    21    22   ar
    32    22    24    1
    33    24    25    1
    34    10    11   ar
    35    11    12   ar
    36    12    13    1
    37    31    26   ar
    38    13     3    1
    39    12     7   ar
    40    22    14   ar
    41    21    17   ar
    42    36    37    1
    43    20    23    1
@<TRIPOS>MOLECULE
*****
 39 43 0 0 0
SMALL
GASTEIGER

@<TRIPOS>ATOM
      1 C          49.9055   12.2069  -21.4259 C.2     1  UNL1        0.2506
      2 O          51.0142   12.5930  -21.8860 O.2     1  UNL1       -0.2699
      3 N          48.9064   11.6666  -22.3138 N.am    1  UNL1       -0.2680
      4 C          48.0852   10.5287  -21.8872 C.3     1  UNL1        0.1412
      5 C          46.6835   11.0034  -21.5105 C.3     1  UNL1        0.2268
      6 O          46.2745   12.1160  -22.3038 O.3     1  UNL1       -0.4739
      7 C          46.3260   12.1039  -23.6992 C.ar    1  UNL1        0.1362
      8 C          45.1226   12.1998  -24.4048 C.ar    1  UNL1        0.0366
      9 C          45.1117   12.1596  -25.7987 C.ar    1  UNL1        0.0032
     10 C          46.3115   12.0334  -26.5124 C.ar    1  UNL1        0.0029
     11 C          47.5249   11.9757  -25.8079 C.ar    1  UNL1        0.0005
     12 C          47.5515   12.0020  -24.4024 C.ar    1  UNL1        0.0317
     13 C          48.9108   12.0733  -23.7263 C.3     1  UNL1        0.1236
     14 C          46.2996   12.0017  -27.9950 C.ar    1  UNL1        0.0355
     15 C          46.5744   10.7789  -28.6571 C.ar    1  UNL1        0.0047
     16 C          46.5598   10.6987  -30.0549 C.ar    1  UNL1        0.0208
     17 C          46.2697   11.8520  -30.7694 C.ar    1  UNL1        0.1015
     18 N          46.2060   11.9701  -32.1067 N.ar    1  UNL1       -0.2240
     19 C          45.8964   13.2769  -32.2796 C.ar    1  UNL1        0.1751
     20 N          45.7692   13.9599  -31.1190 N.ar    1  UNL1       -0.3326
     21 C          46.0076   13.0488  -30.1572 C.ar    1  UNL1        0.1100
     22 C          46.0196   13.1774  -28.7460 C.ar    1  UNL1        0.1556
     23 H          45.5312   14.9694  -31.0504 H       1  UNL1        0.1676
     24 O          45.7993   14.3742  -28.0380 O.3     1  UNL1       -0.4699
     25 C          46.7661   15.3490  -27.6771 C.3     1  UNL1        0.2525
     26 C          50.7264   12.2871  -19.0396 C.ar    1  UNL1        0.0503
     27 C          50.4275   12.4501  -17.6712 C.ar    1  UNL1        0.0328
     28 C          49.1045   12.5966  -17.2371 C.ar    1  UNL1        0.1069
     29 C          48.0636   12.5896  -18.1696 C.ar    1  UNL1        0.0186
     30 C          48.3405   12.4393  -19.5276 C.ar    1  UNL1        0.0071
     31 C          49.6627   12.3059  -19.9746 C.ar    1  UNL1        0.0667
     32 S          48.7611   12.8121  -15.5236 S.O2    1  UNL1        0.0105
     33 C          50.2824   13.1053  -14.6512 C.3     1  UNL1        0.1816
     34 O          47.8380   13.9820  -15.3264 O.2     1  UNL1       -0.1686
     35 O          48.0975   11.5774  -14.9813 O.2     1  UNL1       -0.1686
     36 N          52.0848   12.0679  -19.4838 N.pl3   1  UNL1       -0.3325
     37 H          52.3438   11.1489  -19.9070 H       1  UNL1        0.1468
     38 C          52.6410   14.4349  -19.8187 C.3     1  UNL1        0.0229
     39 C          53.1556   13.0613  -19.4034 C.3     1  UNL1        0.0871
@<TRIPOS>BOND
     1    38    39    1
     2    39    36    1
     3    36    26    1
     4    26    27   ar
     5    27    28   ar
     6    28    32    1
     7    32    33    1
     8    32    34    2
     9    32    35    2
    10    28    29   ar
    11    29    30   ar
    12    30    31   ar
    13    31     1    1
    14     1     2    2
    15     1     3   am
    16     3     4    1
    17     4     5    1
    18     5     6    1
    19     6     7    1
    20     7     8   ar
    21     8     9   ar
    22     9    10   ar
    23    10    14    1
    24    14    15   ar
    25    15    16   ar
    26    16    17   ar
    27    17    18   ar
    28    18    19   ar
    29    19    20   ar
    30    20    21   ar
    31    21    22   ar
    32    22    24    1
    33    24    25    1
    34    10    11   ar
    35    11    12   ar
    36    12    13    1
    37    31    26   ar
    38    13     3    1
    39    12     7   ar
    40    22    14   ar
    41    21    17   ar
    42    36    37    1
    43    20    23    1
@<TRIPOS>MOLECULE
*****
 39 43 0 0 0
SMALL
GASTEIGER

@<TRIPOS>ATOM
      1 C          49.6212   13.2696  -21.5860 C.2     1  UNL1        0.2506
      2 O          50.4359   14.1737  -21.9157 O.2     1  UNL1       -0.2699
      3 N          48.8766   12.5664  -22.6007 N.am    1  UNL1       -0.2680
      4 C          48.6316   11.1268  -22.4645 C.3     1  UNL1        0.1412
      5 C          47.1888   10.8773  -22.0308 C.3     1  UNL1        0.2268
      6 O          46.3023   11.8589  -22.5650 O.3     1  UNL1       -0.4739
      7 C          46.2578   12.1710  -23.9254 C.ar    1  UNL1        0.1362
      8 C          45.0772   11.9040  -24.6253 C.ar    1  UNL1        0.0366
      9 C          44.9877   12.1650  -25.9923 C.ar    1  UNL1        0.0032
     10 C          46.0798   12.7101  -26.6817 C.ar    1  UNL1        0.0029
     11 C          47.2537   13.0151  -25.9738 C.ar    1  UNL1        0.0005
     12 C          47.3639   12.7459  -24.5983 C.ar    1  UNL1        0.0317
     13 C          48.6148   13.2320  -23.8849 C.3     1  UNL1        0.1236
     14 C          45.9799   12.9972  -28.1331 C.ar    1  UNL1        0.0355
     15 C          45.6690   14.3153  -28.5516 C.ar    1  UNL1        0.0047
     16 C          45.5786   14.6356  -29.9117 C.ar    1  UNL1        0.0208
     17 C          45.8013   13.6237  -30.8343 C.ar    1  UNL1        0.1015
     18 N          45.7624   13.7383  -32.1728 N.ar    1  UNL1       -0.2240
     19 C          46.0438   12.4818  -32.5914 C.ar    1  UNL1        0.1751
     20 N          46.2512   11.6090  -31.5791 N.ar    1  UNL1       -0.3326
     21 C          46.0960   12.3398  -30.4592 C.ar    1  UNL1        0.1100
     22 C          46.1895   11.9695  -29.0946 C.ar    1  UNL1        0.1556
     23 H          46.4827   10.6034  -31.7038 H       1  UNL1        0.1676
     24 O          46.4498   10.6689  -28.6224 O.3     1  UNL1       -0.4699
     25 C          47.4924    9.7982  -29.0346 C.3     1  UNL1        0.2525
     26 C          50.5617   12.5622  -19.3522 C.ar    1  UNL1        0.0503
     27 C          50.3465   12.3246  -17.9790 C.ar    1  UNL1        0.0328
     28 C          49.0657   12.4302  -17.4235 C.ar    1  UNL1        0.1069
     29 C          47.9842   12.7830  -18.2354 C.ar    1  UNL1        0.0186
     30 C          48.1792   13.0311  -19.5933 C.ar    1  UNL1        0.0071
     31 C          49.4599   12.9420  -20.1571 C.ar    1  UNL1        0.0667
     32 S          48.8279   12.1412  -15.7029 S.O2    1  UNL1        0.0105
     33 C          50.4059   11.8761  -14.9276 C.3     1  UNL1        0.1816
     34 O          48.1525   13.3257  -15.0701 O.2     1  UNL1       -0.1686
     35 O          47.9596   10.9299  -15.5084 O.2     1  UNL1       -0.1686
     36 N          51.8704   12.3880  -19.9416 N.pl3   1  UNL1       -0.3325
     37 H          52.0072   11.6637  -20.6814 H       1  UNL1        0.1468
     38 C          52.7797   14.6630  -19.7932 C.3     1  UNL1        0.0229
     39 C          53.0513   13.1766  -19.5902 C.3     1  UNL1        0.0871
@<TRIPOS>BOND
     1    38    39    1
     2    39    36    1
     3    36    26    1
     4    26    27   ar
     5    27    28   ar
     6    28    32    1
     7    32    33    1
     8    32    34    2
     9    32    35    2
    10    28    29   ar
    11    29    30   ar
    12    30    31   ar
    13    31     1    1
    14     1     2    2
    15     1     3   am
    16     3     4    1
    17     4     5    1
    18     5     6    1
    19     6     7    1
    20     7     8   ar
    21     8     9   ar
    22     9    10   ar
    23    10    14    1
    24    14    15   ar
    25    15    16   ar
    26    16    17   ar
    27    17    18   ar
    28    18    19   ar
    29    19    20   ar
    30    20    21   ar
    31    21    22   ar
    32    22    24    1
    33    24    25    1
    34    10    11   ar
    35    11    12   ar
    36    12    13    1
    37    31    26   ar
    38    13     3    1
    39    12     7   ar
    40    22    14   ar
    41    21    17   ar
    42    36    37    1
    43    20    23    1
@<TRIPOS>MOLECULE
*****
 39 43 0 0 0
SMALL
GASTEIGER

@<TRIPOS>ATOM
      1 C          46.6803   12.2699  -20.4036 C.2     1  UNL1        0.2506
      2 O          45.4567   11.9746  -20.3299 O.2     1  UNL1       -0.2699
      3 N          47.2513   12.6624  -21.6678 N.am    1  UNL1       -0.2680
      4 C          48.2537   13.7319  -21.7186 C.3     1  UNL1        0.1412
      5 C          49.6471   13.1382  -21.9141 C.3     1  UNL1        0.2268
      6 O          49.6067   11.9522  -22.7055 O.3     1  UNL1       -0.4739
      7 C          48.9767   11.9003  -23.9507 C.ar    1  UNL1        0.1362
      8 C          49.7641   11.6493  -25.0785 C.ar    1  UNL1        0.0366
      9 C          49.1932   11.6190  -26.3505 C.ar    1  UNL1        0.0032
     10 C          47.8170   11.8295  -26.5137 C.ar    1  UNL1        0.0029
     11 C          47.0174   12.0435  -25.3792 C.ar    1  UNL1        0.0005
     12 C          47.5799   12.0897  -24.0916 C.ar    1  UNL1        0.0317
     13 C          46.6273   12.1887  -22.9115 C.3     1  UNL1        0.1236
     14 C          47.2093   11.7863  -27.8657 C.ar    1  UNL1        0.0355
     15 C          47.0949   10.5376  -28.5266 C.ar    1  UNL1        0.0047
     16 C          46.5149   10.4471  -29.7978 C.ar    1  UNL1        0.0208
     17 C          46.0579   11.6161  -30.3888 C.ar    1  UNL1        0.1015
     18 N          45.4733   11.7281  -31.5938 N.ar    1  UNL1       -0.2240
     19 C          45.2282   13.0565  -31.6878 C.ar    1  UNL1        0.1751
     20 N          45.6329   13.7583  -30.6047 N.ar    1  UNL1       -0.3326
     21 C          46.1617   12.8373  -29.7774 C.ar    1  UNL1        0.1100
     22 C          46.7488   12.9763  -28.4952 C.ar    1  UNL1        0.1556
     23 H          45.5257   14.7860  -30.4925 H       1  UNL1        0.1676
     24 O          46.9292   14.1946  -27.8128 O.3     1  UNL1       -0.4699
     25 C          45.9193   15.0872  -27.3674 C.3     1  UNL1        0.2525
     26 C          48.3671   11.1315  -18.9089 C.ar    1  UNL1        0.0503
     27 C          49.1703   11.1777  -17.7509 C.ar    1  UNL1        0.0328
     28 C          49.0941   12.2601  -16.8661 C.ar    1  UNL1        0.1069
     29 C          48.2173   13.3148  -17.1342 C.ar    1  UNL1        0.0186
     30 C          47.4224   13.2913  -18.2792 C.ar    1  UNL1        0.0071
     31 C          47.5008   12.2190  -19.1791 C.ar    1  UNL1        0.0667
     32 S          50.1186   12.2983  -15.4346 S.O2    1  UNL1        0.0105
     33 C          49.5271   13.5522  -14.3214 C.3     1  UNL1        0.1816
     34 O          50.0896   10.9630  -14.7447 O.2     1  UNL1       -0.1686
     35 O          51.5349   12.6043  -15.8337 O.2     1  UNL1       -0.1686
     36 N          48.3943    9.9842  -19.7884 N.pl3   1  UNL1       -0.3325
     37 H          47.5053    9.4779  -19.9982 H       1  UNL1        0.1468
     38 C          49.2705    8.9822  -21.8506 C.3     1  UNL1        0.0229
     39 C          49.5963    9.4673  -20.4425 C.3     1  UNL1        0.0871
@<TRIPOS>BOND
     1    38    39    1
     2    39    36    1
     3    36    26    1
     4    26    27   ar
     5    27    28   ar
     6    28    32    1
     7    32    33    1
     8    32    34    2
     9    32    35    2
    10    28    29   ar
    11    29    30   ar
    12    30    31   ar
    13    31     1    1
    14     1     2    2
    15     1     3   am
    16     3     4    1
    17     4     5    1
    18     5     6    1
    19     6     7    1
    20     7     8   ar
    21     8     9   ar
    22     9    10   ar
    23    10    14    1
    24    14    15   ar
    25    15    16   ar
    26    16    17   ar
    27    17    18   ar
    28    18    19   ar
    29    19    20   ar
    30    20    21   ar
    31    21    22   ar
    32    22    24    1
    33    24    25    1
    34    10    11   ar
    35    11    12   ar
    36    12    13    1
    37    31    26   ar
    38    13     3    1
    39    12     7   ar
    40    22    14   ar
    41    21    17   ar
    42    36    37    1
    43    20    23    1
@<TRIPOS>MOLECULE
*****
 39 43 0 0 0
SMALL
GASTEIGER

@<TRIPOS>ATOM
      1 C          48.6619    9.6074  -21.4606 C.2     1  UNL1        0.2506
      2 O          48.2119    8.4296  -21.4392 O.2     1  UNL1       -0.2699
      3 N          49.0857   10.1937  -22.7075 N.am    1  UNL1       -0.2680
      4 C          48.8089   11.6072  -22.9843 C.3     1  UNL1        0.1412
      5 C          50.0802   12.4357  -22.8119 C.3     1  UNL1        0.2268
      6 O          51.2436   11.6949  -23.1753 O.3     1  UNL1       -0.4739
      7 C          51.3637   11.0372  -24.4013 C.ar    1  UNL1        0.1362
      8 C          52.3570   11.4674  -25.2863 C.ar    1  UNL1        0.0366
      9 C          52.5008   10.8686  -26.5376 C.ar    1  UNL1        0.0032
     10 C          51.6562    9.8175  -26.9204 C.ar    1  UNL1        0.0029
     11 C          50.6829    9.3576  -26.0186 C.ar    1  UNL1        0.0005
     12 C          50.5169    9.9593  -24.7588 C.ar    1  UNL1        0.0317
     13 C          49.5357    9.3127  -23.7948 C.3     1  UNL1        0.1236
     14 C          51.8172    9.1744  -28.2469 C.ar    1  UNL1        0.0355
     15 C          53.1009    9.1530  -28.8474 C.ar    1  UNL1        0.0047
     16 C          53.3027    8.5442  -30.0920 C.ar    1  UNL1        0.0208
     17 C          52.2083    7.9650  -30.7178 C.ar    1  UNL1        0.1015
     18 N          52.2058    7.3354  -31.9051 N.ar    1  UNL1       -0.2240
     19 C          50.9105    6.9682  -32.0491 C.ar    1  UNL1        0.1751
     20 N          50.1250    7.3413  -31.0131 N.ar    1  UNL1       -0.3326
     21 C          50.9552    7.9768  -30.1651 C.ar    1  UNL1        0.1100
     22 C          50.7039    8.5885  -28.9118 C.ar    1  UNL1        0.1556
     23 H          49.1068    7.1449  -30.9428 H       1  UNL1        0.1676
     24 O          49.4436    8.6791  -28.2908 O.3     1  UNL1       -0.4699
     25 C          48.2589    9.2451  -28.8305 C.3     1  UNL1        0.2525
     26 C          47.5918   11.0114  -19.6554 C.ar    1  UNL1        0.0503
     27 C          47.7134   11.6668  -18.4128 C.ar    1  UNL1        0.0328
     28 C          48.9404   11.7095  -17.7399 C.ar    1  UNL1        0.1069
     29 C          50.0606   11.0891  -18.2998 C.ar    1  UNL1        0.0186
     30 C          49.9574   10.4281  -19.5228 C.ar    1  UNL1        0.0071
     31 C          48.7303   10.3672  -20.1984 C.ar    1  UNL1        0.0667
     32 S          49.0606   12.5232  -16.1830 S.O2    1  UNL1        0.0105
     33 C          50.7650   12.5821  -15.6802 C.3     1  UNL1        0.1816
     34 O          48.5221   13.9225  -16.2903 O.2     1  UNL1       -0.1686
     35 O          48.2568   11.7744  -15.1572 O.2     1  UNL1       -0.1686
     36 N          46.3432   11.0237  -20.3844 N.pl3   1  UNL1       -0.3325
     37 H          46.0844   10.1999  -20.9718 H       1  UNL1        0.1468
     38 C          44.3255   11.8743  -19.2754 C.3     1  UNL1        0.0229
     39 C          45.3745   12.1194  -20.3542 C.3     1  UNL1        0.0871
@<TRIPOS>BOND
     1    38    39    1
     2    39    36    1
     3    36    26    1
     4    26    27   ar
     5    27    28   ar
     6    28    32    1
     7    32    33    1
     8    32    34    2
     9    32    35    2
    10    28    29   ar
    11    29    30   ar
    12    30    31   ar
    13    31     1    1
    14     1     2    2
    15     1     3   am
    16     3     4    1
    17     4     5    1
    18     5     6    1
    19     6     7    1
    20     7     8   ar
    21     8     9   ar
    22     9    10   ar
    23    10    14    1
    24    14    15   ar
    25    15    16   ar
    26    16    17   ar
    27    17    18   ar
    28    18    19   ar
    29    19    20   ar
    30    20    21   ar
    31    21    22   ar
    32    22    24    1
    33    24    25    1
    34    10    11   ar
    35    11    12   ar
    36    12    13    1
    37    31    26   ar
    38    13     3    1
    39    12     7   ar
    40    22    14   ar
    41    21    17   ar
    42    36    37    1
    43    20    23    1
@<TRIPOS>MOLECULE
*****
 39 43 0 0 0
SMALL
GASTEIGER

@<TRIPOS>ATOM
      1 C          49.7226   12.2991  -21.3602 C.2     1  UNL1        0.2506
      2 O          50.8704   12.5592  -21.8127 O.2     1  UNL1       -0.2699
      3 N          48.6910   11.8200  -22.2460 N.am    1  UNL1       -0.2680
      4 C          47.7580   10.7835  -21.7916 C.3     1  UNL1        0.1412
      5 C          46.4021   11.4041  -21.4622 C.3     1  UNL1        0.2268
      6 O          46.1143   12.5169  -22.3068 O.3     1  UNL1       -0.4739
      7 C          46.1872   12.4425  -23.6994 C.ar    1  UNL1        0.1362
      8 C          45.0101   12.6229  -24.4323 C.ar    1  UNL1        0.0366
      9 C          45.0182   12.5267  -25.8235 C.ar    1  UNL1        0.0032
     10 C          46.2119   12.2580  -26.5073 C.ar    1  UNL1        0.0029
     11 C          47.4027   12.1146  -25.7767 C.ar    1  UNL1        0.0005
     12 C          47.4086   12.1960  -24.3732 C.ar    1  UNL1        0.0317
     13 C          48.7573   12.1660  -23.6731 C.3     1  UNL1        0.1236
     14 C          46.2213   12.1667  -27.9874 C.ar    1  UNL1        0.0355
     15 C          46.4924   10.9154  -28.5956 C.ar    1  UNL1        0.0047
     16 C          46.4973   10.7790  -29.9891 C.ar    1  UNL1        0.0208
     17 C          46.2302   11.9054  -30.7538 C.ar    1  UNL1        0.1015
     18 N          46.1872   11.9701  -32.0954 N.ar    1  UNL1       -0.2240
     19 C          45.8944   13.2719  -32.3254 C.ar    1  UNL1        0.1751
     20 N          45.7577   14.0025  -31.1953 N.ar    1  UNL1       -0.3326
     21 C          45.9722   13.1285  -30.1941 C.ar    1  UNL1        0.1100
     22 C          45.9650   13.3138  -28.7892 C.ar    1  UNL1        0.1556
     23 H          45.5297   15.0163  -31.1709 H       1  UNL1        0.1676
     24 O          45.7475   14.5405  -28.1333 O.3     1  UNL1       -0.4699
     25 C          46.7183   15.5225  -27.8041 C.3     1  UNL1        0.2525
     26 C          49.8786   11.5190  -18.9639 C.ar    1  UNL1        0.0503
     27 C          49.6584   11.7859  -17.5969 C.ar    1  UNL1        0.0328
     28 C          49.0179   12.9620  -17.1884 C.ar    1  UNL1        0.1069
     29 C          48.5961   13.8902  -18.1442 C.ar    1  UNL1        0.0186
     30 C          48.8138   13.6481  -19.4997 C.ar    1  UNL1        0.0071
     31 C          49.4667   12.4803  -19.9190 C.ar    1  UNL1        0.0667
     32 S          48.7681   13.2760  -15.4739 S.O2    1  UNL1        0.0105
     33 C          47.7679   14.7336  -15.2827 C.3     1  UNL1        0.1816
     34 O          48.0758   12.1066  -14.8315 O.2     1  UNL1       -0.1686
     35 O          50.0950   13.4816  -14.7984 O.2     1  UNL1       -0.1686
     36 N          50.4785   10.2752  -19.3923 N.pl3   1  UNL1       -0.3325
     37 H          51.5164   10.2131  -19.4889 H       1  UNL1        0.1468
     38 C          49.6876    8.8151  -21.1998 C.3     1  UNL1        0.0229
     39 C          49.7322    9.0539  -19.6947 C.3     1  UNL1        0.0871
@<TRIPOS>BOND
     1    38    39    1
     2    39    36    1
     3    36    26    1
     4    26    27   ar
     5    27    28   ar
     6    28    32    1
     7    32    33    1
     8    32    34    2
     9    32    35    2
    10    28    29   ar
    11    29    30   ar
    12    30    31   ar
    13    31     1    1
    14     1     2    2
    15     1     3   am
    16     3     4    1
    17     4     5    1
    18     5     6    1
    19     6     7    1
    20     7     8   ar
    21     8     9   ar
    22     9    10   ar
    23    10    14    1
    24    14    15   ar
    25    15    16   ar
    26    16    17   ar
    27    17    18   ar
    28    18    19   ar
    29    19    20   ar
    30    20    21   ar
    31    21    22   ar
    32    22    24    1
    33    24    25    1
    34    10    11   ar
    35    11    12   ar
    36    12    13    1
    37    31    26   ar
    38    13     3    1
    39    12     7   ar
    40    22    14   ar
    41    21    17   ar
    42    36    37    1
    43    20    23    1
