@<TRIPOS>MOLECULE
*****
 47 52 0 0 0
SMALL
GASTEIGER

@<TRIPOS>ATOM
      1 C         -68.8245  -55.3746  -24.1891 C.ar    1  UNL1        0.1318
      2 C         -68.7641  -54.4660  -23.1208 C.ar    1  UNL1        0.0356
      3 C         -67.5834  -53.7614  -22.8826 C.ar    1  UNL1        0.0191
      4 C         -66.4639  -53.9626  -23.6987 C.ar    1  UNL1        0.0702
      5 C         -66.5761  -54.8495  -24.7816 C.ar    1  UNL1        0.1149
      6 N         -67.7374  -55.5227  -24.9965 N.ar    1  UNL1       -0.2279
      7 C         -72.7701  -56.2275  -25.0978 C.3     1  UNL1        0.0472
      8 C         -72.3349  -56.2981  -23.6060 C.3     1  UNL1        0.0252
      9 C         -70.8589  -56.6782  -23.4105 C.3     1  UNL1        0.0923
     10 N         -70.0315  -56.1048  -24.4797 N.pl3   1  UNL1       -0.2932
     11 C         -70.3722  -56.3907  -25.8806 C.3     1  UNL1        0.0923
     12 C         -71.7846  -56.9803  -26.0144 C.3     1  UNL1        0.0252
     13 C         -74.2202  -56.7276  -25.2590 C.3     1  UNL1        0.2054
     14 O         -75.1293  -55.6444  -25.4724 O.3     1  UNL1       -0.4755
     15 C         -74.8899  -53.9396  -28.8004 C.ar    1  UNL1        0.0105
     16 C         -74.9742  -54.9656  -27.8481 C.ar    1  UNL1        0.0351
     17 C         -75.0455  -54.6618  -26.4749 C.ar    1  UNL1        0.1385
     18 C         -75.0315  -53.3217  -26.0716 C.ar    1  UNL1        0.0433
     19 C         -74.9331  -52.2828  -27.0119 C.ar    1  UNL1        0.0782
     20 C         -74.8546  -52.6028  -28.3777 C.ar    1  UNL1        0.0048
     21 C         -74.9063  -50.8721  -26.5648 C.2     1  UNL1        0.3381
     22 O         -75.0338  -49.9349  -27.3986 O.2     1  UNL1       -0.2451
     23 O         -74.7400  -50.5659  -25.2165 O.3     1  UNL1       -0.4771
     24 H         -74.7202  -49.6038  -24.8999 H       1  UNL1        0.2954
     25 C         -74.7577  -54.2765  -30.2586 C.3     1  UNL1        0.1688
     26 C         -74.3520  -53.3947  -32.3463 C.3     1  UNL1        0.1746
     27 O         -74.4966  -53.0903  -30.9774 O.3     1  UNL1       -0.3463
     28 N         -65.2618  -53.2115  -23.4561 N.am    1  UNL1       -0.2766
     29 C         -64.4377  -52.6557  -24.4937 C.2     1  UNL1        0.2839
     30 O         -64.5945  -53.0174  -25.6909 O.2     1  UNL1       -0.2665
     31 H         -64.9239  -53.1383  -22.4697 H       1  UNL1        0.1553
     32 C         -63.3782  -51.6888  -24.1487 C.ar    1  UNL1        0.1946
     33 O         -62.2310  -52.0468  -23.5998 O.2     1  UNL1       -0.4492
     34 C         -61.5160  -50.9636  -23.4177 C.ar    1  UNL1        0.1452
     35 C         -60.2426  -50.8758  -22.8663 C.ar    1  UNL1        0.0375
     36 C         -59.6550  -49.6033  -22.7615 C.ar    1  UNL1        0.0031
     37 C         -60.3447  -48.4433  -23.2069 C.ar    1  UNL1        0.0002
     38 C         -61.6398  -48.5768  -23.7628 C.ar    1  UNL1        0.0028
     39 C         -62.1926  -49.8554  -23.8519 C.ar    1  UNL1        0.0337
     40 C         -63.4092  -50.3017  -24.3316 C.ar    1  UNL1        0.0202
     41 C         -64.5171  -49.4798  -24.9182 C.3     1  UNL1        0.0345
     42 C         -59.7139  -47.1040  -23.0909 C.ar    1  UNL1        0.0000
     43 C         -58.3449  -46.9817  -22.7852 C.ar    1  UNL1        0.0000
     44 C         -57.7535  -45.7193  -22.6766 C.ar    1  UNL1        0.0000
     45 C         -58.5187  -44.5675  -22.8722 C.ar    1  UNL1        0.0000
     46 C         -59.8775  -44.6755  -23.1764 C.ar    1  UNL1        0.0000
     47 C         -60.4744  -45.9353  -23.2854 C.ar    1  UNL1        0.0000
@<TRIPOS>BOND
     1    26    27    1
     2    27    25    1
     3    25    15    1
     4    15    16   ar
     5    16    17   ar
     6    17    14    1
     7    14    13    1
     8    13     7    1
     9     7     8    1
    10     8     9    1
    11     9    10    1
    12    10     1    1
    13     1     2   ar
    14     2     3   ar
    15     3     4   ar
    16     4    28    1
    17    28    29   am
    18    29    30    2
    19    29    32    1
    20    32    33   ar
    21    33    34   ar
    22    34    35   ar
    23    35    36   ar
    24    36    37   ar
    25    37    42    1
    26    42    43   ar
    27    43    44   ar
    28    44    45   ar
    29    45    46   ar
    30    46    47   ar
    31    37    38   ar
    32    38    39   ar
    33    39    40   ar
    34    40    41    1
    35     4     5   ar
    36     5     6   ar
    37    10    11    1
    38    11    12    1
    39    17    18   ar
    40    18    19   ar
    41    19    21    1
    42    21    22    2
    43    21    23    1
    44    19    20   ar
    45    20    15   ar
    46    12     7    1
    47     6     1   ar
    48    40    32   ar
    49    39    34   ar
    50    47    42   ar
    51    28    31    1
    52    23    24    1
@<TRIPOS>MOLECULE
*****
 47 52 0 0 0
SMALL
GASTEIGER

@<TRIPOS>ATOM
      1 C         -66.7988  -54.8562  -25.3200 C.ar    1  UNL1        0.1318
      2 C         -66.8433  -54.6610  -23.9306 C.ar    1  UNL1        0.0356
      3 C         -65.9760  -53.7431  -23.3366 C.ar    1  UNL1        0.0191
      4 C         -65.0632  -53.0255  -24.1187 C.ar    1  UNL1        0.0702
      5 C         -65.0768  -53.2190  -25.5095 C.ar    1  UNL1        0.1149
      6 N         -65.9327  -54.1161  -26.0667 N.ar    1  UNL1       -0.2279
      7 C         -70.0829  -56.3881  -27.3172 C.3     1  UNL1        0.0472
      8 C         -70.0317  -56.5478  -25.7707 C.3     1  UNL1        0.0252
      9 C         -68.6054  -56.6361  -25.2057 C.3     1  UNL1        0.0923
     10 N         -67.6918  -55.7790  -25.9723 N.pl3   1  UNL1       -0.2932
     11 C         -67.5947  -55.9570  -27.4280 C.3     1  UNL1        0.0923
     12 C         -68.7527  -56.8047  -27.9767 C.3     1  UNL1        0.0252
     13 C         -71.2901  -57.1533  -27.8970 C.3     1  UNL1        0.2054
     14 O         -72.5291  -56.5605  -27.4983 O.3     1  UNL1       -0.4755
     15 C         -74.1029  -54.3665  -30.0961 C.ar    1  UNL1        0.0105
     16 C         -73.4342  -55.4568  -29.5210 C.ar    1  UNL1        0.0351
     17 C         -73.1953  -55.4976  -28.1338 C.ar    1  UNL1        0.1385
     18 C         -73.6343  -54.4356  -27.3350 C.ar    1  UNL1        0.0433
     19 C         -74.2929  -53.3297  -27.8975 C.ar    1  UNL1        0.0782
     20 C         -74.5164  -53.3003  -29.2842 C.ar    1  UNL1        0.0048
     21 C         -74.7376  -52.2099  -27.0378 C.2     1  UNL1        0.3381
     22 O         -74.7146  -51.0251  -27.4686 O.2     1  UNL1       -0.2451
     23 O         -75.1870  -52.4547  -25.7425 O.3     1  UNL1       -0.4771
     24 H         -75.4937  -51.6955  -25.1460 H       1  UNL1        0.2954
     25 C         -74.3027  -54.3071  -31.5840 C.3     1  UNL1        0.1688
     26 C         -73.9773  -53.0103  -33.4584 C.3     1  UNL1        0.1746
     27 O         -73.8048  -53.0755  -32.0608 O.3     1  UNL1       -0.3463
     28 N         -64.1925  -52.0654  -23.4959 N.am    1  UNL1       -0.2766
     29 C         -62.7792  -51.9830  -23.7421 C.2     1  UNL1        0.2839
     30 O         -62.1823  -52.9222  -24.3339 O.2     1  UNL1       -0.2665
     31 H         -64.5984  -51.4465  -22.7578 H       1  UNL1        0.1553
     32 C         -62.0193  -50.8125  -23.2637 C.ar    1  UNL1        0.1946
     33 O         -61.7301  -50.6166  -21.9895 O.2     1  UNL1       -0.4492
     34 C         -61.0558  -49.4966  -21.8970 C.ar    1  UNL1        0.1452
     35 C         -60.5523  -48.9076  -20.7424 C.ar    1  UNL1        0.0375
     36 C         -59.8549  -47.6940  -20.8706 C.ar    1  UNL1        0.0031
     37 C         -59.6717  -47.0900  -22.1439 C.ar    1  UNL1        0.0002
     38 C         -60.2001  -47.7230  -23.2946 C.ar    1  UNL1        0.0028
     39 C         -60.8867  -48.9271  -23.1305 C.ar    1  UNL1        0.0337
     40 C         -61.5067  -49.7652  -24.0375 C.ar    1  UNL1        0.0202
     41 C         -61.6071  -49.5897  -25.5228 C.3     1  UNL1        0.0345
     42 C         -58.9333  -45.8076  -22.2670 C.ar    1  UNL1        0.0000
     43 C         -57.5404  -45.8005  -22.4724 C.ar    1  UNL1        0.0000
     44 C         -56.8476  -44.5914  -22.5880 C.ar    1  UNL1        0.0000
     45 C         -57.5347  -43.3787  -22.5013 C.ar    1  UNL1        0.0000
     46 C         -58.9165  -43.3722  -22.2982 C.ar    1  UNL1        0.0000
     47 C         -59.6143  -44.5783  -22.1810 C.ar    1  UNL1        0.0000
@<TRIPOS>BOND
     1    26    27    1
     2    27    25    1
     3    25    15    1
     4    15    16   ar
     5    16    17   ar
     6    17    14    1
     7    14    13    1
     8    13     7    1
     9     7     8    1
    10     8     9    1
    11     9    10    1
    12    10     1    1
    13     1     2   ar
    14     2     3   ar
    15     3     4   ar
    16     4    28    1
    17    28    29   am
    18    29    30    2
    19    29    32    1
    20    32    33   ar
    21    33    34   ar
    22    34    35   ar
    23    35    36   ar
    24    36    37   ar
    25    37    42    1
    26    42    43   ar
    27    43    44   ar
    28    44    45   ar
    29    45    46   ar
    30    46    47   ar
    31    37    38   ar
    32    38    39   ar
    33    39    40   ar
    34    40    41    1
    35     4     5   ar
    36     5     6   ar
    37    10    11    1
    38    11    12    1
    39    17    18   ar
    40    18    19   ar
    41    19    21    1
    42    21    22    2
    43    21    23    1
    44    19    20   ar
    45    20    15   ar
    46    12     7    1
    47     6     1   ar
    48    40    32   ar
    49    39    34   ar
    50    47    42   ar
    51    28    31    1
    52    23    24    1
