@<TRIPOS>MOLECULE
*****
 50 55 0 0 0
SMALL
GASTEIGER

@<TRIPOS>ATOM
      1 C          13.5823   82.9128   24.8734 C.2     1  UNL1        0.2483
      2 O          14.1614   83.4666   25.8477 O.2     1  UNL1       -0.2701
      3 N          13.8102   83.3990   23.5417 N.am    1  UNL1       -0.2945
      4 H          13.5624   82.7855   22.7324 H       1  UNL1        0.1501
      5 C          10.9381   79.5934   25.6006 C.ar    1  UNL1        0.0502
      6 C          10.4589   80.9113   25.6502 C.ar    1  UNL1        0.0148
      7 C          11.3184   81.9865   25.4125 C.ar    1  UNL1        0.0080
      8 C          12.6747   81.7657   25.1136 C.ar    1  UNL1        0.0808
      9 C          13.1553   80.4421   25.0692 C.ar    1  UNL1        0.1457
     10 F          14.4533   80.1816   24.7687 F       1  UNL1       -0.2040
     11 C          12.2910   79.3689   25.3074 C.ar    1  UNL1        0.0443
     12 N           8.3968   76.2657   25.8013 N.pl3   1  UNL1       -0.3034
     13 C           7.8350   77.5422   25.3524 C.3     1  UNL1        0.1123
     14 C           8.6092   78.7003   25.9867 C.3     1  UNL1        0.1122
     15 N          10.0556   78.4812   25.8416 N.pl3   1  UNL1       -0.3040
     16 C          10.6085   77.1889   26.2716 C.3     1  UNL1        0.1122
     17 C           9.8334   76.0453   25.6177 C.3     1  UNL1        0.1123
     18 C           6.0268   73.5534   28.0833 C.ar    1  UNL1       -0.0110
     19 C           6.0190   73.5282   26.6756 C.ar    1  UNL1       -0.0021
     20 C           6.8007   74.4135   25.9384 C.ar    1  UNL1        0.0151
     21 C           7.6118   75.3506   26.5836 C.ar    1  UNL1        0.0594
     22 C           7.6460   75.3903   27.9891 C.ar    1  UNL1        0.0811
     23 CL          8.7180   76.5346   28.8014 Cl      1  UNL1       -0.0801
     24 C           6.8565   74.4970   28.7431 C.ar    1  UNL1        0.0654
     25 CL          6.9326   74.5796   30.5078 Cl      1  UNL1       -0.0817
     26 C           3.8463   73.2256   29.3120 C.3     1  UNL1        0.0047
     27 C           5.1519   72.5659   28.8493 C.3     1  UNL1        0.0232
     28 C           4.8685   71.3133   28.0102 C.3     1  UNL1        0.0047
     29 C          14.5182   84.6559   23.2811 C.3     1  UNL1        0.1535
     30 C          14.8006   84.7888   21.8096 C.2     1  UNL1        0.2443
     31 O          15.5382   83.9349   21.2469 O.2     1  UNL1       -0.2730
     32 N          14.2984   85.9152   21.0716 N.am    1  UNL1       -0.2825
     33 H          13.9823   86.7529   21.6107 H       1  UNL1        0.1549
     34 C          14.2870   85.9957   19.6362 C.ar    1  UNL1        0.0535
     35 C          14.6541   84.9009   18.8350 C.ar    1  UNL1        0.0353
     36 C          14.6017   85.0176   17.4437 C.ar    1  UNL1        0.1002
     37 N          14.1849   86.1777   16.8709 N.ar    1  UNL1       -0.2422
     38 C          13.8064   87.2459   17.6211 C.ar    1  UNL1        0.1002
     39 C          13.8424   87.1712   19.0155 C.ar    1  UNL1        0.0353
     40 C          13.6963   85.8571   23.7781 C.3     1  UNL1        0.0569
     41 C          14.4935   86.6961   24.7347 C.ar    1  UNL1       -0.0017
     42 C          14.2448   86.8668   26.0936 C.ar    1  UNL1        0.0681
     43 N          15.2211   87.6101   26.6625 N.ar    1  UNL1       -0.3523
     44 C          16.0894   87.8993   25.6778 C.ar    1  UNL1        0.0563
     45 C          17.2746   88.6261   25.7826 C.ar    1  UNL1        0.0170
     46 C          18.0515   88.7881   24.6207 C.ar    1  UNL1        0.0015
     47 C          17.6335   88.2227   23.3954 C.ar    1  UNL1        0.0001
     48 C          16.4339   87.4916   23.3201 C.ar    1  UNL1        0.0012
     49 C          15.6822   87.3538   24.4872 C.ar    1  UNL1        0.0131
     50 H          15.2921   87.8846   27.6675 H       1  UNL1        0.1660
@<TRIPOS>BOND
     1    26    27    1
     2    27    28    1
     3    27    18    1
     4    18    19   ar
     5    19    20   ar
     6    20    21   ar
     7    21    12    1
     8    12    13    1
     9    13    14    1
    10    14    15    1
    11    15     5    1
    12     5     6   ar
    13     6     7   ar
    14     7     8   ar
    15     8     1    1
    16     1     2    2
    17     1     3   am
    18     3    29    1
    19    29    40    1
    20    40    41    1
    21    41    42   ar
    22    42    43   ar
    23    43    44   ar
    24    44    45   ar
    25    45    46   ar
    26    46    47   ar
    27    47    48   ar
    28    48    49   ar
    29    29    30    1
    30    30    31    2
    31    30    32   am
    32    32    34    1
    33    34    35   ar
    34    35    36   ar
    35    36    37   ar
    36    37    38   ar
    37    38    39   ar
    38     8     9   ar
    39     9    10    1
    40     9    11   ar
    41    15    16    1
    42    16    17    1
    43    21    22   ar
    44    22    23    1
    45    22    24   ar
    46    24    25    1
    47    24    18   ar
    48    17    12    1
    49    11     5   ar
    50    49    41   ar
    51    39    34   ar
    52    49    44   ar
    53     3     4    1
    54    43    50    1
    55    32    33    1
@<TRIPOS>MOLECULE
*****
 50 55 0 0 0
SMALL
GASTEIGER

@<TRIPOS>ATOM
      1 C          10.5547   78.1157   24.7330 C.2     1  UNL1        0.2483
      2 O          11.1268   77.0768   25.1628 O.2     1  UNL1       -0.2701
      3 N           9.2336   78.0213   24.1782 N.am    1  UNL1       -0.2945
      4 H           8.6638   78.8925   24.0837 H       1  UNL1        0.1501
      5 C          12.5636   81.9194   24.9188 C.ar    1  UNL1        0.0502
      6 C          11.1646   81.8551   24.8320 C.ar    1  UNL1        0.0148
      7 C          10.5150   80.6198   24.7733 C.ar    1  UNL1        0.0080
      8 C          11.2512   79.4220   24.8067 C.ar    1  UNL1        0.0808
      9 C          12.6561   79.4885   24.8888 C.ar    1  UNL1        0.1457
     10 F          13.4056   78.3578   24.9400 F       1  UNL1       -0.2040
     11 C          13.3019   80.7274   24.9478 C.ar    1  UNL1        0.0443
     12 N          14.0877   85.8076   25.2816 N.pl3   1  UNL1       -0.3034
     13 C          13.2669   85.4901   24.1102 C.3     1  UNL1        0.1123
     14 C          13.4031   84.0040   23.7699 C.3     1  UNL1        0.1122
     15 N          13.2381   83.1902   24.9829 N.pl3   1  UNL1       -0.3040
     16 C          14.0473   83.5299   26.1622 C.3     1  UNL1        0.1122
     17 C          13.8877   85.0129   26.4959 C.3     1  UNL1        0.1123
     18 C          17.3957   88.4773   24.9499 C.ar    1  UNL1       -0.0110
     19 C          17.0344   87.6228   23.8909 C.ar    1  UNL1       -0.0021
     20 C          15.9489   86.7586   24.0056 C.ar    1  UNL1        0.0151
     21 C          15.1932   86.7204   25.1802 C.ar    1  UNL1        0.0594
     22 C          15.5264   87.5709   26.2496 C.ar    1  UNL1        0.0811
     23 CL         14.5327   87.5639   27.7093 Cl      1  UNL1       -0.0801
     24 C          16.6251   88.4490   26.1413 C.ar    1  UNL1        0.0654
     25 CL         17.0066   89.5031   27.5088 Cl      1  UNL1       -0.0817
     26 C          19.5382   89.3182   25.9865 C.3     1  UNL1        0.0047
     27 C          18.5944   89.4056   24.7801 C.3     1  UNL1        0.0232
     28 C          19.3418   89.1087   23.4738 C.3     1  UNL1        0.0047
     29 C           8.6013   76.7315   23.8856 C.3     1  UNL1        0.1535
     30 C           7.1936   76.7197   24.4157 C.2     1  UNL1        0.2443
     31 O           7.0020   76.8801   25.6516 O.2     1  UNL1       -0.2730
     32 N           6.0877   76.4538   23.5369 N.am    1  UNL1       -0.2825
     33 H           6.2916   76.0091   22.6134 H       1  UNL1        0.1549
     34 C           4.7114   76.6794   23.8854 C.ar    1  UNL1        0.0535
     35 C           3.7653   77.0784   22.9257 C.ar    1  UNL1        0.0353
     36 C           2.4330   77.2596   23.3059 C.ar    1  UNL1        0.1002
     37 N           2.0537   77.0375   24.5921 N.ar    1  UNL1       -0.2422
     38 C           2.9434   76.6334   25.5368 C.ar    1  UNL1        0.1002
     39 C           4.2848   76.4390   25.1987 C.ar    1  UNL1        0.0353
     40 C           8.6049   76.4539   22.3729 C.3     1  UNL1        0.0569
     41 C           9.8271   75.6800   21.9705 C.ar    1  UNL1       -0.0017
     42 C          11.0525   76.2108   21.5778 C.ar    1  UNL1        0.0681
     43 N          11.9545   75.2220   21.3825 N.ar    1  UNL1       -0.3523
     44 C          11.3129   74.0737   21.6602 C.ar    1  UNL1        0.0563
     45 C          11.8380   72.7826   21.6257 C.ar    1  UNL1        0.0170
     46 C          10.9897   71.7181   21.9821 C.ar    1  UNL1        0.0015
     47 C           9.6525   71.9655   22.3650 C.ar    1  UNL1        0.0001
     48 C           9.1506   73.2794   22.3933 C.ar    1  UNL1        0.0012
     49 C          10.0136   74.3130   22.0283 C.ar    1  UNL1        0.0131
     50 H          12.9516   75.3340   21.0936 H       1  UNL1        0.1660
@<TRIPOS>BOND
     1    26    27    1
     2    27    28    1
     3    27    18    1
     4    18    19   ar
     5    19    20   ar
     6    20    21   ar
     7    21    12    1
     8    12    13    1
     9    13    14    1
    10    14    15    1
    11    15     5    1
    12     5     6   ar
    13     6     7   ar
    14     7     8   ar
    15     8     1    1
    16     1     2    2
    17     1     3   am
    18     3    29    1
    19    29    40    1
    20    40    41    1
    21    41    42   ar
    22    42    43   ar
    23    43    44   ar
    24    44    45   ar
    25    45    46   ar
    26    46    47   ar
    27    47    48   ar
    28    48    49   ar
    29    29    30    1
    30    30    31    2
    31    30    32   am
    32    32    34    1
    33    34    35   ar
    34    35    36   ar
    35    36    37   ar
    36    37    38   ar
    37    38    39   ar
    38     8     9   ar
    39     9    10    1
    40     9    11   ar
    41    15    16    1
    42    16    17    1
    43    21    22   ar
    44    22    23    1
    45    22    24   ar
    46    24    25    1
    47    24    18   ar
    48    17    12    1
    49    11     5   ar
    50    49    41   ar
    51    39    34   ar
    52    49    44   ar
    53     3     4    1
    54    43    50    1
    55    32    33    1
@<TRIPOS>MOLECULE
*****
 50 55 0 0 0
SMALL
GASTEIGER

@<TRIPOS>ATOM
      1 C          10.8905   77.8592   25.0385 C.2     1  UNL1        0.2483
      2 O          11.5550   76.8377   25.3648 O.2     1  UNL1       -0.2701
      3 N           9.5159   77.7177   24.6482 N.am    1  UNL1       -0.2945
      4 H           8.9025   78.5641   24.6495 H       1  UNL1        0.1501
      5 C          12.7426   81.7458   25.0858 C.ar    1  UNL1        0.0502
      6 C          11.3586   81.6128   25.2751 C.ar    1  UNL1        0.0148
      7 C          10.7603   80.3506   25.2607 C.ar    1  UNL1        0.0080
      8 C          11.5350   79.1937   25.0632 C.ar    1  UNL1        0.0808
      9 C          12.9238   79.3295   24.8682 C.ar    1  UNL1        0.1457
     10 F          13.7124   78.2391   24.6900 F       1  UNL1       -0.2040
     11 C          13.5183   80.5950   24.8839 C.ar    1  UNL1        0.0443
     12 N          14.1023   85.7060   25.2869 N.pl3   1  UNL1       -0.3034
     13 C          13.3354   85.2943   24.1084 C.3     1  UNL1        0.1123
     14 C          13.5405   83.7989   23.8536 C.3     1  UNL1        0.1122
     15 N          13.3651   83.0443   25.1029 N.pl3   1  UNL1       -0.3040
     16 C          14.1193   83.4782   26.2877 C.3     1  UNL1        0.1122
     17 C          13.8913   84.9691   26.5353 C.3     1  UNL1        0.1123
     18 C          17.3132   88.4869   24.9156 C.ar    1  UNL1       -0.0110
     19 C          16.9715   87.6169   23.8627 C.ar    1  UNL1       -0.0021
     20 C          15.9175   86.7163   23.9903 C.ar    1  UNL1        0.0151
     21 C          15.1747   86.6560   25.1722 C.ar    1  UNL1        0.0594
     22 C          15.4886   87.5210   26.2358 C.ar    1  UNL1        0.0811
     23 CL         14.5095   87.4846   27.7049 Cl      1  UNL1       -0.0801
     24 C          16.5553   88.4360   26.1144 C.ar    1  UNL1        0.0654
     25 CL         16.9132   89.5072   27.4751 Cl      1  UNL1       -0.0817
     26 C          19.4209   89.4238   25.9410 C.3     1  UNL1        0.0047
     27 C          18.4775   89.4554   24.7315 C.3     1  UNL1        0.0232
     28 C          19.2384   89.1632   23.4320 C.3     1  UNL1        0.0047
     29 C           8.9071   76.4076   24.3991 C.3     1  UNL1        0.1535
     30 C           7.6109   76.2937   25.1538 C.2     1  UNL1        0.2443
     31 O           6.5902   75.8550   24.5575 O.2     1  UNL1       -0.2730
     32 N           7.5187   76.7496   26.5138 N.am    1  UNL1       -0.2825
     33 H           8.2623   77.3940   26.8662 H       1  UNL1        0.1549
     34 C           6.4209   76.4461   27.3910 C.ar    1  UNL1        0.0535
     35 C           5.2996   77.2882   27.4848 C.ar    1  UNL1        0.0353
     36 C           4.2445   76.9383   28.3314 C.ar    1  UNL1        0.1002
     37 N           4.2976   75.7842   29.0475 N.ar    1  UNL1       -0.2422
     38 C           5.3609   74.9421   28.9623 C.ar    1  UNL1        0.1002
     39 C           6.4364   75.2534   28.1270 C.ar    1  UNL1        0.0353
     40 C           8.6698   76.1947   22.8945 C.3     1  UNL1        0.0569
     41 C           9.8761   75.5852   22.2403 C.ar    1  UNL1       -0.0017
     42 C          10.9332   76.2705   21.6484 C.ar    1  UNL1        0.0681
     43 N          11.8921   75.4046   21.2481 N.ar    1  UNL1       -0.3523
     44 C          11.4551   74.1810   21.5931 C.ar    1  UNL1        0.0563
     45 C          12.1128   72.9656   21.4084 C.ar    1  UNL1        0.0170
     46 C          11.4793   71.7981   21.8726 C.ar    1  UNL1        0.0015
     47 C          10.2195   71.8712   22.5076 C.ar    1  UNL1        0.0001
     48 C           9.5805   73.1122   22.6827 C.ar    1  UNL1        0.0012
     49 C          10.2303   74.2510   22.2062 C.ar    1  UNL1        0.0131
     50 H          12.7960   75.6443   20.7834 H       1  UNL1        0.1660
@<TRIPOS>BOND
     1    26    27    1
     2    27    28    1
     3    27    18    1
     4    18    19   ar
     5    19    20   ar
     6    20    21   ar
     7    21    12    1
     8    12    13    1
     9    13    14    1
    10    14    15    1
    11    15     5    1
    12     5     6   ar
    13     6     7   ar
    14     7     8   ar
    15     8     1    1
    16     1     2    2
    17     1     3   am
    18     3    29    1
    19    29    40    1
    20    40    41    1
    21    41    42   ar
    22    42    43   ar
    23    43    44   ar
    24    44    45   ar
    25    45    46   ar
    26    46    47   ar
    27    47    48   ar
    28    48    49   ar
    29    29    30    1
    30    30    31    2
    31    30    32   am
    32    32    34    1
    33    34    35   ar
    34    35    36   ar
    35    36    37   ar
    36    37    38   ar
    37    38    39   ar
    38     8     9   ar
    39     9    10    1
    40     9    11   ar
    41    15    16    1
    42    16    17    1
    43    21    22   ar
    44    22    23    1
    45    22    24   ar
    46    24    25    1
    47    24    18   ar
    48    17    12    1
    49    11     5   ar
    50    49    41   ar
    51    39    34   ar
    52    49    44   ar
    53     3     4    1
    54    43    50    1
    55    32    33    1
@<TRIPOS>MOLECULE
*****
 50 55 0 0 0
SMALL
GASTEIGER

@<TRIPOS>ATOM
      1 C          13.8953   83.5243   24.0844 C.2     1  UNL1        0.2483
      2 O          14.6804   83.3096   23.1206 O.2     1  UNL1       -0.2701
      3 N          13.7983   84.8442   24.6413 N.am    1  UNL1       -0.2945
      4 H          12.9701   85.0813   25.2333 H       1  UNL1        0.1501
      5 C          11.5204   80.3142   25.6951 C.ar    1  UNL1        0.0502
      6 C          10.9464   81.5699   25.4445 C.ar    1  UNL1        0.0148
      7 C          11.7187   82.6094   24.9205 C.ar    1  UNL1        0.0080
      8 C          13.0805   82.4127   24.6300 C.ar    1  UNL1        0.0808
      9 C          13.6564   81.1528   24.8870 C.ar    1  UNL1        0.1457
     10 F          14.9630   80.9135   24.6068 F       1  UNL1       -0.2040
     11 C          12.8793   80.1152   25.4110 C.ar    1  UNL1        0.0443
     12 N           9.6146   77.0771   27.5555 N.pl3   1  UNL1       -0.3034
     13 C          10.5724   76.7959   26.4831 C.3     1  UNL1        0.1123
     14 C          10.6085   77.9689   25.5003 C.3     1  UNL1        0.1122
     15 N          10.7281   79.2383   26.2320 N.pl3   1  UNL1       -0.3040
     16 C           9.7789   79.5028   27.3229 C.3     1  UNL1        0.1122
     17 C           9.7669   78.3287   28.3014 C.3     1  UNL1        0.1123
     18 C           6.1769   74.6106   28.0838 C.ar    1  UNL1       -0.0110
     19 C           7.3411   74.4197   28.8523 C.ar    1  UNL1       -0.0021
     20 C           8.4569   75.2338   28.6774 C.ar    1  UNL1        0.0151
     21 C           8.4446   76.2608   27.7302 C.ar    1  UNL1        0.0594
     22 C           7.2907   76.4796   26.9564 C.ar    1  UNL1        0.0811
     23 CL          7.2568   77.8166   25.8034 Cl      1  UNL1       -0.0801
     24 C           6.1563   75.6587   27.1273 C.ar    1  UNL1        0.0654
     25 CL          4.7259   75.9711   26.1356 Cl      1  UNL1       -0.0817
     26 C           5.3157   72.2423   27.9371 C.3     1  UNL1        0.0047
     27 C           4.9793   73.6925   28.3083 C.3     1  UNL1        0.0232
     28 C           4.4739   73.7878   29.7535 C.3     1  UNL1        0.0047
     29 C          14.7365   85.9123   24.2833 C.3     1  UNL1        0.1535
     30 C          14.9510   85.9273   22.7945 C.2     1  UNL1        0.2443
     31 O          16.1274   85.8756   22.3436 O.2     1  UNL1       -0.2730
     32 N          13.8353   86.0749   21.9004 N.am    1  UNL1       -0.2825
     33 H          12.9376   86.4388   22.2928 H       1  UNL1        0.1549
     34 C          13.9031   85.8378   20.4841 C.ar    1  UNL1        0.0535
     35 C          14.3992   84.6305   19.9631 C.ar    1  UNL1        0.0353
     36 C          14.4208   84.4346   18.5798 C.ar    1  UNL1        0.1002
     37 N          13.9517   85.4002   17.7461 N.ar    1  UNL1       -0.2422
     38 C          13.4493   86.5696   18.2228 C.ar    1  UNL1        0.1002
     39 C          13.4081   86.8054   19.5991 C.ar    1  UNL1        0.0353
     40 C          14.2153   87.2779   24.7618 C.3     1  UNL1        0.0569
     41 C          15.1141   87.8580   25.8154 C.ar    1  UNL1       -0.0017
     42 C          14.8460   87.9434   27.1786 C.ar    1  UNL1        0.0681
     43 N          15.9189   88.4329   27.8411 N.ar    1  UNL1       -0.3523
     44 C          16.8651   88.6454   26.9100 C.ar    1  UNL1        0.0563
     45 C          18.1589   89.1234   27.1138 C.ar    1  UNL1        0.0170
     46 C          18.9990   89.2454   25.9917 C.ar    1  UNL1        0.0015
     47 C          18.5341   88.8868   24.7068 C.ar    1  UNL1        0.0001
     48 C          17.2241   88.4046   24.5316 C.ar    1  UNL1        0.0012
     49 C          16.4130   88.3010   25.6619 C.ar    1  UNL1        0.0131
     50 H          15.9983   88.5931   28.8698 H       1  UNL1        0.1660
@<TRIPOS>BOND
     1    26    27    1
     2    27    28    1
     3    27    18    1
     4    18    19   ar
     5    19    20   ar
     6    20    21   ar
     7    21    12    1
     8    12    13    1
     9    13    14    1
    10    14    15    1
    11    15     5    1
    12     5     6   ar
    13     6     7   ar
    14     7     8   ar
    15     8     1    1
    16     1     2    2
    17     1     3   am
    18     3    29    1
    19    29    40    1
    20    40    41    1
    21    41    42   ar
    22    42    43   ar
    23    43    44   ar
    24    44    45   ar
    25    45    46   ar
    26    46    47   ar
    27    47    48   ar
    28    48    49   ar
    29    29    30    1
    30    30    31    2
    31    30    32   am
    32    32    34    1
    33    34    35   ar
    34    35    36   ar
    35    36    37   ar
    36    37    38   ar
    37    38    39   ar
    38     8     9   ar
    39     9    10    1
    40     9    11   ar
    41    15    16    1
    42    16    17    1
    43    21    22   ar
    44    22    23    1
    45    22    24   ar
    46    24    25    1
    47    24    18   ar
    48    17    12    1
    49    11     5   ar
    50    49    41   ar
    51    39    34   ar
    52    49    44   ar
    53     3     4    1
    54    43    50    1
    55    32    33    1
@<TRIPOS>MOLECULE
*****
 50 55 0 0 0
SMALL
GASTEIGER

@<TRIPOS>ATOM
      1 C          11.0054   77.7707   24.6332 C.2     1  UNL1        0.2483
      2 O          11.3456   76.8755   25.4543 O.2     1  UNL1       -0.2701
      3 N          10.0309   77.4734   23.6214 N.am    1  UNL1       -0.2945
      4 H           9.5538   78.2653   23.1337 H       1  UNL1        0.1501
      5 C          12.7849   81.6806   24.9231 C.ar    1  UNL1        0.0502
      6 C          13.5786   80.5271   25.0146 C.ar    1  UNL1        0.0148
      7 C          12.9991   79.2597   24.9188 C.ar    1  UNL1        0.0080
      8 C          11.6136   79.1194   24.7228 C.ar    1  UNL1        0.0808
      9 C          10.8175   80.2786   24.6362 C.ar    1  UNL1        0.1457
     10 F           9.4784   80.1908   24.4312 F       1  UNL1       -0.2040
     11 C          11.4022   81.5452   24.7322 C.ar    1  UNL1        0.0443
     12 N          14.0478   85.6565   25.3352 N.pl3   1  UNL1       -0.3034
     13 C          13.3459   85.2748   24.1071 C.3     1  UNL1        0.1123
     14 C          13.5949   83.7946   23.8071 C.3     1  UNL1        0.1122
     15 N          13.3777   82.9896   25.0179 N.pl3   1  UNL1       -0.3040
     16 C          14.0661   83.3930   26.2524 C.3     1  UNL1        0.1122
     17 C          13.7946   84.8686   26.5440 C.3     1  UNL1        0.1123
     18 C          17.2125   88.5118   25.2224 C.ar    1  UNL1       -0.0110
     19 C          16.9721   87.6409   24.1425 C.ar    1  UNL1       -0.0021
     20 C          15.9326   86.7158   24.1854 C.ar    1  UNL1        0.0151
     21 C          15.1036   86.6313   25.3069 C.ar    1  UNL1        0.0594
     22 C          15.3155   87.4965   26.3952 C.ar    1  UNL1        0.0811
     23 CL         14.2286   87.4287   27.7853 Cl      1  UNL1       -0.0801
     24 C          16.3670   88.4363   26.3596 C.ar    1  UNL1        0.0654
     25 CL         16.5954   89.5067   27.7484 Cl      1  UNL1       -0.0817
     26 C          19.3814   89.2822   26.2586 C.3     1  UNL1        0.0047
     27 C          18.3648   89.5076   25.1319 C.3     1  UNL1        0.0232
     28 C          19.0430   89.4437   23.7575 C.3     1  UNL1        0.0047
     29 C           9.5715   76.1062   23.3592 C.3     1  UNL1        0.1535
     30 C           8.2478   75.8726   24.0345 C.2     1  UNL1        0.2443
     31 O           7.9563   74.7107   24.4279 O.2     1  UNL1       -0.2730
     32 N           7.2973   76.9433   24.1616 N.am    1  UNL1       -0.2825
     33 H           7.4208   77.7833   23.5522 H       1  UNL1        0.1549
     34 C           6.1377   76.8926   25.0100 C.ar    1  UNL1        0.0535
     35 C           6.2332   77.0860   26.3988 C.ar    1  UNL1        0.0353
     36 C           5.0750   77.0546   27.1796 C.ar    1  UNL1        0.1002
     37 N           3.8638   76.8525   26.5968 N.ar    1  UNL1       -0.2422
     38 C           3.7398   76.6811   25.2542 C.ar    1  UNL1        0.1002
     39 C           4.8723   76.7067   24.4368 C.ar    1  UNL1        0.0353
     40 C           9.4519   75.8524   21.8470 C.3     1  UNL1        0.0569
     41 C           8.1266   76.3271   21.3246 C.ar    1  UNL1       -0.0017
     42 C           7.7761   77.6402   21.0241 C.ar    1  UNL1        0.0681
     43 N           6.5371   77.6862   20.4835 N.ar    1  UNL1       -0.3523
     44 C           6.1081   76.4133   20.4291 C.ar    1  UNL1        0.0563
     45 C           4.8930   75.9519   19.9245 C.ar    1  UNL1        0.0170
     46 C           4.6583   74.5647   19.9416 C.ar    1  UNL1        0.0015
     47 C           5.6338   73.6797   20.4525 C.ar    1  UNL1        0.0001
     48 C           6.8523   74.1738   20.9528 C.ar    1  UNL1        0.0012
     49 C           7.0531   75.5541   20.9285 C.ar    1  UNL1        0.0131
     50 H           6.0288   78.5382   20.1578 H       1  UNL1        0.1660
@<TRIPOS>BOND
     1    26    27    1
     2    27    28    1
     3    27    18    1
     4    18    19   ar
     5    19    20   ar
     6    20    21   ar
     7    21    12    1
     8    12    13    1
     9    13    14    1
    10    14    15    1
    11    15     5    1
    12     5     6   ar
    13     6     7   ar
    14     7     8   ar
    15     8     1    1
    16     1     2    2
    17     1     3   am
    18     3    29    1
    19    29    40    1
    20    40    41    1
    21    41    42   ar
    22    42    43   ar
    23    43    44   ar
    24    44    45   ar
    25    45    46   ar
    26    46    47   ar
    27    47    48   ar
    28    48    49   ar
    29    29    30    1
    30    30    31    2
    31    30    32   am
    32    32    34    1
    33    34    35   ar
    34    35    36   ar
    35    36    37   ar
    36    37    38   ar
    37    38    39   ar
    38     8     9   ar
    39     9    10    1
    40     9    11   ar
    41    15    16    1
    42    16    17    1
    43    21    22   ar
    44    22    23    1
    45    22    24   ar
    46    24    25    1
    47    24    18   ar
    48    17    12    1
    49    11     5   ar
    50    49    41   ar
    51    39    34   ar
    52    49    44   ar
    53     3     4    1
    54    43    50    1
    55    32    33    1
@<TRIPOS>MOLECULE
*****
 50 55 0 0 0
SMALL
GASTEIGER

@<TRIPOS>ATOM
      1 C           9.8051   75.7512   25.5403 C.2     1  UNL1        0.2483
      2 O          10.4607   74.7780   26.0033 O.2     1  UNL1       -0.2701
      3 N           8.4317   75.5677   25.1635 N.am    1  UNL1       -0.2945
      4 H           7.8242   76.4105   25.0487 H       1  UNL1        0.1501
      5 C          11.6748   79.6046   25.0994 C.ar    1  UNL1        0.0502
      6 C          10.5659   79.4422   25.9438 C.ar    1  UNL1        0.0148
      7 C           9.9619   78.1907   26.0863 C.ar    1  UNL1        0.0080
      8 C          10.4587   77.0733   25.3918 C.ar    1  UNL1        0.0808
      9 C          11.5690   77.2392   24.5405 C.ar    1  UNL1        0.1457
     10 F          12.0917   76.1852   23.8633 F       1  UNL1       -0.2040
     11 C          12.1706   78.4939   24.4014 C.ar    1  UNL1        0.0443
     12 N          13.4622   83.3957   25.1748 N.pl3   1  UNL1       -0.3034
     13 C          12.0010   83.3155   25.2466 C.3     1  UNL1        0.1123
     14 C          11.5153   82.0568   24.5236 C.3     1  UNL1        0.1122
     15 N          12.3032   80.8919   24.9515 N.pl3   1  UNL1       -0.3040
     16 C          13.7691   80.9884   24.8996 C.3     1  UNL1        0.1122
     17 C          14.2368   82.2420   25.6385 C.3     1  UNL1        0.1123
     18 C          15.4004   86.5646   23.0815 C.ar    1  UNL1       -0.0110
     19 C          14.9768   85.3982   22.4165 C.ar    1  UNL1       -0.0021
     20 C          14.3391   84.3709   23.1068 C.ar    1  UNL1        0.0151
     21 C          14.1067   84.4765   24.4805 C.ar    1  UNL1        0.0594
     22 C          14.5106   85.6356   25.1672 C.ar    1  UNL1        0.0811
     23 CL         14.1610   85.7920   26.8910 Cl      1  UNL1       -0.0801
     24 C          15.1577   86.6805   24.4749 C.ar    1  UNL1        0.0654
     25 CL         15.6457   88.1211   25.3769 Cl      1  UNL1       -0.0817
     26 C          17.5527   87.8378   22.7376 C.3     1  UNL1        0.0047
     27 C          16.0974   87.6630   22.2845 C.3     1  UNL1        0.0232
     28 C          16.0194   87.3860   20.7777 C.3     1  UNL1        0.0047
     29 C           7.8152   74.2399   25.0865 C.3     1  UNL1        0.1535
     30 C           6.5911   74.1925   25.9595 C.2     1  UNL1        0.2443
     31 O           5.4566   74.3585   25.4349 O.2     1  UNL1       -0.2730
     32 N           6.7184   74.0358   27.3825 N.am    1  UNL1       -0.2825
     33 H           7.6498   74.2288   27.8156 H       1  UNL1        0.1549
     34 C           5.6232   73.7169   28.2575 C.ar    1  UNL1        0.0535
     35 C           4.9408   72.4916   28.1657 C.ar    1  UNL1        0.0353
     36 C           3.8997   72.2148   29.0555 C.ar    1  UNL1        0.1002
     37 N           3.5600   73.1193   30.0116 N.ar    1  UNL1       -0.2422
     38 C           4.2146   74.3039   30.1354 C.ar    1  UNL1        0.1002
     39 C           5.2623   74.6198   29.2671 C.ar    1  UNL1        0.0353
     40 C           7.4491   73.8929   23.6336 C.3     1  UNL1        0.0569
     41 C           8.5735   74.2345   22.6988 C.ar    1  UNL1       -0.0017
     42 C           8.6786   75.3772   21.9111 C.ar    1  UNL1        0.0681
     43 N           9.8689   75.4004   21.2692 N.ar    1  UNL1       -0.3523
     44 C          10.5202   74.2892   21.6543 C.ar    1  UNL1        0.0563
     45 C          11.8003   73.8861   21.2763 C.ar    1  UNL1        0.0170
     46 C          12.3019   72.6911   21.8242 C.ar    1  UNL1        0.0015
     47 C          11.5237   71.9370   22.7305 C.ar    1  UNL1        0.0001
     48 C          10.2360   72.3698   23.0961 C.ar    1  UNL1        0.0012
     49 C           9.7637   73.5547   22.5313 C.ar    1  UNL1        0.0131
     50 H          10.2154   76.1429   20.6219 H       1  UNL1        0.1660
@<TRIPOS>BOND
     1    26    27    1
     2    27    28    1
     3    27    18    1
     4    18    19   ar
     5    19    20   ar
     6    20    21   ar
     7    21    12    1
     8    12    13    1
     9    13    14    1
    10    14    15    1
    11    15     5    1
    12     5     6   ar
    13     6     7   ar
    14     7     8   ar
    15     8     1    1
    16     1     2    2
    17     1     3   am
    18     3    29    1
    19    29    40    1
    20    40    41    1
    21    41    42   ar
    22    42    43   ar
    23    43    44   ar
    24    44    45   ar
    25    45    46   ar
    26    46    47   ar
    27    47    48   ar
    28    48    49   ar
    29    29    30    1
    30    30    31    2
    31    30    32   am
    32    32    34    1
    33    34    35   ar
    34    35    36   ar
    35    36    37   ar
    36    37    38   ar
    37    38    39   ar
    38     8     9   ar
    39     9    10    1
    40     9    11   ar
    41    15    16    1
    42    16    17    1
    43    21    22   ar
    44    22    23    1
    45    22    24   ar
    46    24    25    1
    47    24    18   ar
    48    17    12    1
    49    11     5   ar
    50    49    41   ar
    51    39    34   ar
    52    49    44   ar
    53     3     4    1
    54    43    50    1
    55    32    33    1
@<TRIPOS>MOLECULE
*****
 50 55 0 0 0
SMALL
GASTEIGER

@<TRIPOS>ATOM
      1 C          10.4779   78.0448   24.9421 C.2     1  UNL1        0.2483
      2 O          11.1400   76.9713   24.9659 O.2     1  UNL1       -0.2701
      3 N           9.0436   77.9940   24.8980 N.am    1  UNL1       -0.2945
      4 H           8.5013   78.8500   25.1549 H       1  UNL1        0.1501
      5 C          12.5217   81.8343   24.9716 C.ar    1  UNL1        0.0502
      6 C          11.1201   81.7795   25.0104 C.ar    1  UNL1        0.0148
      7 C          10.4594   80.5488   25.0022 C.ar    1  UNL1        0.0080
      8 C          11.1873   79.3462   24.9615 C.ar    1  UNL1        0.0808
      9 C          12.5943   79.4032   24.9175 C.ar    1  UNL1        0.1457
     10 F          13.3375   78.2674   24.8938 F       1  UNL1       -0.2040
     11 C          13.2513   80.6375   24.9264 C.ar    1  UNL1        0.0443
     12 N          14.0879   85.7165   25.1919 N.pl3   1  UNL1       -0.3034
     13 C          13.2251   85.3793   24.0568 C.3     1  UNL1        0.1123
     14 C          13.3379   83.8846   23.7466 C.3     1  UNL1        0.1122
     15 N          13.2080   83.1003   24.9832 N.pl3   1  UNL1       -0.3040
     16 C          14.0597   83.4600   26.1260 C.3     1  UNL1        0.1122
     17 C          13.9234   84.9516   26.4304 C.3     1  UNL1        0.1123
     18 C          17.4045   88.3483   24.6876 C.ar    1  UNL1       -0.0110
     19 C          17.0267   87.4434   23.6773 C.ar    1  UNL1       -0.0021
     20 C          15.9385   86.5919   23.8480 C.ar    1  UNL1        0.0151
     21 C          15.1965   86.6170   25.0317 C.ar    1  UNL1        0.0594
     22 C          15.5464   87.5186   26.0529 C.ar    1  UNL1        0.0811
     23 CL         14.5700   87.5906   27.5224 Cl      1  UNL1       -0.0801
     24 C          16.6479   88.3842   25.8877 C.ar    1  UNL1        0.0654
     25 CL         17.0506   89.5039   27.1957 Cl      1  UNL1       -0.0817
     26 C          19.5183   89.2965   25.6898 C.3     1  UNL1        0.0047
     27 C          18.6055   89.2604   24.4572 C.3     1  UNL1        0.0232
     28 C          19.3866   88.8393   23.2059 C.3     1  UNL1        0.0047
     29 C           8.3147   76.7452   24.6568 C.3     1  UNL1        0.1535
     30 C           9.0677   75.8955   23.6701 C.2     1  UNL1        0.2443
     31 O           9.2685   76.3383   22.5067 O.2     1  UNL1       -0.2730
     32 N           9.4862   74.5670   24.0248 N.am    1  UNL1       -0.2825
     33 H           9.0321   74.1140   24.8499 H       1  UNL1        0.1549
     34 C          10.4251   73.7893   23.2629 C.ar    1  UNL1        0.0535
     35 C          11.7936   74.1080   23.2359 C.ar    1  UNL1        0.0353
     36 C          12.6729   73.3071   22.5026 C.ar    1  UNL1        0.1002
     37 N          12.2084   72.2196   21.8322 N.ar    1  UNL1       -0.2422
     38 C          10.8933   71.8772   21.8559 C.ar    1  UNL1        0.1002
     39 C           9.9807   72.6501   22.5778 C.ar    1  UNL1        0.0353
     40 C           8.1023   75.9760   25.9716 C.3     1  UNL1        0.0569
     41 C           7.4865   76.8590   27.0184 C.ar    1  UNL1       -0.0017
     42 C           6.1278   77.0905   27.2131 C.ar    1  UNL1        0.0681
     43 N           5.9322   77.8607   28.3076 N.ar    1  UNL1       -0.3523
     44 C           7.1538   78.1068   28.8118 C.ar    1  UNL1        0.0563
     45 C           7.4636   78.8399   29.9565 C.ar    1  UNL1        0.0170
     46 C           8.8185   78.9508   30.3197 C.ar    1  UNL1        0.0015
     47 C           9.8212   78.3297   29.5422 C.ar    1  UNL1        0.0001
     48 C           9.4788   77.5936   28.3933 C.ar    1  UNL1        0.0012
     49 C           8.1280   77.5072   28.0553 C.ar    1  UNL1        0.0131
     50 H           5.0150   78.1805   28.6907 H       1  UNL1        0.1660
@<TRIPOS>BOND
     1    26    27    1
     2    27    28    1
     3    27    18    1
     4    18    19   ar
     5    19    20   ar
     6    20    21   ar
     7    21    12    1
     8    12    13    1
     9    13    14    1
    10    14    15    1
    11    15     5    1
    12     5     6   ar
    13     6     7   ar
    14     7     8   ar
    15     8     1    1
    16     1     2    2
    17     1     3   am
    18     3    29    1
    19    29    40    1
    20    40    41    1
    21    41    42   ar
    22    42    43   ar
    23    43    44   ar
    24    44    45   ar
    25    45    46   ar
    26    46    47   ar
    27    47    48   ar
    28    48    49   ar
    29    29    30    1
    30    30    31    2
    31    30    32   am
    32    32    34    1
    33    34    35   ar
    34    35    36   ar
    35    36    37   ar
    36    37    38   ar
    37    38    39   ar
    38     8     9   ar
    39     9    10    1
    40     9    11   ar
    41    15    16    1
    42    16    17    1
    43    21    22   ar
    44    22    23    1
    45    22    24   ar
    46    24    25    1
    47    24    18   ar
    48    17    12    1
    49    11     5   ar
    50    49    41   ar
    51    39    34   ar
    52    49    44   ar
    53     3     4    1
    54    43    50    1
    55    32    33    1
@<TRIPOS>MOLECULE
*****
 50 55 0 0 0
SMALL
GASTEIGER

@<TRIPOS>ATOM
      1 C          13.3551   83.5295   24.1300 C.2     1  UNL1        0.2483
      2 O          14.5220   83.3518   23.6846 O.2     1  UNL1       -0.2701
      3 N          12.7811   84.8455   24.1131 N.am    1  UNL1       -0.2945
      4 H          11.7456   84.9444   24.2163 H       1  UNL1        0.1501
      5 C          11.1200   80.2041   25.7062 C.ar    1  UNL1        0.0502
      6 C          10.4798   81.4165   25.4077 C.ar    1  UNL1        0.0148
      7 C          11.2069   82.4935   24.8950 C.ar    1  UNL1        0.0080
      8 C          12.5893   82.3782   24.6639 C.ar    1  UNL1        0.0808
      9 C          13.2314   81.1618   24.9690 C.ar    1  UNL1        0.1457
     10 F          14.5609   81.0007   24.7469 F       1  UNL1       -0.2040
     11 C          12.4993   80.0863   25.4816 C.ar    1  UNL1        0.0443
     12 N           9.3805   76.8244   27.4737 N.pl3   1  UNL1       -0.3034
     13 C          10.2020   76.6359   26.2753 C.3     1  UNL1        0.1123
     14 C          10.1466   77.8948   25.4063 C.3     1  UNL1        0.1122
     15 N          10.3747   79.0896   26.2318 N.pl3   1  UNL1       -0.3040
     16 C           9.5636   79.2597   27.4459 C.3     1  UNL1        0.1122
     17 C           9.6424   77.9999   28.3078 C.3     1  UNL1        0.1123
     18 C           5.9804   74.3489   28.1750 C.ar    1  UNL1       -0.0110
     19 C           7.2146   74.0940   28.8028 C.ar    1  UNL1       -0.0021
     20 C           8.3181   74.9113   28.5728 C.ar    1  UNL1        0.0151
     21 C           8.2231   76.0054   27.7090 C.ar    1  UNL1        0.0594
     22 C           6.9990   76.2884   27.0769 C.ar    1  UNL1        0.0811
     23 CL          6.8658   77.7069   26.0337 Cl      1  UNL1       -0.0801
     24 C           5.8766   75.4648   27.3044 C.ar    1  UNL1        0.0654
     25 CL          4.3564   75.8590   26.4917 Cl      1  UNL1       -0.0817
     26 C           5.1388   71.9701   28.1055 C.3     1  UNL1        0.0047
     27 C           4.7992   73.4249   28.4552 C.3     1  UNL1        0.0232
     28 C           4.3362   73.5471   29.9125 C.3     1  UNL1        0.0047
     29 C          13.5746   86.0383   23.8023 C.3     1  UNL1        0.1535
     30 C          14.2930   86.5110   25.0364 C.2     1  UNL1        0.2443
     31 O          15.5048   86.2020   25.1972 O.2     1  UNL1       -0.2730
     32 N          13.5873   87.2405   26.0542 N.am    1  UNL1       -0.2825
     33 H          12.5431   87.1963   26.0540 H       1  UNL1        0.1549
     34 C          14.2300   87.9534   27.1244 C.ar    1  UNL1        0.0535
     35 C          15.4149   88.6802   26.9170 C.ar    1  UNL1        0.0353
     36 C          15.9890   89.3798   27.9815 C.ar    1  UNL1        0.1002
     37 N          15.3967   89.3681   29.2049 N.ar    1  UNL1       -0.2422
     38 C          14.2409   88.6892   29.4295 C.ar    1  UNL1        0.1002
     39 C          13.6330   87.9777   28.3924 C.ar    1  UNL1        0.0353
     40 C          14.5814   85.7447   22.6774 C.3     1  UNL1        0.0569
     41 C          14.0969   86.2903   21.3652 C.ar    1  UNL1       -0.0017
     42 C          13.4464   87.5040   21.1614 C.ar    1  UNL1        0.0681
     43 N          13.2441   87.7154   19.8409 N.ar    1  UNL1       -0.3523
     44 C          13.7717   86.6523   19.2094 C.ar    1  UNL1        0.0563
     45 C          13.8272   86.4279   17.8345 C.ar    1  UNL1        0.0170
     46 C          14.4536   85.2508   17.3852 C.ar    1  UNL1        0.0015
     47 C          15.0080   84.3373   18.3093 C.ar    1  UNL1        0.0001
     48 C          14.9397   84.5913   19.6913 C.ar    1  UNL1        0.0012
     49 C          14.3068   85.7633   20.1062 C.ar    1  UNL1        0.0131
     50 H          12.7876   88.5467   19.4039 H       1  UNL1        0.1660
@<TRIPOS>BOND
     1    26    27    1
     2    27    28    1
     3    27    18    1
     4    18    19   ar
     5    19    20   ar
     6    20    21   ar
     7    21    12    1
     8    12    13    1
     9    13    14    1
    10    14    15    1
    11    15     5    1
    12     5     6   ar
    13     6     7   ar
    14     7     8   ar
    15     8     1    1
    16     1     2    2
    17     1     3   am
    18     3    29    1
    19    29    40    1
    20    40    41    1
    21    41    42   ar
    22    42    43   ar
    23    43    44   ar
    24    44    45   ar
    25    45    46   ar
    26    46    47   ar
    27    47    48   ar
    28    48    49   ar
    29    29    30    1
    30    30    31    2
    31    30    32   am
    32    32    34    1
    33    34    35   ar
    34    35    36   ar
    35    36    37   ar
    36    37    38   ar
    37    38    39   ar
    38     8     9   ar
    39     9    10    1
    40     9    11   ar
    41    15    16    1
    42    16    17    1
    43    21    22   ar
    44    22    23    1
    45    22    24   ar
    46    24    25    1
    47    24    18   ar
    48    17    12    1
    49    11     5   ar
    50    49    41   ar
    51    39    34   ar
    52    49    44   ar
    53     3     4    1
    54    43    50    1
    55    32    33    1
@<TRIPOS>MOLECULE
*****
 50 55 0 0 0
SMALL
GASTEIGER

@<TRIPOS>ATOM
      1 C          10.7599   77.8894   24.7303 C.2     1  UNL1        0.2483
      2 O          11.3790   76.9140   24.2236 O.2     1  UNL1       -0.2701
      3 N           9.4268   77.7024   25.2299 N.am    1  UNL1       -0.2945
      4 H           9.0299   78.4144   25.8843 H       1  UNL1        0.1501
      5 C          12.6502   81.7531   24.9216 C.ar    1  UNL1        0.0502
      6 C          11.2547   81.6459   24.8213 C.ar    1  UNL1        0.0148
      7 C          10.6437   80.3912   24.7608 C.ar    1  UNL1        0.0080
      8 C          11.4156   79.2166   24.8060 C.ar    1  UNL1        0.0808
      9 C          12.8170   79.3261   24.9016 C.ar    1  UNL1        0.1457
     10 F          13.5999   78.2189   24.9645 F       1  UNL1       -0.2040
     11 C          13.4241   80.5843   24.9624 C.ar    1  UNL1        0.0443
     12 N          14.0524   85.6866   25.2875 N.pl3   1  UNL1       -0.3034
     13 C          13.2472   85.3430   24.1126 C.3     1  UNL1        0.1123
     14 C          13.4306   83.8615   23.7744 C.3     1  UNL1        0.1122
     15 N          13.2850   83.0440   24.9875 N.pl3   1  UNL1       -0.3040
     16 C          14.0779   83.4095   26.1701 C.3     1  UNL1        0.1122
     17 C          13.8713   84.8872   26.5016 C.3     1  UNL1        0.1123
     18 C          17.2787   88.4561   24.9691 C.ar    1  UNL1       -0.0110
     19 C          16.9590   87.5789   23.9152 C.ar    1  UNL1       -0.0021
     20 C          15.8998   86.6820   24.0254 C.ar    1  UNL1        0.0151
     21 C          15.1298   86.6329   25.1902 C.ar    1  UNL1        0.0594
     22 C          15.4214   87.5053   26.2542 C.ar    1  UNL1        0.0811
     23 CL         14.4086   87.4829   27.7005 Cl      1  UNL1       -0.0801
     24 C          16.4932   88.4165   26.1504 C.ar    1  UNL1        0.0654
     25 CL         16.8226   89.4973   27.5106 Cl      1  UNL1       -0.0817
     26 C          19.4031   89.3435   26.0040 C.3     1  UNL1        0.0047
     27 C          18.4497   89.4201   24.8045 C.3     1  UNL1        0.0232
     28 C          19.1969   89.1616   23.4899 C.3     1  UNL1        0.0047
     29 C           8.6648   76.4755   24.9784 C.3     1  UNL1        0.1535
     30 C           7.9873   76.0253   26.2437 C.2     1  UNL1        0.2443
     31 O           8.4349   76.4219   27.3538 O.2     1  UNL1       -0.2730
     32 N           6.8923   75.0958   26.1912 N.am    1  UNL1       -0.2825
     33 H           6.7605   74.5427   25.3143 H       1  UNL1        0.1549
     34 C           6.0219   74.8152   27.3005 C.ar    1  UNL1        0.0535
     35 C           5.7413   73.4974   27.7005 C.ar    1  UNL1        0.0353
     36 C           4.9106   73.2740   28.8015 C.ar    1  UNL1        0.1002
     37 N           4.3899   74.3250   29.4884 N.ar    1  UNL1       -0.2422
     38 C           4.6592   75.6096   29.1354 C.ar    1  UNL1        0.1002
     39 C           5.4860   75.8773   28.0417 C.ar    1  UNL1        0.0353
     40 C           7.6261   76.6979   23.8662 C.3     1  UNL1        0.0569
     41 C           7.7402   75.6425   22.8042 C.ar    1  UNL1       -0.0017
     42 C           8.8802   74.9127   22.4798 C.ar    1  UNL1        0.0681
     43 N           8.5933   73.9809   21.5423 N.ar    1  UNL1       -0.3523
     44 C           7.2806   74.1082   21.2815 C.ar    1  UNL1        0.0563
     45 C           6.5170   73.3472   20.3974 C.ar    1  UNL1        0.0170
     46 C           5.1435   73.6362   20.2983 C.ar    1  UNL1        0.0015
     47 C           4.5699   74.6642   21.0793 C.ar    1  UNL1        0.0001
     48 C           5.3647   75.4141   21.9653 C.ar    1  UNL1        0.0012
     49 C           6.7240   75.1086   22.0366 C.ar    1  UNL1        0.0131
     50 H           9.2562   73.2914   21.1232 H       1  UNL1        0.1660
@<TRIPOS>BOND
     1    26    27    1
     2    27    28    1
     3    27    18    1
     4    18    19   ar
     5    19    20   ar
     6    20    21   ar
     7    21    12    1
     8    12    13    1
     9    13    14    1
    10    14    15    1
    11    15     5    1
    12     5     6   ar
    13     6     7   ar
    14     7     8   ar
    15     8     1    1
    16     1     2    2
    17     1     3   am
    18     3    29    1
    19    29    40    1
    20    40    41    1
    21    41    42   ar
    22    42    43   ar
    23    43    44   ar
    24    44    45   ar
    25    45    46   ar
    26    46    47   ar
    27    47    48   ar
    28    48    49   ar
    29    29    30    1
    30    30    31    2
    31    30    32   am
    32    32    34    1
    33    34    35   ar
    34    35    36   ar
    35    36    37   ar
    36    37    38   ar
    37    38    39   ar
    38     8     9   ar
    39     9    10    1
    40     9    11   ar
    41    15    16    1
    42    16    17    1
    43    21    22   ar
    44    22    23    1
    45    22    24   ar
    46    24    25    1
    47    24    18   ar
    48    17    12    1
    49    11     5   ar
    50    49    41   ar
    51    39    34   ar
    52    49    44   ar
    53     3     4    1
    54    43    50    1
    55    32    33    1
