@<TRIPOS>MOLECULE
*****
 36 40 0 0 0
SMALL
GASTEIGER

@<TRIPOS>ATOM
      1 N         -21.7153   -9.4076  -11.8619 N.3     1  UNL1       -0.2679
      2 C         -21.2736   -8.2535  -12.7108 C.3     1  UNL1        0.0978
      3 C         -21.8020   -8.3160  -14.1726 C.3     1  UNL1        0.0224
      4 C         -23.3281   -8.0453  -14.3281 C.3     1  UNL1        0.0065
      5 C         -24.0238   -7.5291  -13.0534 C.3     1  UNL1        0.0277
      6 C         -23.1233   -6.5938  -12.2990 C.ar    1  UNL1       -0.0073
      7 C         -23.5902   -5.3932  -11.7505 C.ar    1  UNL1       -0.0015
      8 C         -22.7014   -4.5439  -11.0884 C.ar    1  UNL1        0.0203
      9 C         -21.3559   -4.9060  -10.9836 C.ar    1  UNL1        0.0985
     10 N         -20.9231   -6.0833  -11.5089 N.ar    1  UNL1       -0.2471
     11 C         -21.7726   -6.9378  -12.1446 C.ar    1  UNL1        0.0695
     12 C         -21.2954  -10.7323  -12.4068 C.3     1  UNL1        0.0886
     13 C         -24.9940  -15.0422  -15.7220 C.ar    1  UNL1       -0.0003
     14 C         -23.6514  -15.3284  -15.9772 C.ar    1  UNL1       -0.0003
     15 C         -22.6465  -14.5604  -15.3837 C.ar    1  UNL1       -0.0045
     16 C         -22.9785  -13.4926  -14.5350 C.ar    1  UNL1       -0.0234
     17 C         -24.3343  -13.2218  -14.2547 C.ar    1  UNL1       -0.0103
     18 C         -25.3359  -13.9902  -14.8686 C.ar    1  UNL1       -0.0032
     19 C         -24.7202  -12.0473  -13.3912 C.3     1  UNL1        0.0953
     20 N         -23.6217  -11.6312  -12.5078 N.3     1  UNL1       -0.2934
     21 C         -22.3953  -11.3816  -13.2832 C.3     1  UNL1        0.0748
     22 C         -21.8811  -12.7151  -13.8570 C.3     1  UNL1        0.0432
     23 H         -23.9292  -10.7360  -12.0648 H       1  UNL1        0.1236
     24 C         -21.2497   -9.2577  -10.4495 C.3     1  UNL1        0.0725
     25 C         -19.7504   -9.5773  -10.3275 C.3     1  UNL1        0.0188
     26 C         -19.2169   -9.3693   -8.9012 C.3     1  UNL1        0.0185
     27 C         -19.9380   -8.2106   -8.1813 C.3     1  UNL1        0.0686
     28 N         -19.0178   -7.4580   -7.3137 N.3     1  UNL1       -0.2985
     29 H         -18.1896   -7.1618   -7.8826 H       1  UNL1        0.1232
     30 C         -18.5556   -8.2336   -6.1458 C.3     1  UNL1        0.0568
     31 C         -17.4008   -7.5263   -5.3873 C.3     1  UNL1        0.0328
     32 C         -17.3814   -7.8715   -3.8849 C.3     1  UNL1        0.0699
     33 N         -17.8992   -9.2226   -3.6369 N.3     1  UNL1       -0.2974
     34 C         -19.3281   -9.3388   -3.9866 C.3     1  UNL1        0.0699
     35 C         -19.7412   -8.4817   -5.2043 C.3     1  UNL1        0.0328
     36 H         -17.3481   -9.9045   -4.2105 H       1  UNL1        0.1232
@<TRIPOS>BOND
     1    13    14   ar
     2    14    15   ar
     3    15    16   ar
     4    16    17   ar
     5    17    18   ar
     6    17    19    1
     7    19    20    1
     8    20    21    1
     9    21    12    1
    10    12     1    1
    11     1    24    1
    12    24    25    1
    13    25    26    1
    14    26    27    1
    15    27    28    1
    16    28    30    1
    17    30    31    1
    18    31    32    1
    19    32    33    1
    20    33    34    1
    21    34    35    1
    22     1     2    1
    23     2     3    1
    24     3     4    1
    25     4     5    1
    26     5     6    1
    27     6     7   ar
    28     7     8   ar
    29     8     9   ar
    30     9    10   ar
    31    10    11   ar
    32    21    22    1
    33    18    13   ar
    34    35    30    1
    35    11     2    1
    36    22    16    1
    37    11     6   ar
    38    20    23    1
    39    28    29    1
    40    33    36    1
@<TRIPOS>MOLECULE
*****
 36 40 0 0 0
SMALL
GASTEIGER

@<TRIPOS>ATOM
      1 N         -21.8834   -9.5674  -12.0158 N.3     1  UNL1       -0.2679
      2 C         -21.4952   -8.4197  -12.8988 C.3     1  UNL1        0.0978
      3 C         -22.0748   -8.5168  -14.3392 C.3     1  UNL1        0.0224
      4 C         -23.6104   -8.2775  -14.4432 C.3     1  UNL1        0.0065
      5 C         -24.2694   -7.7529  -13.1525 C.3     1  UNL1        0.0277
      6 C         -23.3606   -6.7884  -12.4466 C.ar    1  UNL1       -0.0073
      7 C         -23.8304   -5.5876  -11.9010 C.ar    1  UNL1       -0.0015
      8 C         -22.9348   -4.7108  -11.2857 C.ar    1  UNL1        0.0203
      9 C         -21.5797   -5.0457  -11.2241 C.ar    1  UNL1        0.0985
     10 N         -21.1434   -6.2234  -11.7458 N.ar    1  UNL1       -0.2471
     11 C         -21.9987   -7.1042  -12.3361 C.ar    1  UNL1        0.0695
     12 C         -20.9821  -10.7488  -12.1574 C.3     1  UNL1        0.0886
     13 C         -25.3478  -14.5642  -15.2604 C.ar    1  UNL1       -0.0003
     14 C         -26.0172  -13.8536  -14.2622 C.ar    1  UNL1       -0.0003
     15 C         -25.3172  -12.9560  -13.4521 C.ar    1  UNL1       -0.0045
     16 C         -23.9373  -12.7686  -13.6297 C.ar    1  UNL1       -0.0234
     17 C         -23.2669  -13.4652  -14.6570 C.ar    1  UNL1       -0.0103
     18 C         -23.9771  -14.3758  -15.4549 C.ar    1  UNL1       -0.0032
     19 C         -21.7759  -13.3244  -14.8339 C.3     1  UNL1        0.0953
     20 N         -21.2703  -12.0720  -14.2539 N.3     1  UNL1       -0.2934
     21 C         -21.6854  -11.9442  -12.8472 C.3     1  UNL1        0.0748
     22 C         -23.2123  -11.7523  -12.7872 C.3     1  UNL1        0.0432
     23 H         -20.2279  -12.1342  -14.2941 H       1  UNL1        0.1236
     24 C         -21.9694   -9.1507  -10.5829 C.3     1  UNL1        0.0725
     25 C         -20.7313   -9.6170   -9.7990 C.3     1  UNL1        0.0188
     26 C         -19.8010   -8.4540   -9.4189 C.3     1  UNL1        0.0185
     27 C         -20.0681   -7.9497   -7.9854 C.3     1  UNL1        0.0686
     28 N         -18.8338   -7.4707   -7.3429 N.3     1  UNL1       -0.2985
     29 H         -18.0268   -7.6682   -7.9809 H       1  UNL1        0.1232
     30 C         -18.5822   -8.0961   -6.0296 C.3     1  UNL1        0.0568
     31 C         -18.2493   -9.6074   -6.1498 C.3     1  UNL1        0.0328
     32 C         -17.3311  -10.1028   -5.0149 C.3     1  UNL1        0.0699
     33 N         -17.5511   -9.3462   -3.7762 N.3     1  UNL1       -0.2974
     34 C         -17.1674   -7.9286   -3.9198 C.3     1  UNL1        0.0699
     35 C         -17.4397   -7.3510   -5.3270 C.3     1  UNL1        0.0328
     36 H         -18.5660   -9.4040   -3.5226 H       1  UNL1        0.1232
@<TRIPOS>BOND
     1    13    14   ar
     2    14    15   ar
     3    15    16   ar
     4    16    17   ar
     5    17    18   ar
     6    17    19    1
     7    19    20    1
     8    20    21    1
     9    21    12    1
    10    12     1    1
    11     1    24    1
    12    24    25    1
    13    25    26    1
    14    26    27    1
    15    27    28    1
    16    28    30    1
    17    30    31    1
    18    31    32    1
    19    32    33    1
    20    33    34    1
    21    34    35    1
    22     1     2    1
    23     2     3    1
    24     3     4    1
    25     4     5    1
    26     5     6    1
    27     6     7   ar
    28     7     8   ar
    29     8     9   ar
    30     9    10   ar
    31    10    11   ar
    32    21    22    1
    33    18    13   ar
    34    35    30    1
    35    11     2    1
    36    22    16    1
    37    11     6   ar
    38    20    23    1
    39    28    29    1
    40    33    36    1
@<TRIPOS>MOLECULE
*****
 36 40 0 0 0
SMALL
GASTEIGER

@<TRIPOS>ATOM
      1 N         -24.1873  -10.5498  -14.3796 N.3     1  UNL1       -0.2679
      2 C         -24.2166  -11.2222  -15.7193 C.3     1  UNL1        0.0978
      3 C         -23.2024  -10.6275  -16.7381 C.3     1  UNL1        0.0224
      4 C         -21.7085  -10.9502  -16.4374 C.3     1  UNL1        0.0065
      5 C         -21.4863  -11.9945  -15.3258 C.3     1  UNL1        0.0277
      6 C         -22.5344  -13.0679  -15.3886 C.ar    1  UNL1       -0.0073
      7 C         -22.2185  -14.4245  -15.2475 C.ar    1  UNL1       -0.0015
      8 C         -23.2282  -15.3836  -15.3492 C.ar    1  UNL1        0.0203
      9 C         -24.5418  -14.9736  -15.5915 C.ar    1  UNL1        0.0985
     10 N         -24.8328  -13.6506  -15.7105 N.ar    1  UNL1       -0.2471
     11 C         -23.8696  -12.6938  -15.5984 C.ar    1  UNL1        0.0695
     12 C         -24.6909   -9.1451  -14.4161 C.3     1  UNL1        0.0886
     13 C         -21.0893   -4.8386  -10.9915 C.ar    1  UNL1       -0.0003
     14 C         -22.4384   -4.5409  -10.7897 C.ar    1  UNL1       -0.0003
     15 C         -23.4259   -5.3158  -11.4031 C.ar    1  UNL1       -0.0045
     16 C         -23.0699   -6.3918  -12.2315 C.ar    1  UNL1       -0.0234
     17 C         -21.7074   -6.7099  -12.4121 C.ar    1  UNL1       -0.0103
     18 C         -20.7234   -5.9152  -11.8033 C.ar    1  UNL1       -0.0032
     19 C         -21.2958   -7.8252  -13.3399 C.3     1  UNL1        0.0953
     20 N         -22.3786   -8.7981  -13.5429 N.3     1  UNL1       -0.2934
     21 C         -23.6099   -8.1228  -13.9851 C.3     1  UNL1        0.0748
     22 C         -24.1488   -7.2523  -12.8347 C.3     1  UNL1        0.0432
     23 H         -22.0539   -9.4391  -14.3017 H       1  UNL1        0.1236
     24 C         -24.9334  -11.3407  -13.3540 C.3     1  UNL1        0.0725
     25 C         -24.1696  -11.3708  -12.0196 C.3     1  UNL1        0.0188
     26 C         -24.8625  -10.5446  -10.9244 C.3     1  UNL1        0.0185
     27 C         -23.8446   -9.8979   -9.9619 C.3     1  UNL1        0.0686
     28 N         -22.5786   -9.5865  -10.6446 N.3     1  UNL1       -0.2985
     29 H         -22.4486  -10.2641  -11.4327 H       1  UNL1        0.1232
     30 C         -21.4060   -9.6474   -9.7499 C.3     1  UNL1        0.0568
     31 C         -20.1117  -10.0602  -10.5008 C.3     1  UNL1        0.0328
     32 C         -18.8408   -9.4722   -9.8560 C.3     1  UNL1        0.0699
     33 N         -19.0015   -9.3048   -8.4065 N.3     1  UNL1       -0.2974
     34 C         -20.0350   -8.3042   -8.0776 C.3     1  UNL1        0.0699
     35 C         -21.2188   -8.2845   -9.0707 C.3     1  UNL1        0.0328
     36 H         -19.2708  -10.2274   -7.9892 H       1  UNL1        0.1232
@<TRIPOS>BOND
     1    13    14   ar
     2    14    15   ar
     3    15    16   ar
     4    16    17   ar
     5    17    18   ar
     6    17    19    1
     7    19    20    1
     8    20    21    1
     9    21    12    1
    10    12     1    1
    11     1    24    1
    12    24    25    1
    13    25    26    1
    14    26    27    1
    15    27    28    1
    16    28    30    1
    17    30    31    1
    18    31    32    1
    19    32    33    1
    20    33    34    1
    21    34    35    1
    22     1     2    1
    23     2     3    1
    24     3     4    1
    25     4     5    1
    26     5     6    1
    27     6     7   ar
    28     7     8   ar
    29     8     9   ar
    30     9    10   ar
    31    10    11   ar
    32    21    22    1
    33    18    13   ar
    34    35    30    1
    35    11     2    1
    36    22    16    1
    37    11     6   ar
    38    20    23    1
    39    28    29    1
    40    33    36    1
@<TRIPOS>MOLECULE
*****
 36 40 0 0 0
SMALL
GASTEIGER

@<TRIPOS>ATOM
      1 N         -22.8155   -9.0354  -11.6254 N.3     1  UNL1       -0.2679
      2 C         -21.3739   -8.6593  -11.7933 C.3     1  UNL1        0.0978
      3 C         -21.1654   -7.2653  -12.4515 C.3     1  UNL1        0.0224
      4 C         -21.5355   -6.0530  -11.5461 C.3     1  UNL1        0.0065
      5 C         -21.8211   -6.4117  -10.0746 C.3     1  UNL1        0.0277
      6 C         -20.9016   -7.5024   -9.6061 C.ar    1  UNL1       -0.0073
      7 C         -20.2724   -7.4584   -8.3561 C.ar    1  UNL1       -0.0015
      8 C         -19.3995   -8.4832   -7.9852 C.ar    1  UNL1        0.0203
      9 C         -19.1663   -9.5394   -8.8697 C.ar    1  UNL1        0.0985
     10 N         -19.7981   -9.5736  -10.0734 N.ar    1  UNL1       -0.2471
     11 C         -20.6674   -8.5956  -10.4526 C.ar    1  UNL1        0.0695
     12 C         -23.4708   -9.4373  -12.9050 C.3     1  UNL1        0.0886
     13 C         -23.7319  -15.3923  -15.6827 C.ar    1  UNL1       -0.0003
     14 C         -25.0298  -14.8817  -15.6162 C.ar    1  UNL1       -0.0003
     15 C         -25.2572  -13.6155  -15.0713 C.ar    1  UNL1       -0.0045
     16 C         -24.1861  -12.8524  -14.5803 C.ar    1  UNL1       -0.0234
     17 C         -22.8718  -13.3565  -14.6739 C.ar    1  UNL1       -0.0103
     18 C         -22.6567  -14.6362  -15.2091 C.ar    1  UNL1       -0.0032
     19 C         -21.7100  -12.5819  -14.1044 C.3     1  UNL1        0.0953
     20 N         -22.0108  -11.1480  -13.9875 N.3     1  UNL1       -0.2934
     21 C         -23.2549  -10.9366  -13.2290 C.3     1  UNL1        0.0748
     22 C         -24.4439  -11.4655  -14.0526 C.3     1  UNL1        0.0432
     23 H         -21.2156  -10.7274  -13.4558 H       1  UNL1        0.1236
     24 C         -22.9853  -10.1074  -10.5978 C.3     1  UNL1        0.0725
     25 C         -23.8309   -9.6069   -9.4149 C.3     1  UNL1        0.0188
     26 C         -25.3199   -9.9579   -9.5637 C.3     1  UNL1        0.0185
     27 C         -26.1761   -8.7116   -9.8706 C.3     1  UNL1        0.0686
     28 N         -25.4713   -7.7792  -10.7649 N.3     1  UNL1       -0.2985
     29 H         -24.9578   -7.0787  -10.1793 H       1  UNL1        0.1232
     30 C         -26.3740   -7.0710  -11.6938 C.3     1  UNL1        0.0568
     31 C         -25.6458   -5.9526  -12.4864 C.3     1  UNL1        0.0328
     32 C         -26.2755   -5.7035  -13.8714 C.3     1  UNL1        0.0699
     33 N         -27.7171   -5.9809  -13.8644 N.3     1  UNL1       -0.2974
     34 C         -28.0033   -7.4078  -13.6205 C.3     1  UNL1        0.0699
     35 C         -27.0037   -8.0859  -12.6567 C.3     1  UNL1        0.0328
     36 H         -28.1664   -5.4064  -13.1122 H       1  UNL1        0.1232
@<TRIPOS>BOND
     1    13    14   ar
     2    14    15   ar
     3    15    16   ar
     4    16    17   ar
     5    17    18   ar
     6    17    19    1
     7    19    20    1
     8    20    21    1
     9    21    12    1
    10    12     1    1
    11     1    24    1
    12    24    25    1
    13    25    26    1
    14    26    27    1
    15    27    28    1
    16    28    30    1
    17    30    31    1
    18    31    32    1
    19    32    33    1
    20    33    34    1
    21    34    35    1
    22     1     2    1
    23     2     3    1
    24     3     4    1
    25     4     5    1
    26     5     6    1
    27     6     7   ar
    28     7     8   ar
    29     8     9   ar
    30     9    10   ar
    31    10    11   ar
    32    21    22    1
    33    18    13   ar
    34    35    30    1
    35    11     2    1
    36    22    16    1
    37    11     6   ar
    38    20    23    1
    39    28    29    1
    40    33    36    1
@<TRIPOS>MOLECULE
*****
 36 40 0 0 0
SMALL
GASTEIGER

@<TRIPOS>ATOM
      1 N         -22.2042  -10.9214  -14.8831 N.3     1  UNL1       -0.2679
      2 C         -23.5528  -10.9133  -15.5380 C.3     1  UNL1        0.0978
      3 C         -23.4989  -10.6764  -17.0745 C.3     1  UNL1        0.0224
      4 C         -22.9347  -11.8705  -17.9005 C.3     1  UNL1        0.0065
      5 C         -22.7428  -13.1736  -17.1001 C.3     1  UNL1        0.0277
      6 C         -23.8494  -13.3506  -16.1008 C.ar    1  UNL1       -0.0073
      7 C         -24.4821  -14.5838  -15.9030 C.ar    1  UNL1       -0.0015
      8 C         -25.5296  -14.6839  -14.9851 C.ar    1  UNL1        0.0203
      9 C         -25.9316  -13.5487  -14.2766 C.ar    1  UNL1        0.0985
     10 N         -25.2954  -12.3626  -14.4702 N.ar    1  UNL1       -0.2471
     11 C         -24.2597  -12.2416  -15.3469 C.ar    1  UNL1        0.0695
     12 C         -21.5599   -9.5753  -14.8481 C.3     1  UNL1        0.0886
     13 C         -22.6074   -4.6309  -10.6409 C.ar    1  UNL1       -0.0003
     14 C         -21.2295   -4.8278  -10.7524 C.ar    1  UNL1       -0.0003
     15 C         -20.7303   -5.8223  -11.5973 C.ar    1  UNL1       -0.0045
     16 C         -21.6084   -6.6345  -12.3322 C.ar    1  UNL1       -0.0234
     17 C         -22.9991   -6.4163  -12.2411 C.ar    1  UNL1       -0.0103
     18 C         -23.4902   -5.4245  -11.3776 C.ar    1  UNL1       -0.0032
     19 C         -23.9663   -7.3096  -12.9765 C.3     1  UNL1        0.0953
     20 N         -23.3341   -7.9762  -14.1238 N.3     1  UNL1       -0.2934
     21 C         -22.1152   -8.6885  -13.7059 C.3     1  UNL1        0.0748
     22 C         -21.0498   -7.6601  -13.2831 C.3     1  UNL1        0.0432
     23 H         -24.0296   -8.6735  -14.4733 H       1  UNL1        0.1236
     24 C         -22.2677  -11.5009  -13.5068 C.3     1  UNL1        0.0725
     25 C         -21.3098  -12.6959  -13.3682 C.3     1  UNL1        0.0188
     26 C         -20.4653  -12.6296  -12.0857 C.3     1  UNL1        0.0185
     27 C         -20.9553  -11.5203  -11.1318 C.3     1  UNL1        0.0686
     28 N         -19.8598  -10.6157  -10.7478 N.3     1  UNL1       -0.2985
     29 H         -19.2245  -11.1224  -10.0868 H       1  UNL1        0.1232
     30 C         -20.3313   -9.3692  -10.1129 C.3     1  UNL1        0.0568
     31 C         -21.8561   -9.3944   -9.8238 C.3     1  UNL1        0.0328
     32 C         -22.2416   -8.5307   -8.6064 C.3     1  UNL1        0.0699
     33 N         -21.3355   -7.3863   -8.4505 N.3     1  UNL1       -0.2974
     34 C         -19.9584   -7.8118   -8.1340 C.3     1  UNL1        0.0699
     35 C         -19.5449   -9.1352   -8.8165 C.3     1  UNL1        0.0328
     36 H         -21.3295   -6.8380   -9.3433 H       1  UNL1        0.1232
@<TRIPOS>BOND
     1    13    14   ar
     2    14    15   ar
     3    15    16   ar
     4    16    17   ar
     5    17    18   ar
     6    17    19    1
     7    19    20    1
     8    20    21    1
     9    21    12    1
    10    12     1    1
    11     1    24    1
    12    24    25    1
    13    25    26    1
    14    26    27    1
    15    27    28    1
    16    28    30    1
    17    30    31    1
    18    31    32    1
    19    32    33    1
    20    33    34    1
    21    34    35    1
    22     1     2    1
    23     2     3    1
    24     3     4    1
    25     4     5    1
    26     5     6    1
    27     6     7   ar
    28     7     8   ar
    29     8     9   ar
    30     9    10   ar
    31    10    11   ar
    32    21    22    1
    33    18    13   ar
    34    35    30    1
    35    11     2    1
    36    22    16    1
    37    11     6   ar
    38    20    23    1
    39    28    29    1
    40    33    36    1
@<TRIPOS>MOLECULE
*****
 36 40 0 0 0
SMALL
GASTEIGER

@<TRIPOS>ATOM
      1 N         -24.3502   -8.5931  -12.9341 N.3     1  UNL1       -0.2679
      2 C         -24.2586   -8.0393  -11.5439 C.3     1  UNL1        0.0978
      3 C         -23.7846   -9.0788  -10.4882 C.3     1  UNL1        0.0224
      4 C         -22.2827   -9.4786  -10.5931 C.3     1  UNL1        0.0065
      5 C         -21.4526   -8.6148  -11.5627 C.3     1  UNL1        0.0277
      6 C         -21.8911   -7.1799  -11.5036 C.ar    1  UNL1       -0.0073
      7 C         -20.9735   -6.1229  -11.4717 C.ar    1  UNL1       -0.0015
      8 C         -21.4360   -4.8085  -11.3816 C.ar    1  UNL1        0.0203
      9 C         -22.8112   -4.5677  -11.3241 C.ar    1  UNL1        0.0985
     10 N         -23.6884   -5.6057  -11.3719 N.ar    1  UNL1       -0.2471
     11 C         -23.2641   -6.8960  -11.4769 C.ar    1  UNL1        0.0695
     12 C         -25.2836   -9.7528  -13.0443 C.3     1  UNL1        0.0886
     13 C         -23.0575  -15.3422  -15.6992 C.ar    1  UNL1       -0.0003
     14 C         -24.4374  -15.2786  -15.9028 C.ar    1  UNL1       -0.0003
     15 C         -25.1638  -14.1788  -15.4395 C.ar    1  UNL1       -0.0045
     16 C         -24.5147  -13.1358  -14.7602 C.ar    1  UNL1       -0.0234
     17 C         -23.1164  -13.1867  -14.5800 C.ar    1  UNL1       -0.0103
     18 C         -22.3989  -14.3037  -15.0360 C.ar    1  UNL1       -0.0032
     19 C         -22.4022  -12.1074  -13.8060 C.3     1  UNL1        0.0953
     20 N         -23.1674  -10.8528  -13.7800 N.3     1  UNL1       -0.2934
     21 C         -24.5355  -11.0869  -13.2890 C.3     1  UNL1        0.0748
     22 C         -25.3048  -11.9308  -14.3222 C.3     1  UNL1        0.0432
     23 H         -22.6707  -10.2242  -13.1089 H       1  UNL1        0.1236
     24 C         -24.7214   -7.5342  -13.9216 C.3     1  UNL1        0.0725
     25 C         -26.1917   -7.1161  -13.7535 C.3     1  UNL1        0.0188
     26 C         -26.3757   -5.5902  -13.7598 C.3     1  UNL1        0.0185
     27 C         -27.5264   -5.1541  -14.6905 C.3     1  UNL1        0.0686
     28 N         -27.0183   -4.5047  -15.9096 N.3     1  UNL1       -0.2985
     29 H         -26.1020   -4.0482  -15.6876 H       1  UNL1        0.1232
     30 C         -27.9454   -3.4966  -16.4603 C.3     1  UNL1        0.0568
     31 C         -27.7801   -3.3179  -17.9932 C.3     1  UNL1        0.0328
     32 C         -29.0886   -2.8828  -18.6825 C.3     1  UNL1        0.0699
     33 N         -29.9242   -2.0731  -17.7875 N.3     1  UNL1       -0.2974
     34 C         -30.4016   -2.8485  -16.6263 C.3     1  UNL1        0.0699
     35 C         -29.3866   -3.8985  -16.1209 C.3     1  UNL1        0.0328
     36 H         -29.3612   -1.2572  -17.4483 H       1  UNL1        0.1232
@<TRIPOS>BOND
     1    13    14   ar
     2    14    15   ar
     3    15    16   ar
     4    16    17   ar
     5    17    18   ar
     6    17    19    1
     7    19    20    1
     8    20    21    1
     9    21    12    1
    10    12     1    1
    11     1    24    1
    12    24    25    1
    13    25    26    1
    14    26    27    1
    15    27    28    1
    16    28    30    1
    17    30    31    1
    18    31    32    1
    19    32    33    1
    20    33    34    1
    21    34    35    1
    22     1     2    1
    23     2     3    1
    24     3     4    1
    25     4     5    1
    26     5     6    1
    27     6     7   ar
    28     7     8   ar
    29     8     9   ar
    30     9    10   ar
    31    10    11   ar
    32    21    22    1
    33    18    13   ar
    34    35    30    1
    35    11     2    1
    36    22    16    1
    37    11     6   ar
    38    20    23    1
    39    28    29    1
    40    33    36    1
@<TRIPOS>MOLECULE
*****
 36 40 0 0 0
SMALL
GASTEIGER

@<TRIPOS>ATOM
      1 N         -25.0707   -8.6672  -12.7595 N.3     1  UNL1       -0.2679
      2 C         -24.3257   -7.6739  -13.5998 C.3     1  UNL1        0.0978
      3 C         -25.2520   -6.7037  -14.3874 C.3     1  UNL1        0.0224
      4 C         -25.9847   -5.6443  -13.5115 C.3     1  UNL1        0.0065
      5 C         -25.5003   -5.5705  -12.0502 C.3     1  UNL1        0.0277
      6 C         -24.0150   -5.7764  -11.9724 C.ar    1  UNL1       -0.0073
      7 C         -23.1962   -4.9838  -11.1590 C.ar    1  UNL1       -0.0015
      8 C         -21.8162   -5.1963  -11.1513 C.ar    1  UNL1        0.0203
      9 C         -21.2720   -6.1990  -11.9581 C.ar    1  UNL1        0.0985
     10 N         -22.0841   -6.9695  -12.7302 N.ar    1  UNL1       -0.2471
     11 C         -23.4351   -6.7944  -12.7431 C.ar    1  UNL1        0.0695
     12 C         -25.6279   -9.8045  -13.5496 C.3     1  UNL1        0.0886
     13 C         -22.4872  -15.0477  -15.9764 C.ar    1  UNL1       -0.0003
     14 C         -23.7095  -15.4723  -15.4517 C.ar    1  UNL1       -0.0003
     15 C         -24.5839  -14.5470  -14.8762 C.ar    1  UNL1       -0.0045
     16 C         -24.2373  -13.1881  -14.8139 C.ar    1  UNL1       -0.0234
     17 C         -23.0151  -12.7553  -15.3698 C.ar    1  UNL1       -0.0103
     18 C         -22.1376  -13.6958  -15.9318 C.ar    1  UNL1       -0.0032
     19 C         -22.5936  -11.3110  -15.2673 C.3     1  UNL1        0.0953
     20 N         -23.7427  -10.4169  -15.0663 N.3     1  UNL1       -0.2934
     21 C         -24.5465  -10.8525  -13.9123 C.3     1  UNL1        0.0748
     22 C         -25.2188  -12.1976  -14.2449 C.3     1  UNL1        0.0432
     23 H         -23.3432   -9.4729  -14.8625 H       1  UNL1        0.1236
     24 C         -24.2243   -9.1806  -11.6396 C.3     1  UNL1        0.0725
     25 C         -25.0662   -9.4066  -10.3726 C.3     1  UNL1        0.0188
     26 C         -24.5955   -8.5451   -9.1900 C.3     1  UNL1        0.0185
     27 C         -23.2017   -8.9738   -8.6857 C.3     1  UNL1        0.0686
     28 N         -22.2590   -7.8437   -8.6784 N.3     1  UNL1       -0.2985
     29 H         -22.6005   -7.1197   -9.3541 H       1  UNL1        0.1232
     30 C         -20.8812   -8.2342   -9.0364 C.3     1  UNL1        0.0568
     31 C         -19.9696   -8.3908   -7.7899 C.3     1  UNL1        0.0328
     32 C         -18.8437   -9.4214   -8.0064 C.3     1  UNL1        0.0699
     33 N         -18.4274   -9.4754   -9.4131 N.3     1  UNL1       -0.2974
     34 C         -19.5060   -9.9721  -10.2892 C.3     1  UNL1        0.0699
     35 C         -20.9201   -9.5416   -9.8383 C.3     1  UNL1        0.0328
     36 H         -18.1514   -8.5123   -9.7194 H       1  UNL1        0.1232
@<TRIPOS>BOND
     1    13    14   ar
     2    14    15   ar
     3    15    16   ar
     4    16    17   ar
     5    17    18   ar
     6    17    19    1
     7    19    20    1
     8    20    21    1
     9    21    12    1
    10    12     1    1
    11     1    24    1
    12    24    25    1
    13    25    26    1
    14    26    27    1
    15    27    28    1
    16    28    30    1
    17    30    31    1
    18    31    32    1
    19    32    33    1
    20    33    34    1
    21    34    35    1
    22     1     2    1
    23     2     3    1
    24     3     4    1
    25     4     5    1
    26     5     6    1
    27     6     7   ar
    28     7     8   ar
    29     8     9   ar
    30     9    10   ar
    31    10    11   ar
    32    21    22    1
    33    18    13   ar
    34    35    30    1
    35    11     2    1
    36    22    16    1
    37    11     6   ar
    38    20    23    1
    39    28    29    1
    40    33    36    1
@<TRIPOS>MOLECULE
*****
 36 40 0 0 0
SMALL
GASTEIGER

@<TRIPOS>ATOM
      1 N         -21.9490   -9.6212  -11.0986 N.3     1  UNL1       -0.2679
      2 C         -20.9090   -8.5874  -11.4106 C.3     1  UNL1        0.0978
      3 C         -20.4908   -8.5554  -12.9086 C.3     1  UNL1        0.0224
      4 C         -21.5696   -7.9842  -13.8762 C.3     1  UNL1        0.0065
      5 C         -22.7769   -7.3270  -13.1791 C.3     1  UNL1        0.0277
      6 C         -22.3403   -6.5856  -11.9485 C.ar    1  UNL1       -0.0073
      7 C         -22.8277   -5.3106  -11.6366 C.ar    1  UNL1       -0.0015
      8 C         -22.3612   -4.6519  -10.4972 C.ar    1  UNL1        0.0203
      9 C         -21.4122   -5.2767   -9.6839 C.ar    1  UNL1        0.0985
     10 N         -20.9614   -6.5217   -9.9939 N.ar    1  UNL1       -0.2471
     11 C         -21.4128   -7.1931  -11.0899 C.ar    1  UNL1        0.0695
     12 C         -21.5940  -10.9817  -11.5998 C.3     1  UNL1        0.0886
     13 C         -24.9849  -14.7759  -15.7653 C.ar    1  UNL1       -0.0003
     14 C         -23.6339  -15.1144  -15.8639 C.ar    1  UNL1       -0.0003
     15 C         -22.6878  -14.4579  -15.0726 C.ar    1  UNL1       -0.0045
     16 C         -23.0865  -13.4499  -14.1807 C.ar    1  UNL1       -0.0234
     17 C         -24.4548  -13.1282  -14.0605 C.ar    1  UNL1       -0.0103
     18 C         -25.3948  -13.7834  -14.8714 C.ar    1  UNL1       -0.0032
     19 C         -24.9043  -12.0123  -13.1512 C.3     1  UNL1        0.0953
     20 N         -23.9213  -11.7361  -12.0940 N.3     1  UNL1       -0.2934
     21 C         -22.5896  -11.4904  -12.6719 C.3     1  UNL1        0.0748
     22 C         -22.0604  -12.7965  -13.2929 C.3     1  UNL1        0.0432
     23 H         -24.2473  -10.8663  -11.6152 H       1  UNL1        0.1236
     24 C         -22.2496   -9.6708   -9.6353 C.3     1  UNL1        0.0725
     25 C         -23.5014   -8.8419   -9.3023 C.3     1  UNL1        0.0188
     26 C         -24.8021   -9.6425   -9.4741 C.3     1  UNL1        0.0185
     27 C         -25.9475   -8.7668  -10.0236 C.3     1  UNL1        0.0686
     28 N         -25.4543   -7.7847  -11.0024 N.3     1  UNL1       -0.2985
     29 H         -24.9480   -7.0256  -10.4878 H       1  UNL1        0.1232
     30 C         -26.5297   -7.1878  -11.8187 C.3     1  UNL1        0.0568
     31 C         -26.1867   -5.7473  -12.2843 C.3     1  UNL1        0.0328
     32 C         -26.8566   -5.3837  -13.6243 C.3     1  UNL1        0.0699
     33 N         -28.1378   -6.0807  -13.7915 N.3     1  UNL1       -0.2974
     34 C         -27.9618   -7.5423  -13.8933 C.3     1  UNL1        0.0699
     35 C         -26.8039   -8.0901  -13.0288 C.3     1  UNL1        0.0328
     36 H         -28.7484   -5.8642  -12.9681 H       1  UNL1        0.1232
@<TRIPOS>BOND
     1    13    14   ar
     2    14    15   ar
     3    15    16   ar
     4    16    17   ar
     5    17    18   ar
     6    17    19    1
     7    19    20    1
     8    20    21    1
     9    21    12    1
    10    12     1    1
    11     1    24    1
    12    24    25    1
    13    25    26    1
    14    26    27    1
    15    27    28    1
    16    28    30    1
    17    30    31    1
    18    31    32    1
    19    32    33    1
    20    33    34    1
    21    34    35    1
    22     1     2    1
    23     2     3    1
    24     3     4    1
    25     4     5    1
    26     5     6    1
    27     6     7   ar
    28     7     8   ar
    29     8     9   ar
    30     9    10   ar
    31    10    11   ar
    32    21    22    1
    33    18    13   ar
    34    35    30    1
    35    11     2    1
    36    22    16    1
    37    11     6   ar
    38    20    23    1
    39    28    29    1
    40    33    36    1
@<TRIPOS>MOLECULE
*****
 36 40 0 0 0
SMALL
GASTEIGER

@<TRIPOS>ATOM
      1 N         -22.5186   -7.4156  -11.4885 N.3     1  UNL1       -0.2679
      2 C         -21.9831   -7.7645  -10.1323 C.3     1  UNL1        0.0978
      3 C         -23.0851   -8.1687   -9.1114 C.3     1  UNL1        0.0224
      4 C         -23.7453   -9.5544   -9.3767 C.3     1  UNL1        0.0065
      5 C         -23.0470  -10.4044  -10.4563 C.3     1  UNL1        0.0277
      6 C         -21.5569  -10.2344  -10.3841 C.ar    1  UNL1       -0.0073
      7 C         -20.6791  -11.3207  -10.4839 C.ar    1  UNL1       -0.0015
      8 C         -19.3031  -11.1097  -10.3751 C.ar    1  UNL1        0.0203
      9 C         -18.8220   -9.8144  -10.1673 C.ar    1  UNL1        0.0985
     10 N         -19.6884   -8.7692  -10.0883 N.ar    1  UNL1       -0.2471
     11 C         -21.0339   -8.9452  -10.2082 C.ar    1  UNL1        0.0695
     12 C         -23.3481   -6.1745  -11.4912 C.3     1  UNL1        0.0886
     13 C         -29.1397   -6.6577  -14.5683 C.ar    1  UNL1       -0.0003
     14 C         -28.6038   -5.3966  -14.8369 C.ar    1  UNL1       -0.0003
     15 C         -27.3634   -5.0350  -14.3054 C.ar    1  UNL1       -0.0045
     16 C         -26.6521   -5.9316  -13.4924 C.ar    1  UNL1       -0.0234
     17 C         -27.1805   -7.2160  -13.2448 C.ar    1  UNL1       -0.0103
     18 C         -28.4346   -7.5630  -13.7714 C.ar    1  UNL1       -0.0032
     19 C         -26.4640   -8.1779  -12.3307 C.3     1  UNL1        0.0953
     20 N         -25.0318   -7.8666  -12.2203 N.3     1  UNL1       -0.2934
     21 C         -24.8326   -6.4616  -11.8277 C.3     1  UNL1        0.0748
     22 C         -25.2897   -5.5465  -12.9788 C.3     1  UNL1        0.0432
     23 H         -24.6583   -8.4845  -11.4648 H       1  UNL1        0.1236
     24 C         -21.4222   -7.3075  -12.4986 C.3     1  UNL1        0.0725
     25 C         -21.5437   -8.4109  -13.5628 C.3     1  UNL1        0.0188
     26 C         -22.4390   -7.9976  -14.7417 C.3     1  UNL1        0.0185
     27 C         -23.3630   -9.1482  -15.1925 C.3     1  UNL1        0.0686
     28 N         -23.9707   -9.8350  -14.0415 N.3     1  UNL1       -0.2985
     29 H         -23.2125  -10.0853  -13.3634 H       1  UNL1        0.1232
     30 C         -24.7112  -11.0553  -14.4180 C.3     1  UNL1        0.0568
     31 C         -24.2938  -11.5919  -15.8133 C.3     1  UNL1        0.0328
     32 C         -24.4580  -13.1201  -15.9326 C.3     1  UNL1        0.0699
     33 N         -25.5603  -13.6094  -15.0956 N.3     1  UNL1       -0.2974
     34 C         -25.2901  -13.4149  -13.6580 C.3     1  UNL1        0.0699
     35 C         -24.4922  -12.1292  -13.3444 C.3     1  UNL1        0.0328
     36 H         -26.4341  -13.0925  -15.3544 H       1  UNL1        0.1232
@<TRIPOS>BOND
     1    13    14   ar
     2    14    15   ar
     3    15    16   ar
     4    16    17   ar
     5    17    18   ar
     6    17    19    1
     7    19    20    1
     8    20    21    1
     9    21    12    1
    10    12     1    1
    11     1    24    1
    12    24    25    1
    13    25    26    1
    14    26    27    1
    15    27    28    1
    16    28    30    1
    17    30    31    1
    18    31    32    1
    19    32    33    1
    20    33    34    1
    21    34    35    1
    22     1     2    1
    23     2     3    1
    24     3     4    1
    25     4     5    1
    26     5     6    1
    27     6     7   ar
    28     7     8   ar
    29     8     9   ar
    30     9    10   ar
    31    10    11   ar
    32    21    22    1
    33    18    13   ar
    34    35    30    1
    35    11     2    1
    36    22    16    1
    37    11     6   ar
    38    20    23    1
    39    28    29    1
    40    33    36    1
