@<TRIPOS>MOLECULE
*****
 51 56 0 0 0
SMALL
GASTEIGER

@<TRIPOS>ATOM
      1 C          58.8229   83.8096    9.8821 C.2     1  UNL1        0.2483
      2 O          59.3337   82.7346    9.4640 O.2     1  UNL1       -0.2701
      3 N          58.0789   83.8109   11.1139 N.am    1  UNL1       -0.2945
      4 H          57.2956   84.4947   11.2148 H       1  UNL1        0.1501
      5 C          59.8938   87.3185    8.8017 C.ar    1  UNL1        0.0187
      6 C          59.4391   87.3193    7.4646 C.ar    1  UNL1        0.0460
      7 C          58.7735   86.2014    6.9550 C.ar    1  UNL1        0.0145
      8 C          58.5606   85.0795    7.7527 C.ar    1  UNL1        0.0080
      9 C          59.0032   85.0515    9.0855 C.ar    1  UNL1        0.0805
     10 C          59.6737   86.1808    9.6045 C.ar    1  UNL1        0.1416
     11 F          60.1701   86.1665   10.8685 F       1  UNL1       -0.2043
     12 N          59.6572   88.4465    6.6067 N.pl3   1  UNL1       -0.3043
     13 C          61.0233   88.7604    6.1729 C.3     1  UNL1        0.1123
     14 C          61.0921   90.1064    5.4385 C.3     1  UNL1        0.1136
     15 N          59.9739   90.2461    4.4899 N.pl3   1  UNL1       -0.2897
     16 C          58.6184   89.8154    4.8695 C.3     1  UNL1        0.1136
     17 C          58.5564   89.3696    6.3311 C.3     1  UNL1        0.1123
     18 C          60.1571   90.8857    3.2096 C.ar    1  UNL1        0.1318
     19 C          61.4171   90.9382    2.5900 C.ar    1  UNL1        0.0343
     20 C          61.5532   91.5769    1.3566 C.ar    1  UNL1        0.0083
     21 C          60.4376   92.1533    0.7314 C.ar    1  UNL1        0.0906
     22 C          59.2050   92.1142    1.4010 C.ar    1  UNL1        0.1041
     23 N          59.0966   91.4877    2.6023 N.ar    1  UNL1       -0.2292
     24 C          60.5818   92.8902   -0.5755 C.3     1  UNL1        0.4200
     25 F          59.4075   93.5661   -0.8492 F       1  UNL1       -0.1658
     26 F          60.8448   92.0062   -1.6077 F       1  UNL1       -0.1658
     27 F          61.6220   93.8010   -0.5097 F       1  UNL1       -0.1658
     28 C          62.1259   88.1083    9.6242 C.3     1  UNL1        0.0051
     29 C          60.6700   88.4875    9.3689 C.3     1  UNL1        0.0299
     30 C          58.3136   82.8866   12.2362 C.3     1  UNL1        0.1535
     31 C          59.7171   82.3190   12.2297 C.2     1  UNL1        0.2443
     32 O          59.9040   81.1061   12.5221 O.2     1  UNL1       -0.2730
     33 N          60.8467   83.1877   12.0482 N.am    1  UNL1       -0.2825
     34 H          60.7234   84.2028   12.2626 H       1  UNL1        0.1549
     35 C          62.1608   82.7272   11.6879 C.ar    1  UNL1        0.0535
     36 C          62.5977   82.7205   10.3516 C.ar    1  UNL1        0.0353
     37 C          63.8930   82.2912   10.0525 C.ar    1  UNL1        0.1002
     38 N          64.7281   81.8947   11.0489 N.ar    1  UNL1       -0.2422
     39 C          64.3385   81.9065   12.3509 C.ar    1  UNL1        0.1002
     40 C          63.0523   82.3301   12.6940 C.ar    1  UNL1        0.0353
     41 C          57.8860   83.5092   13.5906 C.3     1  UNL1        0.0569
     42 C          58.3907   84.9081   13.8269 C.ar    1  UNL1       -0.0017
     43 C          57.7605   86.0944   13.4586 C.ar    1  UNL1        0.0681
     44 N          58.4731   87.1618   13.8841 N.ar    1  UNL1       -0.3523
     45 C          59.5520   86.6634   14.5111 C.ar    1  UNL1        0.0563
     46 C          60.5683   87.3811   15.1406 C.ar    1  UNL1        0.0170
     47 C          61.6033   86.6542   15.7561 C.ar    1  UNL1        0.0015
     48 C          61.6045   85.2428   15.7213 C.ar    1  UNL1        0.0001
     49 C          60.5688   84.5455   15.0740 C.ar    1  UNL1        0.0012
     50 C          59.5460   85.2921   14.4861 C.ar    1  UNL1        0.0131
     51 H          58.2268   88.1684   13.7556 H       1  UNL1        0.1660
@<TRIPOS>BOND
     1    28    29    1
     2    29     5    1
     3     5     6   ar
     4     6    12    1
     5    12    13    1
     6    13    14    1
     7    14    15    1
     8    15    18    1
     9    18    19   ar
    10    19    20   ar
    11    20    21   ar
    12    21    24    1
    13    24    25    1
    14    24    26    1
    15    24    27    1
    16    21    22   ar
    17    22    23   ar
    18    15    16    1
    19    16    17    1
    20     6     7   ar
    21     7     8   ar
    22     8     9   ar
    23     9     1    1
    24     1     2    2
    25     1     3   am
    26     3    30    1
    27    30    41    1
    28    41    42    1
    29    42    43   ar
    30    43    44   ar
    31    44    45   ar
    32    45    46   ar
    33    46    47   ar
    34    47    48   ar
    35    48    49   ar
    36    49    50   ar
    37    30    31    1
    38    31    32    2
    39    31    33   am
    40    33    35    1
    41    35    36   ar
    42    36    37   ar
    43    37    38   ar
    44    38    39   ar
    45    39    40   ar
    46     9    10   ar
    47    10    11    1
    48    10     5   ar
    49    17    12    1
    50    50    42   ar
    51    40    35   ar
    52    23    18   ar
    53    50    45   ar
    54     3     4    1
    55    44    51    1
    56    33    34    1
@<TRIPOS>MOLECULE
*****
 51 56 0 0 0
SMALL
GASTEIGER

@<TRIPOS>ATOM
      1 C          62.9788   82.5510   11.2858 C.2     1  UNL1        0.2483
      2 O          64.2391   82.4994   11.2776 O.2     1  UNL1       -0.2701
      3 N          62.2343   81.6130   12.0839 N.am    1  UNL1       -0.2945
      4 H          61.2864   81.3272   11.7508 H       1  UNL1        0.1501
      5 C          60.5084   85.2297   10.1247 C.ar    1  UNL1        0.0187
      6 C          61.1301   85.6418    8.9255 C.ar    1  UNL1        0.0460
      7 C          62.3126   85.0261    8.5071 C.ar    1  UNL1        0.0145
      8 C          62.8904   84.0122    9.2676 C.ar    1  UNL1        0.0080
      9 C          62.2938   83.5836   10.4649 C.ar    1  UNL1        0.0805
     10 C          61.0971   84.2019   10.8891 C.ar    1  UNL1        0.1416
     11 F          60.5252   83.8569   12.0716 F       1  UNL1       -0.2043
     12 N          60.5772   86.6953    8.1262 N.pl3   1  UNL1       -0.3043
     13 C          60.9169   88.0868    8.4443 C.3     1  UNL1        0.1123
     14 C          60.0789   89.0786    7.6256 C.3     1  UNL1        0.1136
     15 N          59.9851   88.6525    6.2187 N.pl3   1  UNL1       -0.2897
     16 C          59.7709   87.2351    5.8837 C.3     1  UNL1        0.1136
     17 C          59.5456   86.3869    7.1360 C.3     1  UNL1        0.1123
     18 C          60.0097   89.6152    5.1444 C.ar    1  UNL1        0.1318
     19 C          58.8641   90.3476    4.7900 C.ar    1  UNL1        0.0343
     20 C          58.9278   91.2608    3.7366 C.ar    1  UNL1        0.0083
     21 C          60.1305   91.4569    3.0419 C.ar    1  UNL1        0.0906
     22 C          61.2411   90.6776    3.4004 C.ar    1  UNL1        0.1041
     23 N          61.1552   89.7934    4.4290 N.ar    1  UNL1       -0.2292
     24 C          60.1981   92.4022    1.8698 C.3     1  UNL1        0.4200
     25 F          61.3730   92.1832    1.1753 F       1  UNL1       -0.1658
     26 F          60.1671   93.7172    2.3010 F       1  UNL1       -0.1658
     27 F          59.1260   92.2004    1.0179 F       1  UNL1       -0.1658
     28 C          59.5252   86.6144   11.9682 C.3     1  UNL1        0.0051
     29 C          59.2600   85.9140   10.6386 C.3     1  UNL1        0.0299
     30 C          62.7279   80.9894   13.3234 C.3     1  UNL1        0.1535
     31 C          62.9784   82.0052   14.4178 C.2     1  UNL1        0.2443
     32 O          63.7862   81.7369   15.3490 O.2     1  UNL1       -0.2730
     33 N          62.1869   83.2020   14.4874 N.am    1  UNL1       -0.2825
     34 H          61.2543   83.2005   14.0163 H       1  UNL1        0.1549
     35 C          62.5570   84.3630   15.2513 C.ar    1  UNL1        0.0535
     36 C          63.7489   85.0634   14.9953 C.ar    1  UNL1        0.0353
     37 C          64.0529   86.2028   15.7442 C.ar    1  UNL1        0.1002
     38 N          63.1953   86.6372   16.7050 N.ar    1  UNL1       -0.2422
     39 C          62.0284   85.9899   16.9629 C.ar    1  UNL1        0.1002
     40 C          61.6851   84.8474   16.2360 C.ar    1  UNL1        0.0353
     41 C          61.8401   79.7941   13.7567 C.3     1  UNL1        0.0569
     42 C          60.9599   79.2377   12.6689 C.ar    1  UNL1       -0.0017
     43 C          61.0263   77.9616   12.1148 C.ar    1  UNL1        0.0681
     44 N          60.0424   77.7884   11.2037 N.ar    1  UNL1       -0.3523
     45 C          59.3586   78.9447   11.1696 C.ar    1  UNL1        0.0563
     46 C          58.2363   79.2385   10.3962 C.ar    1  UNL1        0.0170
     47 C          57.6612   80.5151   10.5293 C.ar    1  UNL1        0.0015
     48 C          58.2193   81.4619   11.4155 C.ar    1  UNL1        0.0001
     49 C          59.3553   81.1394   12.1794 C.ar    1  UNL1        0.0012
     50 C          59.8953   79.8596   12.0393 C.ar    1  UNL1        0.0131
     51 H          59.8517   76.9258   10.6469 H       1  UNL1        0.1660
@<TRIPOS>BOND
     1    28    29    1
     2    29     5    1
     3     5     6   ar
     4     6    12    1
     5    12    13    1
     6    13    14    1
     7    14    15    1
     8    15    18    1
     9    18    19   ar
    10    19    20   ar
    11    20    21   ar
    12    21    24    1
    13    24    25    1
    14    24    26    1
    15    24    27    1
    16    21    22   ar
    17    22    23   ar
    18    15    16    1
    19    16    17    1
    20     6     7   ar
    21     7     8   ar
    22     8     9   ar
    23     9     1    1
    24     1     2    2
    25     1     3   am
    26     3    30    1
    27    30    41    1
    28    41    42    1
    29    42    43   ar
    30    43    44   ar
    31    44    45   ar
    32    45    46   ar
    33    46    47   ar
    34    47    48   ar
    35    48    49   ar
    36    49    50   ar
    37    30    31    1
    38    31    32    2
    39    31    33   am
    40    33    35    1
    41    35    36   ar
    42    36    37   ar
    43    37    38   ar
    44    38    39   ar
    45    39    40   ar
    46     9    10   ar
    47    10    11    1
    48    10     5   ar
    49    17    12    1
    50    50    42   ar
    51    40    35   ar
    52    23    18   ar
    53    50    45   ar
    54     3     4    1
    55    44    51    1
    56    33    34    1
@<TRIPOS>MOLECULE
*****
 51 56 0 0 0
SMALL
GASTEIGER

@<TRIPOS>ATOM
      1 C          59.5844   84.5428   10.3647 C.2     1  UNL1        0.2483
      2 O          59.5341   83.3687    9.9065 O.2     1  UNL1       -0.2701
      3 N          59.6007   84.7497   11.7888 N.am    1  UNL1       -0.2945
      4 H          59.1700   85.6245   12.1638 H       1  UNL1        0.1501
      5 C          60.4116   87.9134    8.7580 C.ar    1  UNL1        0.0187
      6 C          59.7789   87.7564    7.5052 C.ar    1  UNL1        0.0460
      7 C          59.0776   86.5815    7.2218 C.ar    1  UNL1        0.0145
      8 C          59.0030   85.5571    8.1627 C.ar    1  UNL1        0.0080
      9 C          59.6238   85.6864    9.4160 C.ar    1  UNL1        0.0805
     10 C          60.3310   86.8737    9.7066 C.ar    1  UNL1        0.1416
     11 F          60.9954   87.0092   10.8834 F       1  UNL1       -0.2043
     12 N          59.8502   88.7793    6.5038 N.pl3   1  UNL1       -0.3043
     13 C          61.1519   89.1122    5.9142 C.3     1  UNL1        0.1123
     14 C          61.0707   90.3589    5.0225 C.3     1  UNL1        0.1136
     15 N          59.8707   90.3183    4.1691 N.pl3   1  UNL1       -0.2897
     16 C          58.5828   89.8636    4.7182 C.3     1  UNL1        0.1136
     17 C          58.6719   89.5991    6.2217 C.3     1  UNL1        0.1123
     18 C          59.9044   90.8040    2.8109 C.ar    1  UNL1        0.1318
     19 C          61.0765   90.7409    2.0387 C.ar    1  UNL1        0.0343
     20 C          61.0693   91.2326    0.7325 C.ar    1  UNL1        0.0083
     21 C          59.8966   91.7761    0.1876 C.ar    1  UNL1        0.0906
     22 C          58.7583   91.8571    1.0042 C.ar    1  UNL1        0.1041
     23 N          58.7892   91.3729    2.2738 N.ar    1  UNL1       -0.2292
     24 C          59.8904   92.3569   -1.2033 C.3     1  UNL1        0.4200
     25 F          61.1475   92.2168   -1.7609 F       1  UNL1       -0.1658
     26 F          59.5587   93.7004   -1.1697 F       1  UNL1       -0.1658
     27 F          58.9675   91.7027   -2.0009 F       1  UNL1       -0.1658
     28 C          62.5552   88.7723    9.7328 C.3     1  UNL1        0.0051
     29 C          61.2290   89.1466    9.0770 C.3     1  UNL1        0.0299
     30 C          60.1464   83.7953   12.7686 C.3     1  UNL1        0.1535
     31 C          60.0301   82.3604   12.2998 C.2     1  UNL1        0.2443
     32 O          61.0481   81.7614   11.8565 O.2     1  UNL1       -0.2730
     33 N          58.7413   81.7323   12.2094 N.am    1  UNL1       -0.2825
     34 H          57.9005   82.3480   12.1346 H       1  UNL1        0.1549
     35 C          58.5490   80.3102   12.1130 C.ar    1  UNL1        0.0535
     36 C          58.0911   79.7080   10.9280 C.ar    1  UNL1        0.0353
     37 C          57.9466   78.3196   10.8721 C.ar    1  UNL1        0.1002
     38 N          58.2588   77.5566   11.9527 N.ar    1  UNL1       -0.2422
     39 C          58.7193   78.1098   13.1055 C.ar    1  UNL1        0.1002
     40 C          58.8801   79.4941   13.2034 C.ar    1  UNL1        0.0353
     41 C          61.5704   84.1995   13.2308 C.3     1  UNL1        0.0569
     42 C          61.6062   85.2058   14.3504 C.ar    1  UNL1       -0.0017
     43 C          61.0912   85.0423   15.6342 C.ar    1  UNL1        0.0681
     44 N          61.3558   86.1294   16.3934 N.ar    1  UNL1       -0.3523
     45 C          62.0262   86.9829   15.6009 C.ar    1  UNL1        0.0563
     46 C          62.5352   88.2336   15.9481 C.ar    1  UNL1        0.0170
     47 C          63.2258   88.9601   14.9614 C.ar    1  UNL1        0.0015
     48 C          63.3827   88.4305   13.6620 C.ar    1  UNL1        0.0001
     49 C          62.8537   87.1682   13.3388 C.ar    1  UNL1        0.0012
     50 C          62.1875   86.4622   14.3422 C.ar    1  UNL1        0.0131
     51 H          61.0962   86.2698   17.3950 H       1  UNL1        0.1660
@<TRIPOS>BOND
     1    28    29    1
     2    29     5    1
     3     5     6   ar
     4     6    12    1
     5    12    13    1
     6    13    14    1
     7    14    15    1
     8    15    18    1
     9    18    19   ar
    10    19    20   ar
    11    20    21   ar
    12    21    24    1
    13    24    25    1
    14    24    26    1
    15    24    27    1
    16    21    22   ar
    17    22    23   ar
    18    15    16    1
    19    16    17    1
    20     6     7   ar
    21     7     8   ar
    22     8     9   ar
    23     9     1    1
    24     1     2    2
    25     1     3   am
    26     3    30    1
    27    30    41    1
    28    41    42    1
    29    42    43   ar
    30    43    44   ar
    31    44    45   ar
    32    45    46   ar
    33    46    47   ar
    34    47    48   ar
    35    48    49   ar
    36    49    50   ar
    37    30    31    1
    38    31    32    2
    39    31    33   am
    40    33    35    1
    41    35    36   ar
    42    36    37   ar
    43    37    38   ar
    44    38    39   ar
    45    39    40   ar
    46     9    10   ar
    47    10    11    1
    48    10     5   ar
    49    17    12    1
    50    50    42   ar
    51    40    35   ar
    52    23    18   ar
    53    50    45   ar
    54     3     4    1
    55    44    51    1
    56    33    34    1
@<TRIPOS>MOLECULE
*****
 51 56 0 0 0
SMALL
GASTEIGER

@<TRIPOS>ATOM
      1 C          62.8720   82.5918   11.6131 C.2     1  UNL1        0.2483
      2 O          64.1140   82.5138   11.8192 O.2     1  UNL1       -0.2701
      3 N          61.9835   81.6691   12.2691 N.am    1  UNL1       -0.2945
      4 H          61.1004   81.4034   11.7783 H       1  UNL1        0.1501
      5 C          61.4905   84.3541    8.5128 C.ar    1  UNL1        0.0187
      6 C          61.2459   85.6400    9.0429 C.ar    1  UNL1        0.0460
      7 C          61.5597   85.9144   10.3765 C.ar    1  UNL1        0.0145
      8 C          62.1055   84.9267   11.1932 C.ar    1  UNL1        0.0080
      9 C          62.3580   83.6390   10.6920 C.ar    1  UNL1        0.0805
     10 C          62.0447   83.3593    9.3437 C.ar    1  UNL1        0.1416
     11 F          62.2172   82.1093    8.8416 F       1  UNL1       -0.2043
     12 N          60.6667   86.6765    8.2400 N.pl3   1  UNL1       -0.3043
     13 C          60.9984   88.0756    8.5317 C.3     1  UNL1        0.1123
     14 C          60.1345   89.0473    7.7159 C.3     1  UNL1        0.1136
     15 N          60.0174   88.6003    6.3173 N.pl3   1  UNL1       -0.2897
     16 C          59.8110   87.1762    6.0065 C.3     1  UNL1        0.1136
     17 C          59.6190   86.3438    7.2749 C.3     1  UNL1        0.1123
     18 C          60.0110   89.5478    5.2292 C.ar    1  UNL1        0.1318
     19 C          58.8532   90.2687    4.8918 C.ar    1  UNL1        0.0343
     20 C          58.8867   91.1672    3.8243 C.ar    1  UNL1        0.0083
     21 C          60.0716   91.3600    3.0988 C.ar    1  UNL1        0.0906
     22 C          61.1948   90.5921    3.4418 C.ar    1  UNL1        0.1041
     23 N          61.1384   89.7221    4.4845 N.ar    1  UNL1       -0.2292
     24 C          60.1061   92.2890    1.9122 C.3     1  UNL1        0.4200
     25 F          60.0958   93.5975    2.3578 F       1  UNL1       -0.1658
     26 F          59.0065   92.0810    1.0975 F       1  UNL1       -0.1658
     27 F          61.2486   92.0773    1.1601 F       1  UNL1       -0.1658
     28 C          60.2173   82.7661    7.0498 C.3     1  UNL1        0.0051
     29 C          61.1085   84.0042    7.0906 C.3     1  UNL1        0.0299
     30 C          62.2461   81.0345   13.5718 C.3     1  UNL1        0.1535
     31 C          62.4851   82.0505   14.6685 C.2     1  UNL1        0.2443
     32 O          63.0683   81.7004   15.7310 O.2     1  UNL1       -0.2730
     33 N          61.9139   83.3651   14.5722 N.am    1  UNL1       -0.2825
     34 H          61.0864   83.4950   13.9477 H       1  UNL1        0.1549
     35 C          62.3491   84.4865   15.3606 C.ar    1  UNL1        0.0535
     36 C          63.5262   85.1906   15.0522 C.ar    1  UNL1        0.0353
     37 C          63.8942   86.2916   15.8294 C.ar    1  UNL1        0.1002
     38 N          63.1120   86.6856   16.8687 N.ar    1  UNL1       -0.2422
     39 C          61.9604   86.0343   17.1797 C.ar    1  UNL1        0.1002
     40 C          61.5547   84.9295   16.4271 C.ar    1  UNL1        0.0353
     41 C          61.1745   79.9677   13.9161 C.3     1  UNL1        0.0569
     42 C          60.4182   79.4305   12.7301 C.ar    1  UNL1       -0.0017
     43 C          60.4023   78.1126   12.2796 C.ar    1  UNL1        0.0681
     44 N          59.5671   77.9821   11.2243 N.ar    1  UNL1       -0.3523
     45 C          59.0600   79.2057   10.9972 C.ar    1  UNL1        0.0563
     46 C          58.1299   79.5658   10.0229 C.ar    1  UNL1        0.0170
     47 C          57.7177   80.9096    9.9712 C.ar    1  UNL1        0.0015
     48 C          58.2451   81.8546   10.8780 C.ar    1  UNL1        0.0001
     49 C          59.1864   81.4636   11.8470 C.ar    1  UNL1        0.0012
     50 C          59.5648   80.1203   11.8860 C.ar    1  UNL1        0.0131
     51 H          59.3560   77.1042   10.6997 H       1  UNL1        0.1660
@<TRIPOS>BOND
     1    28    29    1
     2    29     5    1
     3     5     6   ar
     4     6    12    1
     5    12    13    1
     6    13    14    1
     7    14    15    1
     8    15    18    1
     9    18    19   ar
    10    19    20   ar
    11    20    21   ar
    12    21    24    1
    13    24    25    1
    14    24    26    1
    15    24    27    1
    16    21    22   ar
    17    22    23   ar
    18    15    16    1
    19    16    17    1
    20     6     7   ar
    21     7     8   ar
    22     8     9   ar
    23     9     1    1
    24     1     2    2
    25     1     3   am
    26     3    30    1
    27    30    41    1
    28    41    42    1
    29    42    43   ar
    30    43    44   ar
    31    44    45   ar
    32    45    46   ar
    33    46    47   ar
    34    47    48   ar
    35    48    49   ar
    36    49    50   ar
    37    30    31    1
    38    31    32    2
    39    31    33   am
    40    33    35    1
    41    35    36   ar
    42    36    37   ar
    43    37    38   ar
    44    38    39   ar
    45    39    40   ar
    46     9    10   ar
    47    10    11    1
    48    10     5   ar
    49    17    12    1
    50    50    42   ar
    51    40    35   ar
    52    23    18   ar
    53    50    45   ar
    54     3     4    1
    55    44    51    1
    56    33    34    1
@<TRIPOS>MOLECULE
*****
 51 56 0 0 0
SMALL
GASTEIGER

@<TRIPOS>ATOM
      1 C          59.4308   89.1918    5.9089 C.2     1  UNL1        0.2483
      2 O          58.4511   89.9662    6.0868 O.2     1  UNL1       -0.2701
      3 N          60.2559   89.3467    4.7400 N.am    1  UNL1       -0.2945
      4 H          60.7121   88.4946    4.3434 H       1  UNL1        0.1501
      5 C          61.0075   87.2258    8.7856 C.ar    1  UNL1        0.0187
      6 C          60.0822   86.1653    8.9018 C.ar    1  UNL1        0.0460
      7 C          58.9912   86.0948    8.0318 C.ar    1  UNL1        0.0145
      8 C          58.8021   87.0678    7.0531 C.ar    1  UNL1        0.0080
      9 C          59.7063   88.1339    6.9160 C.ar    1  UNL1        0.0805
     10 C          60.8116   88.2064    7.7920 C.ar    1  UNL1        0.1416
     11 F          61.6721   89.2554    7.7297 F       1  UNL1       -0.2043
     12 N          60.2314   85.1565    9.9090 N.pl3   1  UNL1       -0.3043
     13 C          60.6247   83.8006    9.5093 C.3     1  UNL1        0.1123
     14 C          60.5330   82.8129   10.6806 C.3     1  UNL1        0.1136
     15 N          61.0889   83.4023   11.9108 N.pl3   1  UNL1       -0.2897
     16 C          60.8044   84.8043   12.2581 C.3     1  UNL1        0.1136
     17 C          59.8119   85.4374   11.2820 C.3     1  UNL1        0.1123
     18 C          61.8447   82.6039   12.8452 C.ar    1  UNL1        0.1318
     19 C          63.2084   82.8462   13.0810 C.ar    1  UNL1        0.0343
     20 C          63.9056   82.0427   13.9845 C.ar    1  UNL1        0.0083
     21 C          63.2478   81.0064   14.6634 C.ar    1  UNL1        0.0906
     22 C          61.8956   80.7717   14.3707 C.ar    1  UNL1        0.1041
     23 N          61.2375   81.5663   13.4860 N.ar    1  UNL1       -0.2292
     24 C          64.0019   80.0999   15.6024 C.3     1  UNL1        0.4200
     25 F          63.1787   79.0592   15.9897 F       1  UNL1       -0.1658
     26 F          64.4110   80.7945   16.7277 F       1  UNL1       -0.1658
     27 F          65.1248   79.5803   14.9820 F       1  UNL1       -0.1658
     28 C          62.0514   88.6512   10.5636 C.3     1  UNL1        0.0051
     29 C          62.1672   87.3666    9.7480 C.3     1  UNL1        0.0299
     30 C          60.4749   90.6186    4.0307 C.3     1  UNL1        0.1535
     31 C          61.7672   90.6219    3.2419 C.2     1  UNL1        0.2443
     32 O          62.5587   89.6437    3.3316 O.2     1  UNL1       -0.2730
     33 N          62.1691   91.7964    2.5189 N.am    1  UNL1       -0.2825
     34 H          61.7647   92.7142    2.8118 H       1  UNL1        0.1549
     35 C          63.1697   91.7970    1.4858 C.ar    1  UNL1        0.0535
     36 C          64.5098   92.1224    1.7592 C.ar    1  UNL1        0.0353
     37 C          65.4527   92.0817    0.7292 C.ar    1  UNL1        0.1002
     38 N          65.0777   91.7178   -0.5256 N.ar    1  UNL1       -0.2422
     39 C          63.7930   91.3820   -0.8153 C.ar    1  UNL1        0.1002
     40 C          62.8190   91.4077    0.1858 C.ar    1  UNL1        0.0353
     41 C          59.2282   91.0394    3.2101 C.3     1  UNL1        0.0569
     42 C          59.5054   92.0249    2.1059 C.ar    1  UNL1       -0.0017
     43 C          60.1461   93.2555    2.2290 C.ar    1  UNL1        0.0681
     44 N          60.2743   93.8465    1.0198 N.ar    1  UNL1       -0.3523
     45 C          59.7142   93.0062    0.1332 C.ar    1  UNL1        0.0563
     46 C          59.6279   93.1725   -1.2484 C.ar    1  UNL1        0.0170
     47 C          59.0117   92.1533   -1.9967 C.ar    1  UNL1        0.0015
     48 C          58.4933   91.0081   -1.3540 C.ar    1  UNL1        0.0001
     49 C          58.5898   90.8699    0.0423 C.ar    1  UNL1        0.0012
     50 C          59.2210   91.8891    0.7578 C.ar    1  UNL1        0.0131
     51 H          60.7250   94.7669    0.8191 H       1  UNL1        0.1660
@<TRIPOS>BOND
     1    28    29    1
     2    29     5    1
     3     5     6   ar
     4     6    12    1
     5    12    13    1
     6    13    14    1
     7    14    15    1
     8    15    18    1
     9    18    19   ar
    10    19    20   ar
    11    20    21   ar
    12    21    24    1
    13    24    25    1
    14    24    26    1
    15    24    27    1
    16    21    22   ar
    17    22    23   ar
    18    15    16    1
    19    16    17    1
    20     6     7   ar
    21     7     8   ar
    22     8     9   ar
    23     9     1    1
    24     1     2    2
    25     1     3   am
    26     3    30    1
    27    30    41    1
    28    41    42    1
    29    42    43   ar
    30    43    44   ar
    31    44    45   ar
    32    45    46   ar
    33    46    47   ar
    34    47    48   ar
    35    48    49   ar
    36    49    50   ar
    37    30    31    1
    38    31    32    2
    39    31    33   am
    40    33    35    1
    41    35    36   ar
    42    36    37   ar
    43    37    38   ar
    44    38    39   ar
    45    39    40   ar
    46     9    10   ar
    47    10    11    1
    48    10     5   ar
    49    17    12    1
    50    50    42   ar
    51    40    35   ar
    52    23    18   ar
    53    50    45   ar
    54     3     4    1
    55    44    51    1
    56    33    34    1
@<TRIPOS>MOLECULE
*****
 51 56 0 0 0
SMALL
GASTEIGER

@<TRIPOS>ATOM
      1 C          60.2307   84.6459   12.7081 C.2     1  UNL1        0.2483
      2 O          59.3499   84.7597   13.6039 O.2     1  UNL1       -0.2701
      3 N          61.3321   83.7409   12.9054 N.am    1  UNL1       -0.2945
      4 H          62.2481   83.9767   12.4619 H       1  UNL1        0.1501
      5 C          60.9977   87.0697    9.8509 C.ar    1  UNL1        0.0187
      6 C          59.8737   86.8480    9.0250 C.ar    1  UNL1        0.0460
      7 C          58.8839   85.9460    9.4237 C.ar    1  UNL1        0.0145
      8 C          58.9991   85.2550   10.6278 C.ar    1  UNL1        0.0080
      9 C          60.1069   85.4556   11.4678 C.ar    1  UNL1        0.0805
     10 C          61.1076   86.3687   11.0690 C.ar    1  UNL1        0.1416
     11 F          62.2224   86.5424   11.8251 F       1  UNL1       -0.2043
     12 N          59.7295   87.5246    7.7697 N.pl3   1  UNL1       -0.3043
     13 C          59.0878   88.8436    7.7387 C.3     1  UNL1        0.1123
     14 C          58.8338   89.3194    6.3016 C.3     1  UNL1        0.1136
     15 N          60.0030   89.0552    5.4455 N.pl3   1  UNL1       -0.2897
     16 C          60.7342   87.7824    5.5573 C.3     1  UNL1        0.1136
     17 C          60.0475   86.8203    6.5276 C.3     1  UNL1        0.1123
     18 C          60.4043   89.9892    4.4216 C.ar    1  UNL1        0.1318
     19 C          59.4838   90.8740    3.8351 C.ar    1  UNL1        0.0343
     20 C          59.9110   91.7537    2.8394 C.ar    1  UNL1        0.0083
     21 C          61.2536   91.7646    2.4334 C.ar    1  UNL1        0.0906
     22 C          62.1327   90.8385    3.0153 C.ar    1  UNL1        0.1041
     23 N          61.6938   89.9904    3.9824 N.ar    1  UNL1       -0.2292
     24 C          61.7157   92.6738    1.3235 C.3     1  UNL1        0.4200
     25 F          60.6399   93.4055    0.8565 F       1  UNL1       -0.1658
     26 F          62.2481   91.9375    0.2792 F       1  UNL1       -0.1658
     27 F          62.6898   93.5448    1.7801 F       1  UNL1       -0.1658
     28 C          62.2569   89.1697   10.3866 C.3     1  UNL1        0.0051
     29 C          62.1173   87.9941    9.4236 C.3     1  UNL1        0.0299
     30 C          61.2767   82.5188   13.7252 C.3     1  UNL1        0.1535
     31 C          60.8522   81.3070   12.9229 C.2     1  UNL1        0.2443
     32 O          61.6737   80.3717   12.7182 O.2     1  UNL1       -0.2730
     33 N          59.5763   81.2884   12.2632 N.am    1  UNL1       -0.2825
     34 H          59.1175   82.2044   12.0580 H       1  UNL1        0.1549
     35 C          58.9432   80.0913   11.7786 C.ar    1  UNL1        0.0535
     36 C          58.9384   78.9044   12.5321 C.ar    1  UNL1        0.0353
     37 C          58.2860   77.7743   12.0333 C.ar    1  UNL1        0.1002
     38 N          57.6501   77.8271   10.8333 N.ar    1  UNL1       -0.2422
     39 C          57.6241   78.9653   10.0910 C.ar    1  UNL1        0.1002
     40 C          58.2625   80.1186   10.5537 C.ar    1  UNL1        0.0353
     41 C          62.5798   82.3163   14.5411 C.3     1  UNL1        0.0569
     42 C          63.4455   83.5427   14.6581 C.ar    1  UNL1       -0.0017
     43 C          64.7854   83.6544   14.2943 C.ar    1  UNL1        0.0681
     44 N          65.2244   84.9192   14.4835 N.ar    1  UNL1       -0.3523
     45 C          64.1782   85.6076   14.9707 C.ar    1  UNL1        0.0563
     46 C          64.1387   86.9622   15.2985 C.ar    1  UNL1        0.0170
     47 C          62.9260   87.4878   15.7796 C.ar    1  UNL1        0.0015
     48 C          61.7953   86.6556   15.9292 C.ar    1  UNL1        0.0001
     49 C          61.8660   85.2912   15.5955 C.ar    1  UNL1        0.0012
     50 C          63.0775   84.8003   15.1049 C.ar    1  UNL1        0.0131
     51 H          66.1818   85.2845   14.2829 H       1  UNL1        0.1660
@<TRIPOS>BOND
     1    28    29    1
     2    29     5    1
     3     5     6   ar
     4     6    12    1
     5    12    13    1
     6    13    14    1
     7    14    15    1
     8    15    18    1
     9    18    19   ar
    10    19    20   ar
    11    20    21   ar
    12    21    24    1
    13    24    25    1
    14    24    26    1
    15    24    27    1
    16    21    22   ar
    17    22    23   ar
    18    15    16    1
    19    16    17    1
    20     6     7   ar
    21     7     8   ar
    22     8     9   ar
    23     9     1    1
    24     1     2    2
    25     1     3   am
    26     3    30    1
    27    30    41    1
    28    41    42    1
    29    42    43   ar
    30    43    44   ar
    31    44    45   ar
    32    45    46   ar
    33    46    47   ar
    34    47    48   ar
    35    48    49   ar
    36    49    50   ar
    37    30    31    1
    38    31    32    2
    39    31    33   am
    40    33    35    1
    41    35    36   ar
    42    36    37   ar
    43    37    38   ar
    44    38    39   ar
    45    39    40   ar
    46     9    10   ar
    47    10    11    1
    48    10     5   ar
    49    17    12    1
    50    50    42   ar
    51    40    35   ar
    52    23    18   ar
    53    50    45   ar
    54     3     4    1
    55    44    51    1
    56    33    34    1
@<TRIPOS>MOLECULE
*****
 51 56 0 0 0
SMALL
GASTEIGER

@<TRIPOS>ATOM
      1 C          60.1014   84.5721   12.3394 C.2     1  UNL1        0.2483
      2 O          59.4256   83.5122   12.4454 O.2     1  UNL1       -0.2701
      3 N          61.0026   84.9489   13.3962 N.am    1  UNL1       -0.2945
      4 H          61.1736   85.9668   13.5573 H       1  UNL1        0.1501
      5 C          60.3966   87.4461    9.8336 C.ar    1  UNL1        0.0187
      6 C          59.7396   86.8773    8.7204 C.ar    1  UNL1        0.0460
      7 C          59.1929   85.5949    8.8152 C.ar    1  UNL1        0.0145
      8 C          59.2970   84.8665    9.9980 C.ar    1  UNL1        0.0080
      9 C          59.9460   85.4077   11.1200 C.ar    1  UNL1        0.0805
     10 C          60.4971   86.7047   11.0283 C.ar    1  UNL1        0.1416
     11 F          61.1853   87.2360   12.0717 F       1  UNL1       -0.2043
     12 N          59.6300   87.5872    7.4801 N.pl3   1  UNL1       -0.3043
     13 C          58.9708   88.8979    7.4631 C.3     1  UNL1        0.1123
     14 C          58.7609   89.4108    6.0317 C.3     1  UNL1        0.1136
     15 N          59.9632   89.1867    5.2107 N.pl3   1  UNL1       -0.2897
     16 C          60.7082   87.9211    5.3130 C.3     1  UNL1        0.1136
     17 C          60.0017   86.9228    6.2310 C.3     1  UNL1        0.1123
     18 C          60.3869   90.1547    4.2282 C.ar    1  UNL1        0.1318
     19 C          59.4816   91.0663    3.6596 C.ar    1  UNL1        0.0343
     20 C          59.9303   91.9788    2.7036 C.ar    1  UNL1        0.0083
     21 C          61.2794   91.9956    2.3201 C.ar    1  UNL1        0.0906
     22 C          62.1433   91.0431    2.8820 C.ar    1  UNL1        0.1041
     23 N          61.6834   90.1632    3.8102 N.ar    1  UNL1       -0.2292
     24 C          61.7652   92.9415    1.2517 C.3     1  UNL1        0.4200
     25 F          62.8669   93.6318    1.7213 F       1  UNL1       -0.1658
     26 F          60.7744   93.8478    0.9153 F       1  UNL1       -0.1658
     27 F          62.1217   92.2456    0.1096 F       1  UNL1       -0.1658
     28 C          62.5697   88.6821    9.6516 C.3     1  UNL1        0.0051
     29 C          61.0519   88.8079    9.7485 C.3     1  UNL1        0.0299
     30 C          61.6758   84.0023   14.3015 C.3     1  UNL1        0.1535
     31 C          61.7189   82.5983   13.7367 C.2     1  UNL1        0.2443
     32 O          61.6226   81.6076   14.5119 O.2     1  UNL1       -0.2730
     33 N          62.0261   82.3870   12.3494 N.am    1  UNL1       -0.2825
     34 H          62.5389   83.1419   11.8407 H       1  UNL1        0.1549
     35 C          61.7606   81.1592   11.6488 C.ar    1  UNL1        0.0535
     36 C          60.7551   80.2726   12.0724 C.ar    1  UNL1        0.0353
     37 C          60.5140   79.1055   11.3435 C.ar    1  UNL1        0.1002
     38 N          61.2390   78.8364   10.2258 N.ar    1  UNL1       -0.2422
     39 C          62.2057   79.6832    9.7836 C.ar    1  UNL1        0.1002
     40 C          62.4779   80.8622   10.4818 C.ar    1  UNL1        0.0353
     41 C          63.0517   84.5401   14.7732 C.3     1  UNL1        0.0569
     42 C          63.0106   85.9087   15.4000 C.ar    1  UNL1       -0.0017
     43 C          62.7221   86.2078   16.7294 C.ar    1  UNL1        0.0681
     44 N          62.8355   87.5366   16.9520 N.ar    1  UNL1       -0.3523
     45 C          63.1851   88.0828   15.7750 C.ar    1  UNL1        0.0563
     46 C          63.4426   89.4278   15.5126 C.ar    1  UNL1        0.0170
     47 C          63.8142   89.7835   14.2036 C.ar    1  UNL1        0.0015
     48 C          63.9103   88.7999   13.1953 C.ar    1  UNL1        0.0001
     49 C          63.6394   87.4512   13.4879 C.ar    1  UNL1        0.0012
     50 C          63.2890   87.1245   14.7993 C.ar    1  UNL1        0.0131
     51 H          62.6876   88.0328   17.8588 H       1  UNL1        0.1660
@<TRIPOS>BOND
     1    28    29    1
     2    29     5    1
     3     5     6   ar
     4     6    12    1
     5    12    13    1
     6    13    14    1
     7    14    15    1
     8    15    18    1
     9    18    19   ar
    10    19    20   ar
    11    20    21   ar
    12    21    24    1
    13    24    25    1
    14    24    26    1
    15    24    27    1
    16    21    22   ar
    17    22    23   ar
    18    15    16    1
    19    16    17    1
    20     6     7   ar
    21     7     8   ar
    22     8     9   ar
    23     9     1    1
    24     1     2    2
    25     1     3   am
    26     3    30    1
    27    30    41    1
    28    41    42    1
    29    42    43   ar
    30    43    44   ar
    31    44    45   ar
    32    45    46   ar
    33    46    47   ar
    34    47    48   ar
    35    48    49   ar
    36    49    50   ar
    37    30    31    1
    38    31    32    2
    39    31    33   am
    40    33    35    1
    41    35    36   ar
    42    36    37   ar
    43    37    38   ar
    44    38    39   ar
    45    39    40   ar
    46     9    10   ar
    47    10    11    1
    48    10     5   ar
    49    17    12    1
    50    50    42   ar
    51    40    35   ar
    52    23    18   ar
    53    50    45   ar
    54     3     4    1
    55    44    51    1
    56    33    34    1
@<TRIPOS>MOLECULE
*****
 51 56 0 0 0
SMALL
GASTEIGER

@<TRIPOS>ATOM
      1 C          59.4850   83.9074    9.8168 C.2     1  UNL1        0.2483
      2 O          59.5158   82.7906    9.2311 O.2     1  UNL1       -0.2701
      3 N          59.3964   83.9547   11.2524 N.am    1  UNL1       -0.2945
      4 H          58.9044   84.7667   11.6883 H       1  UNL1        0.1501
      5 C          60.5211   87.3322    8.4665 C.ar    1  UNL1        0.0187
      6 C          59.6906   87.4147    7.3272 C.ar    1  UNL1        0.0460
      7 C          58.7978   86.3790    7.0401 C.ar    1  UNL1        0.0145
      8 C          58.7243   85.2586    7.8645 C.ar    1  UNL1        0.0080
      9 C          59.5394   85.1502    9.0033 C.ar    1  UNL1        0.0805
     10 C          60.4408   86.1967    9.2979 C.ar    1  UNL1        0.1416
     11 F          61.2879   86.0989   10.3550 F       1  UNL1       -0.2043
     12 N          59.7515   88.5418    6.4438 N.pl3   1  UNL1       -0.3043
     13 C          61.0504   88.9532    5.8992 C.3     1  UNL1        0.1123
     14 C          60.9556   90.2887    5.1487 C.3     1  UNL1        0.1136
     15 N          59.7585   90.3268    4.2913 N.pl3   1  UNL1       -0.2897
     16 C          58.4750   89.7989    4.7822 C.3     1  UNL1        0.1136
     17 C          58.5636   89.3728    6.2483 C.3     1  UNL1        0.1123
     18 C          59.7894   90.9583    2.9944 C.ar    1  UNL1        0.1318
     19 C          61.0007   91.3425    2.3949 C.ar    1  UNL1        0.0343
     20 C          60.9855   91.9613    1.1440 C.ar    1  UNL1        0.0083
     21 C          59.7700   92.1885    0.4818 C.ar    1  UNL1        0.0906
     22 C          58.5800   91.8261    1.1313 C.ar    1  UNL1        0.1041
     23 N          58.6193   91.2259    2.3501 N.ar    1  UNL1       -0.2292
     24 C          59.7372   92.9020   -0.8456 C.3     1  UNL1        0.4200
     25 F          60.9479   93.5365   -1.0515 F       1  UNL1       -0.1658
     26 F          58.7239   93.8448   -0.8679 F       1  UNL1       -0.1658
     27 F          59.5168   92.0047   -1.8762 F       1  UNL1       -0.1658
     28 C          61.4472   88.8509   10.2324 C.3     1  UNL1        0.0051
     29 C          61.5411   88.4069    8.7754 C.3     1  UNL1        0.0299
     30 C          59.9150   82.9167   12.1592 C.3     1  UNL1        0.1535
     31 C          60.6642   83.5039   13.3366 C.2     1  UNL1        0.2443
     32 O          61.2581   82.7397   14.1457 O.2     1  UNL1       -0.2730
     33 N          60.5702   84.9080   13.6248 N.am    1  UNL1       -0.2825
     34 H          59.7468   85.4309   13.2505 H       1  UNL1        0.1549
     35 C          61.4864   85.6124   14.4811 C.ar    1  UNL1        0.0535
     36 C          62.5620   86.3517   13.9587 C.ar    1  UNL1        0.0353
     37 C          63.4093   87.0433   14.8278 C.ar    1  UNL1        0.1002
     38 N          63.1866   87.0107   16.1682 N.ar    1  UNL1       -0.2422
     39 C          62.1452   86.3181   16.7001 C.ar    1  UNL1        0.1002
     40 C          61.2728   85.6141   15.8664 C.ar    1  UNL1        0.0353
     41 C          58.8152   81.8960   12.5507 C.3     1  UNL1        0.0569
     42 C          59.1540   80.4600   12.2497 C.ar    1  UNL1       -0.0017
     43 C          58.4787   79.3311   12.7076 C.ar    1  UNL1        0.0681
     44 N          59.0253   78.2086   12.1887 N.ar    1  UNL1       -0.3523
     45 C          60.0447   78.6148   11.4131 C.ar    1  UNL1        0.0563
     46 C          60.8930   77.8154   10.6480 C.ar    1  UNL1        0.0170
     47 C          61.8912   78.4530    9.8894 C.ar    1  UNL1        0.0015
     48 C          62.0237   79.8583    9.9191 C.ar    1  UNL1        0.0001
     49 C          61.1569   80.6390   10.7046 C.ar    1  UNL1        0.0012
     50 C          60.1651   79.9809   11.4343 C.ar    1  UNL1        0.0131
     51 H          58.7106   77.2267   12.3541 H       1  UNL1        0.1660
@<TRIPOS>BOND
     1    28    29    1
     2    29     5    1
     3     5     6   ar
     4     6    12    1
     5    12    13    1
     6    13    14    1
     7    14    15    1
     8    15    18    1
     9    18    19   ar
    10    19    20   ar
    11    20    21   ar
    12    21    24    1
    13    24    25    1
    14    24    26    1
    15    24    27    1
    16    21    22   ar
    17    22    23   ar
    18    15    16    1
    19    16    17    1
    20     6     7   ar
    21     7     8   ar
    22     8     9   ar
    23     9     1    1
    24     1     2    2
    25     1     3   am
    26     3    30    1
    27    30    41    1
    28    41    42    1
    29    42    43   ar
    30    43    44   ar
    31    44    45   ar
    32    45    46   ar
    33    46    47   ar
    34    47    48   ar
    35    48    49   ar
    36    49    50   ar
    37    30    31    1
    38    31    32    2
    39    31    33   am
    40    33    35    1
    41    35    36   ar
    42    36    37   ar
    43    37    38   ar
    44    38    39   ar
    45    39    40   ar
    46     9    10   ar
    47    10    11    1
    48    10     5   ar
    49    17    12    1
    50    50    42   ar
    51    40    35   ar
    52    23    18   ar
    53    50    45   ar
    54     3     4    1
    55    44    51    1
    56    33    34    1
@<TRIPOS>MOLECULE
*****
 51 56 0 0 0
SMALL
GASTEIGER

@<TRIPOS>ATOM
      1 C          61.3834   81.7463   11.4847 C.2     1  UNL1        0.2483
      2 O          61.9082   81.8343   12.6284 O.2     1  UNL1       -0.2701
      3 N          61.0035   80.4554   10.9745 N.am    1  UNL1       -0.2945
      4 H          61.0372   80.3054    9.9412 H       1  UNL1        0.1501
      5 C          61.0221   84.1725    8.5505 C.ar    1  UNL1        0.0187
      6 C          60.6111   85.3366    9.2363 C.ar    1  UNL1        0.0460
      7 C          60.4895   85.3182   10.6281 C.ar    1  UNL1        0.0145
      8 C          60.7628   84.1571   11.3475 C.ar    1  UNL1        0.0080
      9 C          61.1724   82.9850   10.6906 C.ar    1  UNL1        0.0805
     10 C          61.2990   83.0011    9.2842 C.ar    1  UNL1        0.1416
     11 F          61.6325   81.8704    8.6097 F       1  UNL1       -0.2043
     12 N          60.3012   86.5445    8.5296 N.pl3   1  UNL1       -0.3043
     13 C          61.2571   87.6571    8.5634 C.3     1  UNL1        0.1123
     14 C          60.6727   88.9289    7.9334 C.3     1  UNL1        0.1136
     15 N          59.9584   88.6167    6.6836 N.pl3   1  UNL1       -0.2897
     16 C          59.0936   87.4285    6.5981 C.3     1  UNL1        0.1136
     17 C          58.9705   86.7217    7.9486 C.3     1  UNL1        0.1123
     18 C          60.0148   89.5071    5.5497 C.ar    1  UNL1        0.1318
     19 C          58.9031   90.2755    5.1651 C.ar    1  UNL1        0.0343
     20 C          58.9963   91.1158    4.0546 C.ar    1  UNL1        0.0083
     21 C          60.1956   91.2035    3.3324 C.ar    1  UNL1        0.0906
     22 C          61.2700   90.3906    3.7247 C.ar    1  UNL1        0.1041
     23 N          61.1558   89.5788    4.8087 N.ar    1  UNL1       -0.2292
     24 C          60.2924   92.0681    2.1015 C.3     1  UNL1        0.4200
     25 F          59.2928   91.7125    1.2155 F       1  UNL1       -0.1658
     26 F          61.5210   91.9041    1.4854 F       1  UNL1       -0.1658
     27 F          60.1484   93.4046    2.4317 F       1  UNL1       -0.1658
     28 C          62.5348   83.8627    6.5760 C.3     1  UNL1        0.0051
     29 C          61.1074   84.1387    7.0397 C.3     1  UNL1        0.0299
     30 C          60.6069   79.3079   11.8081 C.3     1  UNL1        0.1535
     31 C          61.5050   79.1362   13.0148 C.2     1  UNL1        0.2443
     32 O          61.9400   77.9905   13.3144 O.2     1  UNL1       -0.2730
     33 N          61.7346   80.2384   13.9070 N.am    1  UNL1       -0.2825
     34 H          61.0363   81.0155   13.9153 H       1  UNL1        0.1549
     35 C          62.8112   80.2862   14.8595 C.ar    1  UNL1        0.0535
     36 C          63.5912   81.4432   15.0312 C.ar    1  UNL1        0.0353
     37 C          64.6082   81.4526   15.9890 C.ar    1  UNL1        0.1002
     38 N          64.8327   80.3541   16.7572 N.ar    1  UNL1       -0.2422
     39 C          64.0838   79.2277   16.6247 C.ar    1  UNL1        0.1002
     40 C          63.0557   79.1766   15.6802 C.ar    1  UNL1        0.0353
     41 C          59.0928   79.3380   12.1418 C.3     1  UNL1        0.0569
     42 C          58.4400   80.6853   11.9805 C.ar    1  UNL1       -0.0017
     43 C          58.1059   81.5763   12.9977 C.ar    1  UNL1        0.0681
     44 N          57.5892   82.7139   12.4810 N.ar    1  UNL1       -0.3523
     45 C          57.5855   82.5491   11.1474 C.ar    1  UNL1        0.0563
     46 C          57.1658   83.4669   10.1852 C.ar    1  UNL1        0.0170
     47 C          57.2652   83.0941    8.8326 C.ar    1  UNL1        0.0015
     48 C          57.7675   81.8237    8.4761 C.ar    1  UNL1        0.0001
     49 C          58.1784   80.9161    9.4687 C.ar    1  UNL1        0.0012
     50 C          58.0841   81.3189   10.8022 C.ar    1  UNL1        0.0131
     51 H          57.2666   83.5518   13.0143 H       1  UNL1        0.1660
@<TRIPOS>BOND
     1    28    29    1
     2    29     5    1
     3     5     6   ar
     4     6    12    1
     5    12    13    1
     6    13    14    1
     7    14    15    1
     8    15    18    1
     9    18    19   ar
    10    19    20   ar
    11    20    21   ar
    12    21    24    1
    13    24    25    1
    14    24    26    1
    15    24    27    1
    16    21    22   ar
    17    22    23   ar
    18    15    16    1
    19    16    17    1
    20     6     7   ar
    21     7     8   ar
    22     8     9   ar
    23     9     1    1
    24     1     2    2
    25     1     3   am
    26     3    30    1
    27    30    41    1
    28    41    42    1
    29    42    43   ar
    30    43    44   ar
    31    44    45   ar
    32    45    46   ar
    33    46    47   ar
    34    47    48   ar
    35    48    49   ar
    36    49    50   ar
    37    30    31    1
    38    31    32    2
    39    31    33   am
    40    33    35    1
    41    35    36   ar
    42    36    37   ar
    43    37    38   ar
    44    38    39   ar
    45    39    40   ar
    46     9    10   ar
    47    10    11    1
    48    10     5   ar
    49    17    12    1
    50    50    42   ar
    51    40    35   ar
    52    23    18   ar
    53    50    45   ar
    54     3     4    1
    55    44    51    1
    56    33    34    1
