@<TRIPOS>MOLECULE
*****
 46 52 0 0 0
SMALL
GASTEIGER

@<TRIPOS>ATOM
      1 C         -28.8454   49.0619   -6.7669 C.3     1  UNL1        0.0886
      2 C         -29.2788   48.6486   -8.1219 C.ar    1  UNL1       -0.0113
      3 C         -30.1280   47.5882   -8.4405 C.ar    1  UNL1       -0.0033
      4 C         -30.4330   47.3498   -9.7860 C.ar    1  UNL1       -0.0003
      5 C         -29.8519   48.1416  -10.8029 C.ar    1  UNL1       -0.0002
      6 C         -29.0483   49.2452  -10.4443 C.ar    1  UNL1       -0.0045
      7 C         -28.7934   49.4877   -9.0931 C.ar    1  UNL1       -0.0244
      8 C         -27.9685   50.5866   -8.5274 C.3     1  UNL1        0.0351
      9 C         -27.8602   50.2368   -7.0193 C.3     1  UNL1        0.0808
     10 C         -26.9921   47.4110   -6.2375 C.3     1  UNL1        0.1159
     11 N         -26.6753   46.4028   -5.3880 N.3     1  UNL1       -0.2851
     12 C         -27.7677   46.2948   -4.6181 C.3     1  UNL1        0.0910
     13 C         -27.9808   45.3721   -3.6063 C.3     1  UNL1        0.1018
     14 C         -29.2327   45.3824   -2.9767 C.3     1  UNL1        0.3136
     15 N         -30.2091   46.2785   -3.3520 N.am    1  UNL1       -0.1293
     16 C         -29.9589   47.2215   -4.3271 C.2     1  UNL1        0.4047
     17 O         -30.8414   48.0622   -4.6327 O.2     1  UNL1       -0.2174
     18 C         -28.7118   47.2083   -4.9794 C.3     1  UNL1        0.2039
     19 N         -28.2298   47.9463   -6.0147 N.3     1  UNL1       -0.2469
     20 H         -25.8559   46.6399   -4.8288 H       1  UNL1        0.1244
     21 C         -26.1402   46.9932   -8.5475 C.3     1  UNL1        0.0029
     22 C         -26.0299   47.8643   -7.3008 C.3     1  UNL1        0.0326
     23 C         -31.5446   46.1738   -2.7358 C.3     1  UNL1        0.3404
     24 C         -31.4613   46.1918   -1.2241 C.ar    1  UNL1        0.0640
     25 C         -31.5540   44.9712   -0.5317 C.ar    1  UNL1        0.0031
     26 C         -31.5446   44.9417    0.8645 C.ar    1  UNL1       -0.0001
     27 C         -31.4427   46.1289    1.5894 C.ar    1  UNL1        0.0007
     28 C         -31.3407   47.3497    0.9204 C.ar    1  UNL1        0.0102
     29 C         -31.3449   47.3939   -0.4815 C.ar    1  UNL1        0.0710
     30 C         -31.2266   48.6814   -1.1230 C.1     1  UNL1        0.1003
     31 N         -31.1347   49.7145   -1.6366 N.1     1  UNL1       -0.1908
     32 C         -30.0717   47.8127  -12.2330 C.ar    1  UNL1        0.0030
     33 C         -29.9862   46.4644  -12.6270 C.ar    1  UNL1        0.0001
     34 C         -30.1201   46.1027  -13.9675 C.ar    1  UNL1        0.0000
     35 C         -30.3364   47.0797  -14.9364 C.ar    1  UNL1        0.0001
     36 C         -30.4335   48.4218  -14.5676 C.ar    1  UNL1        0.0031
     37 C         -30.3226   48.8087  -13.2199 C.ar    1  UNL1        0.0371
     38 C         -30.4840   50.2483  -12.8979 C.ar    1  UNL1        0.1806
     39 N         -29.5365   51.1810  -13.1141 N.ar    1  UNL1       -0.1084
     40 N         -30.0719   52.3201  -12.6980 N.ar    1  UNL1       -0.0229
     41 N         -31.2999   52.1054  -12.2520 N.ar    1  UNL1       -0.0464
     42 N         -31.5817   50.8213  -12.3741 N.ar    1  UNL1       -0.2388
     43 H         -32.4955   50.3829  -12.1274 H       1  UNL1        0.1923
     44 C         -28.1681   51.4273   -6.1340 C.2     1  UNL1        0.1526
     45 C         -29.3893   51.4552   -5.2629 C.3     1  UNL1        0.0723
     46 O         -27.4182   52.3927   -6.1293 O.2     1  UNL1       -0.2960
@<TRIPOS>BOND
     1    21    22    1
     2    22    10    1
     3    10    11    1
     4    11    12    1
     5    12    13    1
     6    13    14    1
     7    14    15    1
     8    15    23    1
     9    23    24    1
    10    24    25   ar
    11    25    26   ar
    12    26    27   ar
    13    27    28   ar
    14    28    29   ar
    15    29    30    1
    16    30    31    3
    17    15    16    1
    18    16    17    2
    19    16    18    1
    20    18    19    1
    21    19     1    1
    22     1     2    1
    23     2     3   ar
    24     3     4   ar
    25     4     5   ar
    26     5    32    1
    27    32    33   ar
    28    33    34   ar
    29    34    35   ar
    30    35    36   ar
    31    36    37   ar
    32    37    38    1
    33    38    39   ar
    34    39    40   ar
    35    40    41   ar
    36    41    42   ar
    37     5     6   ar
    38     6     7   ar
    39     7     8    1
    40     8     9    1
    41     9    44    1
    42    44    45    1
    43    44    46    2
    44    19    10    1
    45     9     1    1
    46    18    12    1
    47     7     2   ar
    48    29    24   ar
    49    37    32   ar
    50    42    38   ar
    51    42    43    1
    52    11    20    1
@<TRIPOS>MOLECULE
*****
 46 52 0 0 0
SMALL
GASTEIGER

@<TRIPOS>ATOM
      1 C         -28.5895   47.7374   -7.1544 C.3     1  UNL1        0.0886
      2 C         -27.4416   48.5997   -7.5197 C.ar    1  UNL1       -0.0113
      3 C         -26.7123   49.4269   -6.6647 C.ar    1  UNL1       -0.0033
      4 C         -25.6484   50.1696   -7.1907 C.ar    1  UNL1       -0.0003
      5 C         -25.3517   50.1158   -8.5719 C.ar    1  UNL1       -0.0002
      6 C         -26.0670   49.2219   -9.3974 C.ar    1  UNL1       -0.0045
      7 C         -27.0959   48.4600   -8.8402 C.ar    1  UNL1       -0.0244
      8 C         -27.9600   47.4802   -9.5482 C.3     1  UNL1        0.0351
      9 C         -29.0448   47.1112   -8.5016 C.3     1  UNL1        0.0808
     10 C         -30.6218   49.2562   -7.0954 C.3     1  UNL1        0.1159
     11 N         -31.4939   49.8343   -6.2331 N.3     1  UNL1       -0.2851
     12 C         -31.0501   49.4344   -5.0327 C.3     1  UNL1        0.0910
     13 C         -31.5696   49.7868   -3.7973 C.3     1  UNL1        0.1018
     14 C         -30.9009   49.3181   -2.6584 C.3     1  UNL1        0.3136
     15 N         -29.7725   48.5361   -2.7690 N.am    1  UNL1       -0.1293
     16 C         -29.3011   48.1553   -4.0081 C.2     1  UNL1        0.4047
     17 O         -28.2959   47.4066   -4.0977 O.2     1  UNL1       -0.2174
     18 C         -29.9535   48.6356   -5.1590 C.3     1  UNL1        0.2039
     19 N         -29.6651   48.4979   -6.4806 N.3     1  UNL1       -0.2469
     20 H         -32.4449   49.5053   -6.3995 H       1  UNL1        0.1244
     21 C         -30.0856   50.7585   -9.0169 C.3     1  UNL1        0.0029
     22 C         -30.7477   49.4560   -8.5807 C.3     1  UNL1        0.0326
     23 C         -29.0435   48.1629   -1.5428 C.3     1  UNL1        0.3404
     24 C         -29.9586   47.5053   -0.5316 C.ar    1  UNL1        0.0640
     25 C         -30.3390   48.2385    0.6067 C.ar    1  UNL1        0.0031
     26 C         -31.1310   47.6551    1.5980 C.ar    1  UNL1       -0.0001
     27 C         -31.5544   46.3325    1.4680 C.ar    1  UNL1        0.0007
     28 C         -31.1947   45.5911    0.3413 C.ar    1  UNL1        0.0102
     29 C         -30.4030   46.1655   -0.6640 C.ar    1  UNL1        0.0710
     30 C         -30.0685   45.3581   -1.8126 C.1     1  UNL1        0.1003
     31 N         -29.7972   44.7109   -2.7329 N.1     1  UNL1       -0.1908
     32 C         -24.3089   50.9964   -9.1541 C.ar    1  UNL1        0.0030
     33 C         -23.1011   51.1543   -8.4491 C.ar    1  UNL1        0.0001
     34 C         -22.1106   52.0189   -8.9151 C.ar    1  UNL1        0.0000
     35 C         -22.3107   52.7428  -10.0882 C.ar    1  UNL1        0.0001
     36 C         -23.4966   52.5953  -10.8081 C.ar    1  UNL1        0.0031
     37 C         -24.5012   51.7141  -10.3693 C.ar    1  UNL1        0.0371
     38 C         -25.7148   51.5739  -11.2117 C.ar    1  UNL1        0.1806
     39 N         -25.7019   51.1455  -12.4887 N.ar    1  UNL1       -0.1084
     40 N         -26.9710   51.1622  -12.8714 N.ar    1  UNL1       -0.0229
     41 N         -27.7380   51.5737  -11.8738 N.ar    1  UNL1       -0.0464
     42 N         -26.9771   51.8289  -10.8255 N.ar    1  UNL1       -0.2388
     43 H         -27.3272   52.1386   -9.8929 H       1  UNL1        0.1923
     44 C         -29.2402   45.6130   -8.3864 C.2     1  UNL1        0.1526
     45 C         -29.8411   44.9981   -7.1569 C.3     1  UNL1        0.0723
     46 O         -28.8959   44.8818   -9.3036 O.2     1  UNL1       -0.2960
@<TRIPOS>BOND
     1    21    22    1
     2    22    10    1
     3    10    11    1
     4    11    12    1
     5    12    13    1
     6    13    14    1
     7    14    15    1
     8    15    23    1
     9    23    24    1
    10    24    25   ar
    11    25    26   ar
    12    26    27   ar
    13    27    28   ar
    14    28    29   ar
    15    29    30    1
    16    30    31    3
    17    15    16    1
    18    16    17    2
    19    16    18    1
    20    18    19    1
    21    19     1    1
    22     1     2    1
    23     2     3   ar
    24     3     4   ar
    25     4     5   ar
    26     5    32    1
    27    32    33   ar
    28    33    34   ar
    29    34    35   ar
    30    35    36   ar
    31    36    37   ar
    32    37    38    1
    33    38    39   ar
    34    39    40   ar
    35    40    41   ar
    36    41    42   ar
    37     5     6   ar
    38     6     7   ar
    39     7     8    1
    40     8     9    1
    41     9    44    1
    42    44    45    1
    43    44    46    2
    44    19    10    1
    45     9     1    1
    46    18    12    1
    47     7     2   ar
    48    29    24   ar
    49    37    32   ar
    50    42    38   ar
    51    42    43    1
    52    11    20    1
@<TRIPOS>MOLECULE
*****
 46 52 0 0 0
SMALL
GASTEIGER

@<TRIPOS>ATOM
      1 C         -27.1147   50.0339   -8.7347 C.3     1  UNL1        0.0886
      2 C         -25.8608   50.4876   -9.3800 C.ar    1  UNL1       -0.0113
      3 C         -25.5220   50.3627  -10.7279 C.ar    1  UNL1       -0.0033
      4 C         -24.2869   50.8595  -11.1613 C.ar    1  UNL1       -0.0003
      5 C         -23.3827   51.4338  -10.2386 C.ar    1  UNL1       -0.0002
      6 C         -23.7814   51.6026   -8.8952 C.ar    1  UNL1       -0.0045
      7 C         -25.0359   51.1371   -8.4966 C.ar    1  UNL1       -0.0244
      8 C         -25.6212   51.2157   -7.1330 C.3     1  UNL1        0.0351
      9 C         -26.9136   50.3621   -7.2292 C.3     1  UNL1        0.0808
     10 C         -26.6347   47.5515   -8.5165 C.3     1  UNL1        0.1159
     11 N         -27.1157   46.3381   -8.8836 N.3     1  UNL1       -0.2851
     12 C         -28.1929   46.6446   -9.6209 C.3     1  UNL1        0.0910
     13 C         -29.0281   45.7551  -10.2779 C.3     1  UNL1        0.1018
     14 C         -30.0555   46.2946  -11.0635 C.3     1  UNL1        0.3136
     15 N         -30.2248   47.6571  -11.1732 N.am    1  UNL1       -0.1293
     16 C         -29.4136   48.5239  -10.4709 C.2     1  UNL1        0.4047
     17 O         -29.6031   49.7640  -10.5439 O.2     1  UNL1       -0.2174
     18 C         -28.3667   47.9940   -9.6938 C.3     1  UNL1        0.2039
     19 N         -27.3800   48.5992   -8.9804 N.3     1  UNL1       -0.2469
     20 H         -27.3770   45.7860   -8.0667 H       1  UNL1        0.1244
     21 C         -25.5775   46.9651   -6.3314 C.3     1  UNL1        0.0029
     22 C         -25.3984   47.6749   -7.6691 C.3     1  UNL1        0.0326
     23 C         -31.2490   48.1737  -12.0997 C.3     1  UNL1        0.3404
     24 C         -30.7615   48.1537  -13.5330 C.ar    1  UNL1        0.0640
     25 C         -30.6808   46.9169  -14.1978 C.ar    1  UNL1        0.0031
     26 C         -30.1793   46.8389  -15.4989 C.ar    1  UNL1       -0.0001
     27 C         -29.7511   47.9930  -16.1547 C.ar    1  UNL1        0.0007
     28 C         -29.8315   49.2310  -15.5151 C.ar    1  UNL1        0.0102
     29 C         -30.3368   49.3247  -14.2100 C.ar    1  UNL1        0.0710
     30 C         -30.4076   50.6303  -13.5988 C.1     1  UNL1        0.1003
     31 N         -30.4625   51.6762  -13.1064 N.1     1  UNL1       -0.1908
     32 C         -22.0240   51.8449  -10.6705 C.ar    1  UNL1        0.0030
     33 C         -21.0941   50.8384  -10.9912 C.ar    1  UNL1        0.0001
     34 C         -19.7835   51.1629  -11.3414 C.ar    1  UNL1        0.0000
     35 C         -19.3783   52.4952  -11.3727 C.ar    1  UNL1        0.0001
     36 C         -20.2855   53.5101  -11.0671 C.ar    1  UNL1        0.0031
     37 C         -21.6177   53.2088  -10.7314 C.ar    1  UNL1        0.0371
     38 C         -22.5375   54.3425  -10.4652 C.ar    1  UNL1        0.1806
     39 N         -22.1512   55.6319  -10.4135 N.ar    1  UNL1       -0.1084
     40 N         -23.2588   56.3144  -10.1593 N.ar    1  UNL1       -0.0229
     41 N         -24.2879   55.4866  -10.0665 N.ar    1  UNL1       -0.0464
     42 N         -23.8634   54.2517  -10.2616 N.ar    1  UNL1       -0.2388
     43 H         -24.4719   53.4046  -10.2746 H       1  UNL1        0.1923
     44 C         -28.1148   51.0778   -6.6455 C.2     1  UNL1        0.1526
     45 C         -29.5108   50.7331   -7.0737 C.3     1  UNL1        0.0723
     46 O         -27.9535   51.9612   -5.8161 O.2     1  UNL1       -0.2960
@<TRIPOS>BOND
     1    21    22    1
     2    22    10    1
     3    10    11    1
     4    11    12    1
     5    12    13    1
     6    13    14    1
     7    14    15    1
     8    15    23    1
     9    23    24    1
    10    24    25   ar
    11    25    26   ar
    12    26    27   ar
    13    27    28   ar
    14    28    29   ar
    15    29    30    1
    16    30    31    3
    17    15    16    1
    18    16    17    2
    19    16    18    1
    20    18    19    1
    21    19     1    1
    22     1     2    1
    23     2     3   ar
    24     3     4   ar
    25     4     5   ar
    26     5    32    1
    27    32    33   ar
    28    33    34   ar
    29    34    35   ar
    30    35    36   ar
    31    36    37   ar
    32    37    38    1
    33    38    39   ar
    34    39    40   ar
    35    40    41   ar
    36    41    42   ar
    37     5     6   ar
    38     6     7   ar
    39     7     8    1
    40     8     9    1
    41     9    44    1
    42    44    45    1
    43    44    46    2
    44    19    10    1
    45     9     1    1
    46    18    12    1
    47     7     2   ar
    48    29    24   ar
    49    37    32   ar
    50    42    38   ar
    51    42    43    1
    52    11    20    1
@<TRIPOS>MOLECULE
*****
 46 52 0 0 0
SMALL
GASTEIGER

@<TRIPOS>ATOM
      1 C         -30.4364   47.9936  -10.2609 C.3     1  UNL1        0.0886
      2 C         -30.6568   47.5984   -8.8502 C.ar    1  UNL1       -0.0113
      3 C         -31.3937   48.2958   -7.8923 C.ar    1  UNL1       -0.0033
      4 C         -31.4982   47.7621   -6.6022 C.ar    1  UNL1       -0.0003
      5 C         -30.8289   46.5626   -6.2674 C.ar    1  UNL1       -0.0002
      6 C         -30.1449   45.8493   -7.2751 C.ar    1  UNL1       -0.0045
      7 C         -30.0911   46.3813   -8.5649 C.ar    1  UNL1       -0.0244
      8 C         -29.4141   45.7841   -9.7452 C.3     1  UNL1        0.0351
      9 C         -29.4934   46.8952  -10.8257 C.3     1  UNL1        0.0808
     10 C         -30.3632   50.3723  -11.1422 C.3     1  UNL1        0.1159
     11 N         -29.6490   51.5209  -11.0476 N.3     1  UNL1       -0.2851
     12 C         -28.6591   51.1988  -10.2025 C.3     1  UNL1        0.0910
     13 C         -27.6147   52.0155   -9.7993 C.3     1  UNL1        0.1018
     14 C         -26.6378   51.4510   -8.9681 C.3     1  UNL1        0.3136
     15 N         -26.7189   50.1352   -8.5691 N.am    1  UNL1       -0.1293
     16 C         -27.7932   49.3540   -8.9408 C.2     1  UNL1        0.4047
     17 O         -27.8800   48.1674   -8.5367 O.2     1  UNL1       -0.2174
     18 C         -28.7705   49.9047   -9.7909 C.3     1  UNL1        0.2039
     19 N         -29.8680   49.3548  -10.3756 N.3     1  UNL1       -0.2469
     20 H         -30.2205   52.2767  -10.6701 H       1  UNL1        0.1244
     21 C         -31.2011   50.2667  -13.4923 C.3     1  UNL1        0.0029
     22 C         -31.5838   50.2843  -12.0164 C.3     1  UNL1        0.0326
     23 C         -25.6087   49.5598   -7.7877 C.3     1  UNL1        0.3404
     24 C         -26.1146   48.8131   -6.5715 C.ar    1  UNL1        0.0640
     25 C         -26.0749   47.4073   -6.5819 C.ar    1  UNL1        0.0031
     26 C         -26.5865   46.6723   -5.5101 C.ar    1  UNL1       -0.0001
     27 C         -27.1446   47.3291   -4.4136 C.ar    1  UNL1        0.0007
     28 C         -27.1851   48.7239   -4.3806 C.ar    1  UNL1        0.0102
     29 C         -26.6714   49.4749   -5.4481 C.ar    1  UNL1        0.0710
     30 C         -26.7290   50.9143   -5.3586 C.1     1  UNL1        0.1003
     31 N         -26.7783   52.0683   -5.2868 N.1     1  UNL1       -0.1908
     32 C         -30.8325   46.0617   -4.8707 C.ar    1  UNL1        0.0030
     33 C         -30.8427   44.6698   -4.6625 C.ar    1  UNL1        0.0001
     34 C         -30.9110   44.1416   -3.3733 C.ar    1  UNL1        0.0000
     35 C         -30.9749   44.9923   -2.2723 C.ar    1  UNL1        0.0001
     36 C         -30.9571   46.3754   -2.4545 C.ar    1  UNL1        0.0031
     37 C         -30.8678   46.9315   -3.7433 C.ar    1  UNL1        0.0371
     38 C         -30.8057   48.4098   -3.8562 C.ar    1  UNL1        0.1806
     39 N         -31.5833   49.2541   -3.1512 N.ar    1  UNL1       -0.1084
     40 N         -31.2161   50.4673   -3.5391 N.ar    1  UNL1       -0.0229
     41 N         -30.2476   50.3802   -4.4376 N.ar    1  UNL1       -0.0464
     42 N         -29.9695   49.1064   -4.6457 N.ar    1  UNL1       -0.2388
     43 H         -29.2233   48.7530   -5.2832 H       1  UNL1        0.1923
     44 C         -29.9856   46.3631  -12.1562 C.2     1  UNL1        0.1526
     45 C         -31.4513   46.2493  -12.4557 C.3     1  UNL1        0.0723
     46 O         -29.1809   46.0080  -13.0053 O.2     1  UNL1       -0.2960
@<TRIPOS>BOND
     1    21    22    1
     2    22    10    1
     3    10    11    1
     4    11    12    1
     5    12    13    1
     6    13    14    1
     7    14    15    1
     8    15    23    1
     9    23    24    1
    10    24    25   ar
    11    25    26   ar
    12    26    27   ar
    13    27    28   ar
    14    28    29   ar
    15    29    30    1
    16    30    31    3
    17    15    16    1
    18    16    17    2
    19    16    18    1
    20    18    19    1
    21    19     1    1
    22     1     2    1
    23     2     3   ar
    24     3     4   ar
    25     4     5   ar
    26     5    32    1
    27    32    33   ar
    28    33    34   ar
    29    34    35   ar
    30    35    36   ar
    31    36    37   ar
    32    37    38    1
    33    38    39   ar
    34    39    40   ar
    35    40    41   ar
    36    41    42   ar
    37     5     6   ar
    38     6     7   ar
    39     7     8    1
    40     8     9    1
    41     9    44    1
    42    44    45    1
    43    44    46    2
    44    19    10    1
    45     9     1    1
    46    18    12    1
    47     7     2   ar
    48    29    24   ar
    49    37    32   ar
    50    42    38   ar
    51    42    43    1
    52    11    20    1
@<TRIPOS>MOLECULE
*****
 46 52 0 0 0
SMALL
GASTEIGER

@<TRIPOS>ATOM
      1 C         -28.0629   48.8321   -8.0249 C.3     1  UNL1        0.0886
      2 C         -28.4587   48.1564   -6.7674 C.ar    1  UNL1       -0.0113
      3 C         -29.4449   47.1806   -6.6176 C.ar    1  UNL1       -0.0033
      4 C         -29.6779   46.6476   -5.3441 C.ar    1  UNL1       -0.0003
      5 C         -28.9578   47.1257   -4.2253 C.ar    1  UNL1       -0.0002
      6 C         -27.9239   48.0666   -4.4204 C.ar    1  UNL1       -0.0045
      7 C         -27.6824   48.5516   -5.7072 C.ar    1  UNL1       -0.0244
      8 C         -26.6515   49.5457   -6.1035 C.3     1  UNL1        0.0351
      9 C         -26.9842   49.8610   -7.5861 C.3     1  UNL1        0.0808
     10 C         -30.0077   50.4533   -8.1972 C.3     1  UNL1        0.1159
     11 N         -30.9873   50.8542   -9.0446 N.3     1  UNL1       -0.2851
     12 C         -30.8086   50.0673  -10.1154 C.3     1  UNL1        0.0910
     13 C         -31.5840   50.0414  -11.2638 C.3     1  UNL1        0.1018
     14 C         -31.2687   49.0805  -12.2338 C.3     1  UNL1        0.3136
     15 N         -30.2262   48.1997  -12.0484 N.am    1  UNL1       -0.1293
     16 C         -29.4355   48.2754  -10.9206 C.2     1  UNL1        0.4047
     17 O         -28.4605   47.4953  -10.7805 O.2     1  UNL1       -0.2174
     18 C         -29.7544   49.2241   -9.9310 C.3     1  UNL1        0.2039
     19 N         -29.2158   49.4619   -8.7055 N.3     1  UNL1       -0.2469
     20 H         -30.8774   51.8378   -9.2912 H       1  UNL1        0.1244
     21 C         -31.0112   50.7176   -5.9258 C.3     1  UNL1        0.0029
     22 C         -29.8467   51.0817   -6.8404 C.3     1  UNL1        0.0326
     23 C         -30.0072   47.1373  -13.0472 C.3     1  UNL1        0.3404
     24 C         -29.9665   47.6974  -14.4533 C.ar    1  UNL1        0.0640
     25 C         -29.7192   49.0716  -14.6221 C.ar    1  UNL1        0.0031
     26 C         -29.7330   49.6469  -15.8946 C.ar    1  UNL1       -0.0001
     27 C         -29.9937   48.8598  -17.0161 C.ar    1  UNL1        0.0007
     28 C         -30.2326   47.4924  -16.8702 C.ar    1  UNL1        0.0102
     29 C         -30.2179   46.9005  -15.5987 C.ar    1  UNL1        0.0710
     30 C         -30.4611   45.4809  -15.5050 C.1     1  UNL1        0.1003
     31 N         -30.6592   44.3432  -15.4295 N.1     1  UNL1       -0.1908
     32 C         -29.2898   46.6554   -2.8578 C.ar    1  UNL1        0.0030
     33 C         -30.5267   47.0359   -2.3047 C.ar    1  UNL1        0.0001
     34 C         -30.8656   46.6774   -1.0000 C.ar    1  UNL1        0.0000
     35 C         -29.9750   45.9383   -0.2249 C.ar    1  UNL1        0.0001
     36 C         -28.7469   45.5426   -0.7556 C.ar    1  UNL1        0.0031
     37 C         -28.3916   45.8743   -2.0754 C.ar    1  UNL1        0.0371
     38 C         -27.0899   45.3783   -2.5870 C.ar    1  UNL1        0.1806
     39 N         -26.9348   44.2236   -3.2629 N.ar    1  UNL1       -0.1084
     40 N         -25.6397   44.1550   -3.5369 N.ar    1  UNL1       -0.0229
     41 N         -25.0202   45.2236   -3.0603 N.ar    1  UNL1       -0.0464
     42 N         -25.9060   46.0049   -2.4703 N.ar    1  UNL1       -0.2388
     43 H         -25.6937   46.9294   -2.0363 H       1  UNL1        0.1923
     44 C         -25.7565   49.7992   -8.4719 C.2     1  UNL1        0.1526
     45 C         -24.4862   50.5018   -8.0930 C.3     1  UNL1        0.0723
     46 O         -25.7945   49.1751   -9.5225 O.2     1  UNL1       -0.2960
@<TRIPOS>BOND
     1    21    22    1
     2    22    10    1
     3    10    11    1
     4    11    12    1
     5    12    13    1
     6    13    14    1
     7    14    15    1
     8    15    23    1
     9    23    24    1
    10    24    25   ar
    11    25    26   ar
    12    26    27   ar
    13    27    28   ar
    14    28    29   ar
    15    29    30    1
    16    30    31    3
    17    15    16    1
    18    16    17    2
    19    16    18    1
    20    18    19    1
    21    19     1    1
    22     1     2    1
    23     2     3   ar
    24     3     4   ar
    25     4     5   ar
    26     5    32    1
    27    32    33   ar
    28    33    34   ar
    29    34    35   ar
    30    35    36   ar
    31    36    37   ar
    32    37    38    1
    33    38    39   ar
    34    39    40   ar
    35    40    41   ar
    36    41    42   ar
    37     5     6   ar
    38     6     7   ar
    39     7     8    1
    40     8     9    1
    41     9    44    1
    42    44    45    1
    43    44    46    2
    44    19    10    1
    45     9     1    1
    46    18    12    1
    47     7     2   ar
    48    29    24   ar
    49    37    32   ar
    50    42    38   ar
    51    42    43    1
    52    11    20    1
@<TRIPOS>MOLECULE
*****
 46 52 0 0 0
SMALL
GASTEIGER

@<TRIPOS>ATOM
      1 C         -30.2435   48.1050  -10.6648 C.3     1  UNL1        0.0886
      2 C         -30.2863   47.4279  -11.9817 C.ar    1  UNL1       -0.0113
      3 C         -30.3309   46.0525  -12.2132 C.ar    1  UNL1       -0.0033
      4 C         -30.3737   45.5925  -13.5348 C.ar    1  UNL1       -0.0003
      5 C         -30.3248   46.5060  -14.6127 C.ar    1  UNL1       -0.0002
      6 C         -30.3442   47.8916  -14.3447 C.ar    1  UNL1       -0.0045
      7 C         -30.3446   48.3257  -13.0177 C.ar    1  UNL1       -0.0244
      8 C         -30.3538   49.7338  -12.5430 C.3     1  UNL1        0.0351
      9 C         -30.1303   49.6154  -11.0119 C.3     1  UNL1        0.0808
     10 C         -29.0145   46.3787   -9.2684 C.3     1  UNL1        0.1159
     11 N         -27.8744   46.2018   -8.5562 N.3     1  UNL1       -0.2851
     12 C         -27.2597   47.3889   -8.6600 C.3     1  UNL1        0.0910
     13 C         -26.0615   47.7564   -8.0687 C.3     1  UNL1        0.1018
     14 C         -25.6353   49.0801   -8.2424 C.3     1  UNL1        0.3136
     15 N         -26.3819   49.9761   -8.9751 N.am    1  UNL1       -0.1293
     16 C         -27.5462   49.5762   -9.5972 C.2     1  UNL1        0.4047
     17 O         -28.1980   50.3898  -10.2988 O.2     1  UNL1       -0.2174
     18 C         -27.9936   48.2544   -9.4141 C.3     1  UNL1        0.2039
     19 N         -29.1244   47.6218   -9.8262 N.3     1  UNL1       -0.2469
     20 H         -27.3038   45.4582   -8.9585 H       1  UNL1        0.1244
     21 C         -30.5806   44.8643   -8.0477 C.3     1  UNL1        0.0029
     22 C         -30.0249   45.2735   -9.4075 C.3     1  UNL1        0.0326
     23 C         -25.9463   51.3836   -9.0337 C.3     1  UNL1        0.3404
     24 C         -24.5149   51.5021   -9.5131 C.ar    1  UNL1        0.0640
     25 C         -23.4976   51.6671   -8.5561 C.ar    1  UNL1        0.0031
     26 C         -22.1696   51.8428   -8.9512 C.ar    1  UNL1       -0.0001
     27 C         -21.8381   51.8565  -10.3060 C.ar    1  UNL1        0.0007
     28 C         -22.8322   51.6854  -11.2706 C.ar    1  UNL1        0.0102
     29 C         -24.1694   51.5040  -10.8881 C.ar    1  UNL1        0.0710
     30 C         -25.1562   51.3214  -11.9254 C.1     1  UNL1        0.1003
     31 N         -25.9481   51.1781  -12.7572 N.1     1  UNL1       -0.1908
     32 C         -30.2416   46.0181  -16.0115 C.ar    1  UNL1        0.0030
     33 C         -30.4860   44.6540  -16.2566 C.ar    1  UNL1        0.0001
     34 C         -30.3594   44.1259  -17.5415 C.ar    1  UNL1        0.0000
     35 C         -29.9828   44.9483  -18.6007 C.ar    1  UNL1        0.0001
     36 C         -29.7440   46.3054  -18.3826 C.ar    1  UNL1        0.0031
     37 C         -29.8854   46.8650  -17.1000 C.ar    1  UNL1        0.0371
     38 C         -29.6614   48.3246  -16.9534 C.ar    1  UNL1        0.1806
     39 N         -28.5773   48.8668  -16.3659 N.ar    1  UNL1       -0.1084
     40 N         -28.7617   50.1772  -16.4430 N.ar    1  UNL1       -0.0229
     41 N         -29.9046   50.4368  -17.0590 N.ar    1  UNL1       -0.0464
     42 N         -30.4797   49.2965  -17.3936 N.ar    1  UNL1       -0.2388
     43 H         -31.3768   49.2099  -17.9187 H       1  UNL1        0.1923
     44 C         -31.1217   50.4480  -10.2246 C.2     1  UNL1        0.1526
     45 C         -31.5630   50.0402   -8.8498 C.3     1  UNL1        0.0723
     46 O         -31.5840   51.4684  -10.7140 O.2     1  UNL1       -0.2960
@<TRIPOS>BOND
     1    21    22    1
     2    22    10    1
     3    10    11    1
     4    11    12    1
     5    12    13    1
     6    13    14    1
     7    14    15    1
     8    15    23    1
     9    23    24    1
    10    24    25   ar
    11    25    26   ar
    12    26    27   ar
    13    27    28   ar
    14    28    29   ar
    15    29    30    1
    16    30    31    3
    17    15    16    1
    18    16    17    2
    19    16    18    1
    20    18    19    1
    21    19     1    1
    22     1     2    1
    23     2     3   ar
    24     3     4   ar
    25     4     5   ar
    26     5    32    1
    27    32    33   ar
    28    33    34   ar
    29    34    35   ar
    30    35    36   ar
    31    36    37   ar
    32    37    38    1
    33    38    39   ar
    34    39    40   ar
    35    40    41   ar
    36    41    42   ar
    37     5     6   ar
    38     6     7   ar
    39     7     8    1
    40     8     9    1
    41     9    44    1
    42    44    45    1
    43    44    46    2
    44    19    10    1
    45     9     1    1
    46    18    12    1
    47     7     2   ar
    48    29    24   ar
    49    37    32   ar
    50    42    38   ar
    51    42    43    1
    52    11    20    1
@<TRIPOS>MOLECULE
*****
 46 52 0 0 0
SMALL
GASTEIGER

@<TRIPOS>ATOM
      1 C         -27.1276   49.2895   -8.9829 C.3     1  UNL1        0.0886
      2 C         -27.1121   48.3863   -7.8088 C.ar    1  UNL1       -0.0113
      3 C         -27.8908   47.2434   -7.6233 C.ar    1  UNL1       -0.0033
      4 C         -27.7343   46.5052   -6.4440 C.ar    1  UNL1       -0.0003
      5 C         -26.8370   46.9393   -5.4415 C.ar    1  UNL1       -0.0002
      6 C         -26.0187   48.0629   -5.6869 C.ar    1  UNL1       -0.0045
      7 C         -26.1636   48.7576   -6.8894 C.ar    1  UNL1       -0.0244
      8 C         -25.4041   49.9607   -7.3180 C.3     1  UNL1        0.0351
      9 C         -26.1250   50.4180   -8.6139 C.3     1  UNL1        0.0808
     10 C         -29.1545   50.7596   -8.5698 C.3     1  UNL1        0.1159
     11 N         -30.3826   51.0441   -9.0691 N.3     1  UNL1       -0.2851
     12 C         -30.4885   50.2139  -10.1166 C.3     1  UNL1        0.0910
     13 C         -31.5836   50.0709  -10.9537 C.3     1  UNL1        0.1018
     14 C         -31.5140   49.0823  -11.9444 C.3     1  UNL1        0.3136
     15 N         -30.3969   48.2877  -12.0775 N.am    1  UNL1       -0.1293
     16 C         -29.2980   48.4801  -11.2663 C.2     1  UNL1        0.4047
     17 O         -28.2674   47.7786  -11.4235 O.2     1  UNL1       -0.2174
     18 C         -29.3638   49.4574  -10.2555 C.3     1  UNL1        0.2039
     19 N         -28.4854   49.7992   -9.2756 N.3     1  UNL1       -0.2469
     20 H         -30.4393   52.0179   -9.3673 H       1  UNL1        0.1244
     21 C         -29.2078   50.8833   -6.0761 C.3     1  UNL1        0.0029
     22 C         -28.6237   51.4715   -7.3560 C.3     1  UNL1        0.0326
     23 C         -30.4188   47.1897  -13.0615 C.3     1  UNL1        0.3404
     24 C         -30.1994   47.7018  -14.4694 C.ar    1  UNL1        0.0640
     25 C         -29.6450   48.9831  -14.6393 C.ar    1  UNL1        0.0031
     26 C         -29.4804   49.5245  -15.9161 C.ar    1  UNL1       -0.0001
     27 C         -29.8666   48.7957  -17.0409 C.ar    1  UNL1        0.0007
     28 C         -30.4105   47.5188  -16.8934 C.ar    1  UNL1        0.0102
     29 C         -30.5779   46.9610  -15.6174 C.ar    1  UNL1        0.0710
     30 C         -31.1355   45.6332  -15.5219 C.1     1  UNL1        0.1003
     31 N         -31.5831   44.5689  -15.4423 N.1     1  UNL1       -0.1908
     32 C         -26.7615   46.2320   -4.1393 C.ar    1  UNL1        0.0030
     33 C         -25.6807   45.3583   -3.9177 C.ar    1  UNL1        0.0001
     34 C         -25.5916   44.6180   -2.7389 C.ar    1  UNL1        0.0000
     35 C         -26.5806   44.7336   -1.7650 C.ar    1  UNL1        0.0001
     36 C         -27.6565   45.6003   -1.9594 C.ar    1  UNL1        0.0031
     37 C         -27.7573   46.3725   -3.1306 C.ar    1  UNL1        0.0371
     38 C         -28.9040   47.3073   -3.2464 C.ar    1  UNL1        0.1806
     39 N         -28.9938   48.4776   -2.5855 N.ar    1  UNL1       -0.1084
     40 N         -30.1518   49.0000   -2.9638 N.ar    1  UNL1       -0.0229
     41 N         -30.7498   48.1944   -3.8278 N.ar    1  UNL1       -0.0464
     42 N         -29.9864   47.1355   -4.0254 N.ar    1  UNL1       -0.2388
     43 H         -30.2027   46.3561   -4.6840 H       1  UNL1        0.1923
     44 C         -25.1512   50.6941   -9.7414 C.2     1  UNL1        0.1526
     45 C         -23.9075   51.5026   -9.5162 C.3     1  UNL1        0.0723
     46 O         -25.3789   50.2622  -10.8622 O.2     1  UNL1       -0.2960
@<TRIPOS>BOND
     1    21    22    1
     2    22    10    1
     3    10    11    1
     4    11    12    1
     5    12    13    1
     6    13    14    1
     7    14    15    1
     8    15    23    1
     9    23    24    1
    10    24    25   ar
    11    25    26   ar
    12    26    27   ar
    13    27    28   ar
    14    28    29   ar
    15    29    30    1
    16    30    31    3
    17    15    16    1
    18    16    17    2
    19    16    18    1
    20    18    19    1
    21    19     1    1
    22     1     2    1
    23     2     3   ar
    24     3     4   ar
    25     4     5   ar
    26     5    32    1
    27    32    33   ar
    28    33    34   ar
    29    34    35   ar
    30    35    36   ar
    31    36    37   ar
    32    37    38    1
    33    38    39   ar
    34    39    40   ar
    35    40    41   ar
    36    41    42   ar
    37     5     6   ar
    38     6     7   ar
    39     7     8    1
    40     8     9    1
    41     9    44    1
    42    44    45    1
    43    44    46    2
    44    19    10    1
    45     9     1    1
    46    18    12    1
    47     7     2   ar
    48    29    24   ar
    49    37    32   ar
    50    42    38   ar
    51    42    43    1
    52    11    20    1
@<TRIPOS>MOLECULE
*****
 46 52 0 0 0
SMALL
GASTEIGER

@<TRIPOS>ATOM
      1 C         -30.4079   49.3947  -10.1362 C.3     1  UNL1        0.0886
      2 C         -30.6444   49.4165   -8.6740 C.ar    1  UNL1       -0.0113
      3 C         -30.8251   50.5451   -7.8734 C.ar    1  UNL1       -0.0033
      4 C         -31.0445   50.3703   -6.5018 C.ar    1  UNL1       -0.0003
      5 C         -31.0354   49.0753   -5.9346 C.ar    1  UNL1       -0.0002
      6 C         -30.9135   47.9520   -6.7805 C.ar    1  UNL1       -0.0045
      7 C         -30.7384   48.1513   -8.1513 C.ar    1  UNL1       -0.0244
      8 C         -30.5827   47.0999   -9.1897 C.3     1  UNL1        0.0351
      9 C         -30.2092   47.8905  -10.4718 C.3     1  UNL1        0.0808
     10 C         -29.1829   51.0585  -11.6098 C.3     1  UNL1        0.1159
     11 N         -28.0020   51.7156  -11.7192 N.3     1  UNL1       -0.2851
     12 C         -27.2995   51.2622  -10.6710 C.3     1  UNL1        0.0910
     13 C         -25.9933   51.5900  -10.3441 C.3     1  UNL1        0.1018
     14 C         -25.4197   50.9367   -9.2451 C.3     1  UNL1        0.3136
     15 N         -26.1320   50.0070   -8.5204 N.am    1  UNL1       -0.1293
     16 C         -27.4474   49.7322   -8.8319 C.2     1  UNL1        0.4047
     17 O         -28.1021   48.9140   -8.1386 O.2     1  UNL1       -0.2174
     18 C         -28.0279   50.3683   -9.9452 C.3     1  UNL1        0.2039
     19 N         -29.2496   50.2290  -10.5255 N.3     1  UNL1       -0.2469
     20 H         -28.1382   52.7247  -11.6590 H       1  UNL1        0.1244
     21 C         -31.0120   52.5847  -12.3590 C.3     1  UNL1        0.0029
     22 C         -30.2858   51.2677  -12.6106 C.3     1  UNL1        0.0326
     23 C         -25.4466   49.2677   -7.4443 C.3     1  UNL1        0.3404
     24 C         -26.2400   49.3019   -6.1551 C.ar    1  UNL1        0.0640
     25 C         -26.8599   50.5072   -5.7796 C.ar    1  UNL1        0.0031
     26 C         -27.5507   50.6063   -4.5699 C.ar    1  UNL1       -0.0001
     27 C         -27.6327   49.5050   -3.7180 C.ar    1  UNL1        0.0007
     28 C         -27.0317   48.2974   -4.0770 C.ar    1  UNL1        0.0102
     29 C         -26.3382   48.1824   -5.2908 C.ar    1  UNL1        0.0710
     30 C         -25.7441   46.9083   -5.6181 C.1     1  UNL1        0.1003
     31 N         -25.2671   45.8863   -5.8775 N.1     1  UNL1       -0.1908
     32 C         -31.1404   48.8947   -4.4656 C.ar    1  UNL1        0.0030
     33 C         -31.5274   49.9997   -3.6847 C.ar    1  UNL1        0.0001
     34 C         -31.5811   49.9069   -2.2939 C.ar    1  UNL1        0.0000
     35 C         -31.2454   48.7130   -1.6600 C.ar    1  UNL1        0.0001
     36 C         -30.8674   47.6020   -2.4146 C.ar    1  UNL1        0.0031
     37 C         -30.8258   47.6651   -3.8190 C.ar    1  UNL1        0.0371
     38 C         -30.4608   46.4301   -4.5565 C.ar    1  UNL1        0.1806
     39 N         -29.2401   46.1929   -5.0743 N.ar    1  UNL1       -0.1084
     40 N         -29.3311   44.9973   -5.6395 N.ar    1  UNL1       -0.0229
     41 N         -30.5508   44.5104   -5.4721 N.ar    1  UNL1       -0.0464
     42 N         -31.2712   45.3835   -4.7924 N.ar    1  UNL1       -0.2388
     43 H         -32.2603   45.2401   -4.4938 H       1  UNL1        0.1923
     44 C         -31.0408   47.4673  -11.6656 C.2     1  UNL1        0.1526
     45 C         -31.5818   46.0728  -11.7832 C.3     1  UNL1        0.0723
     46 O         -31.2731   48.2674  -12.5602 O.2     1  UNL1       -0.2960
@<TRIPOS>BOND
     1    21    22    1
     2    22    10    1
     3    10    11    1
     4    11    12    1
     5    12    13    1
     6    13    14    1
     7    14    15    1
     8    15    23    1
     9    23    24    1
    10    24    25   ar
    11    25    26   ar
    12    26    27   ar
    13    27    28   ar
    14    28    29   ar
    15    29    30    1
    16    30    31    3
    17    15    16    1
    18    16    17    2
    19    16    18    1
    20    18    19    1
    21    19     1    1
    22     1     2    1
    23     2     3   ar
    24     3     4   ar
    25     4     5   ar
    26     5    32    1
    27    32    33   ar
    28    33    34   ar
    29    34    35   ar
    30    35    36   ar
    31    36    37   ar
    32    37    38    1
    33    38    39   ar
    34    39    40   ar
    35    40    41   ar
    36    41    42   ar
    37     5     6   ar
    38     6     7   ar
    39     7     8    1
    40     8     9    1
    41     9    44    1
    42    44    45    1
    43    44    46    2
    44    19    10    1
    45     9     1    1
    46    18    12    1
    47     7     2   ar
    48    29    24   ar
    49    37    32   ar
    50    42    38   ar
    51    42    43    1
    52    11    20    1
@<TRIPOS>MOLECULE
*****
 46 52 0 0 0
SMALL
GASTEIGER

@<TRIPOS>ATOM
      1 C         -28.3140   47.9296   -7.4367 C.3     1  UNL1        0.0886
      2 C         -27.1549   48.7759   -7.8042 C.ar    1  UNL1       -0.0113
      3 C         -26.3218   49.4769   -6.9314 C.ar    1  UNL1       -0.0033
      4 C         -25.2647   50.2248   -7.4635 C.ar    1  UNL1       -0.0003
      5 C         -25.0767   50.3039   -8.8625 C.ar    1  UNL1       -0.0002
      6 C         -25.8969   49.5328   -9.7139 C.ar    1  UNL1       -0.0045
      7 C         -26.9179   48.7611   -9.1557 C.ar    1  UNL1       -0.0244
      8 C         -27.8818   47.8987   -9.8873 C.3     1  UNL1        0.0351
      9 C         -28.9013   47.4683   -8.7994 C.3     1  UNL1        0.0808
     10 C         -30.1411   49.6443   -7.0345 C.3     1  UNL1        0.1159
     11 N         -30.9461   50.1330   -6.0591 N.3     1  UNL1       -0.2851
     12 C         -30.5728   49.4374   -4.9752 C.3     1  UNL1        0.0910
     13 C         -31.0616   49.5848   -3.6868 C.3     1  UNL1        0.1018
     14 C         -30.4730   48.8073   -2.6804 C.3     1  UNL1        0.3136
     15 N         -29.4497   47.9310   -2.9670 N.am    1  UNL1       -0.1293
     16 C         -29.0122   47.7630   -4.2643 C.2     1  UNL1        0.4047
     17 O         -28.1074   46.9300   -4.5218 O.2     1  UNL1       -0.2174
     18 C         -29.5831   48.5522   -5.2803 C.3     1  UNL1        0.2039
     19 N         -29.2954   48.6601   -6.6048 N.3     1  UNL1       -0.2469
     20 H         -31.9283   49.9680   -6.2789 H       1  UNL1        0.1244
     21 C         -31.5833   49.8734   -9.0603 C.3     1  UNL1        0.0029
     22 C         -30.2200   50.1658   -8.4429 C.3     1  UNL1        0.0326
     23 C         -28.7905   47.2203   -1.8559 C.3     1  UNL1        0.3404
     24 C         -27.5567   46.4789   -2.3256 C.ar    1  UNL1        0.0640
     25 C         -27.6405   45.0878   -2.5151 C.ar    1  UNL1        0.0031
     26 C         -26.5145   44.3505   -2.8878 C.ar    1  UNL1       -0.0001
     27 C         -25.2895   44.9902   -3.0763 C.ar    1  UNL1        0.0007
     28 C         -25.1880   46.3713   -2.9017 C.ar    1  UNL1        0.0102
     29 C         -26.3116   47.1249   -2.5315 C.ar    1  UNL1        0.0710
     30 C         -26.1540   48.5510   -2.3743 C.1     1  UNL1        0.1003
     31 N         -26.0254   49.6940   -2.2461 N.1     1  UNL1       -0.1908
     32 C         -24.0379   51.1955   -9.4346 C.ar    1  UNL1        0.0030
     33 C         -22.8654   51.4166   -8.6882 C.ar    1  UNL1        0.0001
     34 C         -21.8830   52.2948   -9.1458 C.ar    1  UNL1        0.0000
     35 C         -22.0563   52.9697  -10.3519 C.ar    1  UNL1        0.0001
     36 C         -23.2067   52.7593  -11.1127 C.ar    1  UNL1        0.0031
     37 C         -24.2015   51.8630  -10.6822 C.ar    1  UNL1        0.0371
     38 C         -25.3746   51.6545  -11.5668 C.ar    1  UNL1        0.1806
     39 N         -25.2894   51.2825  -12.8586 N.ar    1  UNL1       -0.1084
     40 N         -26.5440   51.2063  -13.2796 N.ar    1  UNL1       -0.0229
     41 N         -27.3711   51.5085  -12.2909 N.ar    1  UNL1       -0.0464
     42 N         -26.6645   51.7840  -11.2102 N.ar    1  UNL1       -0.2388
     43 H         -27.0658   52.0233  -10.2775 H       1  UNL1        0.1923
     44 C         -29.1630   45.9760   -8.8213 C.2     1  UNL1        0.1526
     45 C         -29.6849   45.2588   -7.6112 C.3     1  UNL1        0.0723
     46 O         -28.9386   45.3333   -9.8367 O.2     1  UNL1       -0.2960
@<TRIPOS>BOND
     1    21    22    1
     2    22    10    1
     3    10    11    1
     4    11    12    1
     5    12    13    1
     6    13    14    1
     7    14    15    1
     8    15    23    1
     9    23    24    1
    10    24    25   ar
    11    25    26   ar
    12    26    27   ar
    13    27    28   ar
    14    28    29   ar
    15    29    30    1
    16    30    31    3
    17    15    16    1
    18    16    17    2
    19    16    18    1
    20    18    19    1
    21    19     1    1
    22     1     2    1
    23     2     3   ar
    24     3     4   ar
    25     4     5   ar
    26     5    32    1
    27    32    33   ar
    28    33    34   ar
    29    34    35   ar
    30    35    36   ar
    31    36    37   ar
    32    37    38    1
    33    38    39   ar
    34    39    40   ar
    35    40    41   ar
    36    41    42   ar
    37     5     6   ar
    38     6     7   ar
    39     7     8    1
    40     8     9    1
    41     9    44    1
    42    44    45    1
    43    44    46    2
    44    19    10    1
    45     9     1    1
    46    18    12    1
    47     7     2   ar
    48    29    24   ar
    49    37    32   ar
    50    42    38   ar
    51    42    43    1
    52    11    20    1
