@<TRIPOS>MOLECULE
*****
 51 56 0 0 0
SMALL
GASTEIGER

@<TRIPOS>ATOM
      1 C          65.3015   91.0168   13.2277 C.3     1  UNL1        0.1535
      2 O          63.7416   91.1402   10.8278 O.2     1  UNL1       -0.2701
      3 C          63.3934   90.3031   11.7046 C.2     1  UNL1        0.2483
      4 N          64.0426   90.2994   12.9864 N.am    1  UNL1       -0.2945
      5 H          63.5751   89.7926   13.7715 H       1  UNL1        0.1501
      6 C          62.2921   89.3595   11.4076 C.ar    1  UNL1        0.0808
      7 C          62.2182   88.7555   10.1414 C.ar    1  UNL1        0.0080
      8 C          61.1860   87.8641    9.8379 C.ar    1  UNL1        0.0148
      9 C          60.2162   87.5455   10.8003 C.ar    1  UNL1        0.0502
     10 C          60.2940   88.1385   12.0703 C.ar    1  UNL1        0.0443
     11 C          61.3240   89.0330   12.3773 C.ar    1  UNL1        0.1457
     12 F          61.3935   89.5404   13.6342 F       1  UNL1       -0.2040
     13 N          59.1453   86.6357   10.4839 N.pl3   1  UNL1       -0.3040
     14 C          58.2808   86.1291   11.5625 C.3     1  UNL1        0.1122
     15 C          57.3759   84.9950   11.0672 C.3     1  UNL1        0.1122
     16 N          58.1479   84.0803   10.2140 N.pl3   1  UNL1       -0.3040
     17 C          58.9383   84.6203    9.0953 C.3     1  UNL1        0.1122
     18 C          58.9520   86.1531    9.1089 C.3     1  UNL1        0.1122
     19 C          58.1985   82.6704   10.5046 C.ar    1  UNL1        0.0488
     20 C          57.8782   81.7281    9.5134 C.ar    1  UNL1        0.0154
     21 C          57.9136   80.3612    9.7995 C.ar    1  UNL1        0.0135
     22 C          58.2648   79.9165   11.0781 C.ar    1  UNL1        0.0683
     23 CL         58.2976   78.1880   11.4000 Cl      1  UNL1       -0.0814
     24 C          58.5807   80.8507   12.0785 C.ar    1  UNL1        0.0694
     25 CL         59.0274   80.3341   13.6990 Cl      1  UNL1       -0.0813
     26 C          58.5437   82.2201   11.7899 C.ar    1  UNL1        0.0268
     27 C          65.5027   92.1125   12.2033 C.2     1  UNL1        0.2443
     28 O          65.0572   93.2708   12.4273 O.2     1  UNL1       -0.2730
     29 N          66.2330   91.8315   10.9962 N.am    1  UNL1       -0.2825
     30 H          66.3685   90.8279   10.7374 H       1  UNL1        0.1549
     31 C          66.7527   92.8242   10.0920 C.ar    1  UNL1        0.0535
     32 C          68.0824   92.7229    9.6583 C.ar    1  UNL1        0.0353
     33 C          68.6137   93.7003    8.8137 C.ar    1  UNL1        0.1002
     34 N          67.8498   94.7549    8.4262 N.ar    1  UNL1       -0.2422
     35 C          66.5634   94.8917    8.8421 C.ar    1  UNL1        0.1002
     36 C          65.9921   93.9348    9.6843 C.ar    1  UNL1        0.0353
     37 C          65.3115   91.5932   14.6573 C.3     1  UNL1        0.0570
     38 C          64.3912   90.8309   15.5795 C.ar    1  UNL1        0.0033
     39 CA         63.5689   91.3337   16.6001 C.ar    1  UNL1        0.1292
     40 N          62.7803   90.3502   17.0971 N.ar    1  UNL1       -0.3483
     41 C          63.0845   89.2400   16.4065 C.ar    1  UNL1        0.0564
     42 C          62.5050   87.9793   16.5439 C.ar    1  UNL1        0.0170
     43 C          62.9528   86.9527   15.6939 C.ar    1  UNL1        0.0015
     44 C          63.9582   87.2062   14.7363 C.ar    1  UNL1        0.0001
     45 C          64.5231   88.4888   14.6185 C.ar    1  UNL1        0.0012
     46 C          64.0594   89.4898   15.4755 C.ar    1  UNL1        0.0133
     47 H          62.0663   90.4358   17.8548 H       1  UNL1        0.1661
     48 C          63.5105   92.7222   17.0958 C.2     1  UNL1        0.3536
     49 O          62.4577   93.3965   16.9380 O.2     1  UNL1       -0.2435
     50 OXT        64.5953   93.2958   17.7489 O.3     1  UNL1       -0.4761
     51 HXT        64.5534   94.2484   18.0907 H       1  UNL1        0.2955
@<TRIPOS>BOND
     1     2     3    2
     2     3     4   am
     3     4     1    1
     4     1    37    1
     5    37    38    1
     6    38    39   ar
     7    39    48    1
     8    48    49    2
     9    48    50    1
    10    39    40   ar
    11    40    41   ar
    12    41    42   ar
    13    42    43   ar
    14    43    44   ar
    15    44    45   ar
    16    45    46   ar
    17     1    27    1
    18    27    28    2
    19    27    29   am
    20    29    31    1
    21    31    32   ar
    22    32    33   ar
    23    33    34   ar
    24    34    35   ar
    25    35    36   ar
    26     3     6    1
    27     6     7   ar
    28     7     8   ar
    29     8     9   ar
    30     9    13    1
    31    13    14    1
    32    14    15    1
    33    15    16    1
    34    16    19    1
    35    19    20   ar
    36    20    21   ar
    37    21    22   ar
    38    22    23    1
    39    22    24   ar
    40    24    25    1
    41    24    26   ar
    42    16    17    1
    43    17    18    1
    44     9    10   ar
    45    10    11   ar
    46    11    12    1
    47    46    38   ar
    48    36    31   ar
    49    11     6   ar
    50    46    41   ar
    51    18    13    1
    52    26    19   ar
    53     4     5    1
    54    50    51    1
    55    40    47    1
    56    29    30    1
@<TRIPOS>MOLECULE
*****
 51 56 0 0 0
SMALL
GASTEIGER

@<TRIPOS>ATOM
      1 C          61.6943   82.2344    9.3581 C.3     1  UNL1        0.1535
      2 O          63.4807   82.8838   11.5017 O.2     1  UNL1       -0.2701
      3 C          62.6773   83.7795   11.1234 C.2     1  UNL1        0.2483
      4 N          61.6597   83.4653   10.1590 N.am    1  UNL1       -0.2945
      5 H          60.8578   84.1275   10.0587 H       1  UNL1        0.1501
      6 C          62.7758   85.1350   11.7102 C.ar    1  UNL1        0.0808
      7 C          62.2941   86.2401   10.9889 C.ar    1  UNL1        0.0080
      8 C          62.3793   87.5289   11.5216 C.ar    1  UNL1        0.0148
      9 C          62.9328   87.7369   12.7939 C.ar    1  UNL1        0.0502
     10 C          63.4045   86.6331   13.5220 C.ar    1  UNL1        0.0443
     11 C          63.3232   85.3419   12.9914 C.ar    1  UNL1        0.1457
     12 F          63.7399   84.2977   13.7515 F       1  UNL1       -0.2040
     13 N          63.0317   89.0667   13.3384 N.pl3   1  UNL1       -0.3040
     14 C          63.5152   90.1657   12.4865 C.3     1  UNL1        0.1122
     15 C          63.7853   91.4319   13.3075 C.3     1  UNL1        0.1122
     16 N          64.4715   91.0761   14.5577 N.pl3   1  UNL1       -0.3040
     17 C          63.9116   90.0240   15.4222 C.3     1  UNL1        0.1122
     18 C          62.7238   89.3235   14.7526 C.3     1  UNL1        0.1122
     19 C          65.7244   91.6934   14.9101 C.ar    1  UNL1        0.0488
     20 C          65.8260   92.4877   16.0642 C.ar    1  UNL1        0.0154
     21 C          67.0375   93.0978   16.3981 C.ar    1  UNL1        0.0135
     22 C          68.1618   92.9272   15.5840 C.ar    1  UNL1        0.0683
     23 CL         69.6690   93.7116   16.0371 Cl      1  UNL1       -0.0814
     24 C          68.0694   92.1401   14.4242 C.ar    1  UNL1        0.0694
     25 CL         69.4586   91.8998   13.3732 Cl      1  UNL1       -0.0813
     26 C          66.8540   91.5303   14.0909 C.ar    1  UNL1        0.0268
     27 C          61.0494   81.0868   10.1048 C.2     1  UNL1        0.2443
     28 O          61.4748   79.9113    9.9380 O.2     1  UNL1       -0.2730
     29 N          59.9779   81.3519   11.0272 N.am    1  UNL1       -0.2825
     30 H          59.4991   82.2783   10.9566 H       1  UNL1        0.1549
     31 C          59.4823   80.4241   12.0104 C.ar    1  UNL1        0.0535
     32 C          59.6240   80.7312   13.3713 C.ar    1  UNL1        0.0353
     33 C          59.1853   79.8230   14.3376 C.ar    1  UNL1        0.1002
     34 N          58.6376   78.6382   13.9606 N.ar    1  UNL1       -0.2422
     35 C          58.5015   78.3026   12.6509 C.ar    1  UNL1        0.1002
     36 C          58.9238   79.1838   11.6526 C.ar    1  UNL1        0.0353
     37 C          60.9965   82.4694    8.0039 C.3     1  UNL1        0.0570
     38 C          59.8867   83.4870    8.1101 C.ar    1  UNL1        0.0033
     39 CA         58.5337   83.2711    8.4159 C.ar    1  UNL1        0.1292
     40 N          57.8903   84.4543    8.5664 N.ar    1  UNL1       -0.3483
     41 C          58.8114   85.4104    8.3679 C.ar    1  UNL1        0.0564
     42 C          58.6231   86.7894    8.4516 C.ar    1  UNL1        0.0170
     43 C          59.7365   87.6203    8.2350 C.ar    1  UNL1        0.0015
     44 C          60.9989   87.0607    7.9433 C.ar    1  UNL1        0.0001
     45 C          61.1599   85.6656    7.8677 C.ar    1  UNL1        0.0012
     46 C          60.0371   84.8640    8.0873 C.ar    1  UNL1        0.0133
     47 H          56.8835   84.5997    8.8043 H       1  UNL1        0.1661
     48 C          57.8523   81.9727    8.5799 C.2     1  UNL1        0.3536
     49 O          57.5527   81.5676    9.7349 O.2     1  UNL1       -0.2435
     50 OXT        57.5213   81.1933    7.4775 O.3     1  UNL1       -0.4761
     51 HXT        57.0516   80.3030    7.5911 H       1  UNL1        0.2955
@<TRIPOS>BOND
     1     2     3    2
     2     3     4   am
     3     4     1    1
     4     1    37    1
     5    37    38    1
     6    38    39   ar
     7    39    48    1
     8    48    49    2
     9    48    50    1
    10    39    40   ar
    11    40    41   ar
    12    41    42   ar
    13    42    43   ar
    14    43    44   ar
    15    44    45   ar
    16    45    46   ar
    17     1    27    1
    18    27    28    2
    19    27    29   am
    20    29    31    1
    21    31    32   ar
    22    32    33   ar
    23    33    34   ar
    24    34    35   ar
    25    35    36   ar
    26     3     6    1
    27     6     7   ar
    28     7     8   ar
    29     8     9   ar
    30     9    13    1
    31    13    14    1
    32    14    15    1
    33    15    16    1
    34    16    19    1
    35    19    20   ar
    36    20    21   ar
    37    21    22   ar
    38    22    23    1
    39    22    24   ar
    40    24    25    1
    41    24    26   ar
    42    16    17    1
    43    17    18    1
    44     9    10   ar
    45    10    11   ar
    46    11    12    1
    47    46    38   ar
    48    36    31   ar
    49    11     6   ar
    50    46    41   ar
    51    18    13    1
    52    26    19   ar
    53     4     5    1
    54    50    51    1
    55    40    47    1
    56    29    30    1
@<TRIPOS>MOLECULE
*****
 51 56 0 0 0
SMALL
GASTEIGER

@<TRIPOS>ATOM
      1 C          65.0291   90.4996   14.5971 C.3     1  UNL1        0.1535
      2 O          64.3381   88.1328   16.0562 O.2     1  UNL1       -0.2701
      3 C          64.4687   88.0274   14.8062 C.2     1  UNL1        0.2483
      4 N          64.9596   89.1411   14.0427 N.am    1  UNL1       -0.2945
      5 H          65.3056   88.9573   13.0741 H       1  UNL1        0.1501
      6 C          64.1463   86.7397   14.1508 C.ar    1  UNL1        0.0808
      7 C          63.0996   86.6798   13.2157 C.ar    1  UNL1        0.0080
      8 C          62.7757   85.4748   12.5871 C.ar    1  UNL1        0.0148
      9 C          63.5031   84.3085   12.8683 C.ar    1  UNL1        0.0502
     10 C          64.5572   84.3678   13.7937 C.ar    1  UNL1        0.0443
     11 C          64.8830   85.5713   14.4268 C.ar    1  UNL1        0.1457
     12 F          65.9442   85.5963   15.2724 F       1  UNL1       -0.2040
     13 N          63.1619   83.0636   12.2293 N.pl3   1  UNL1       -0.3040
     14 C          63.6534   82.7871   10.8694 C.3     1  UNL1        0.1122
     15 C          62.9839   81.5425   10.2754 C.3     1  UNL1        0.1122
     16 N          61.5457   81.5598   10.5788 N.pl3   1  UNL1       -0.3040
     17 C          61.0962   81.7610   11.9663 C.3     1  UNL1        0.1122
     18 C          62.2709   82.0998   12.8911 C.3     1  UNL1        0.1122
     19 C          60.5704   81.4556    9.5238 C.ar    1  UNL1        0.0488
     20 C          60.7137   80.4877    8.5161 C.ar    1  UNL1        0.0154
     21 C          59.7754   80.3961    7.4852 C.ar    1  UNL1        0.0135
     22 C          58.6847   81.2706    7.4436 C.ar    1  UNL1        0.0683
     23 CL         57.5250   81.1247    6.1299 Cl      1  UNL1       -0.0814
     24 C          58.5355   82.2465    8.4430 C.ar    1  UNL1        0.0694
     25 CL         57.1791   83.3656    8.4283 Cl      1  UNL1       -0.0813
     26 C          59.4775   82.3371    9.4747 C.ar    1  UNL1        0.0268
     27 C          66.0608   91.3292   13.8637 C.2     1  UNL1        0.2443
     28 O          67.2662   91.3024   14.2336 O.2     1  UNL1       -0.2730
     29 N          65.6629   92.1152   12.7265 N.am    1  UNL1       -0.2825
     30 H          64.6421   92.3034   12.6040 H       1  UNL1        0.1549
     31 C          66.5636   92.7020   11.7687 C.ar    1  UNL1        0.0535
     32 C          66.3476   94.0222   11.3483 C.ar    1  UNL1        0.0353
     33 C          67.1881   94.5920   10.3892 C.ar    1  UNL1        0.1002
     34 N          68.2023   93.8642    9.8529 N.ar    1  UNL1       -0.2422
     35 C          68.4282   92.5772   10.2258 C.ar    1  UNL1        0.1002
     36 C          67.6134   91.9705   11.1847 C.ar    1  UNL1        0.0353
     37 C          63.6406   91.1656   14.5302 C.3     1  UNL1        0.0570
     38 C          62.6785   90.3796   13.6728 C.ar    1  UNL1        0.0033
     39 CA         61.6162   89.5591   14.0839 C.ar    1  UNL1        0.1292
     40 N          60.8933   89.1524   13.0122 N.ar    1  UNL1       -0.3483
     41 C          61.4747   89.7047   11.9357 C.ar    1  UNL1        0.0564
     42 C          61.0617   89.5955   10.6084 C.ar    1  UNL1        0.0170
     43 C          61.8011   90.2835    9.6302 C.ar    1  UNL1        0.0015
     44 C          62.9237   91.0567    9.9961 C.ar    1  UNL1        0.0001
     45 C          63.3157   91.1506   11.3435 C.ar    1  UNL1        0.0012
     46 C          62.5632   90.4571   12.2944 C.ar    1  UNL1        0.0133
     47 H          60.0442   88.5439   13.0176 H       1  UNL1        0.1661
     48 C          61.2716   89.1710   15.4650 C.2     1  UNL1        0.3536
     49 O          60.2363   88.4856   15.6800 O.2     1  UNL1       -0.2435
     50 OXT        62.0802   89.5373   16.5348 O.3     1  UNL1       -0.4761
     51 HXT        61.8439   89.2685   17.4824 H       1  UNL1        0.2955
@<TRIPOS>BOND
     1     2     3    2
     2     3     4   am
     3     4     1    1
     4     1    37    1
     5    37    38    1
     6    38    39   ar
     7    39    48    1
     8    48    49    2
     9    48    50    1
    10    39    40   ar
    11    40    41   ar
    12    41    42   ar
    13    42    43   ar
    14    43    44   ar
    15    44    45   ar
    16    45    46   ar
    17     1    27    1
    18    27    28    2
    19    27    29   am
    20    29    31    1
    21    31    32   ar
    22    32    33   ar
    23    33    34   ar
    24    34    35   ar
    25    35    36   ar
    26     3     6    1
    27     6     7   ar
    28     7     8   ar
    29     8     9   ar
    30     9    13    1
    31    13    14    1
    32    14    15    1
    33    15    16    1
    34    16    19    1
    35    19    20   ar
    36    20    21   ar
    37    21    22   ar
    38    22    23    1
    39    22    24   ar
    40    24    25    1
    41    24    26   ar
    42    16    17    1
    43    17    18    1
    44     9    10   ar
    45    10    11   ar
    46    11    12    1
    47    46    38   ar
    48    36    31   ar
    49    11     6   ar
    50    46    41   ar
    51    18    13    1
    52    26    19   ar
    53     4     5    1
    54    50    51    1
    55    40    47    1
    56    29    30    1
@<TRIPOS>MOLECULE
*****
 51 56 0 0 0
SMALL
GASTEIGER

@<TRIPOS>ATOM
      1 C          61.0302   82.8363    9.5468 C.3     1  UNL1        0.1535
      2 O          62.4180   85.1000    8.4708 O.2     1  UNL1       -0.2701
      3 C          62.1150   85.1322    9.6947 C.2     1  UNL1        0.2483
      4 N          61.5550   83.9677   10.3229 N.am    1  UNL1       -0.2945
      5 H          61.5580   83.9242   11.3669 H       1  UNL1        0.1501
      6 C          62.3770   86.3639   10.4731 C.ar    1  UNL1        0.0808
      7 C          62.1914   87.6189    9.8696 C.ar    1  UNL1        0.0080
      8 C          62.4354   88.7945   10.5842 C.ar    1  UNL1        0.0148
      9 C          62.8538   88.7392   11.9221 C.ar    1  UNL1        0.0502
     10 C          63.0289   87.4866   12.5314 C.ar    1  UNL1        0.0443
     11 C          62.7881   86.3076   11.8192 C.ar    1  UNL1        0.1457
     12 F          62.9161   85.1197   12.4628 F       1  UNL1       -0.2040
     13 N          63.1168   89.9507   12.6553 N.pl3   1  UNL1       -0.3040
     14 C          63.8291   91.0578   11.9962 C.3     1  UNL1        0.1122
     15 C          64.2298   92.1424   13.0029 C.3     1  UNL1        0.1122
     16 N          64.7550   91.5163   14.2246 N.pl3   1  UNL1       -0.3040
     17 C          63.9738   90.4661   14.8987 C.3     1  UNL1        0.1122
     18 C          62.7459   90.0656   14.0730 C.3     1  UNL1        0.1122
     19 C          66.0583   91.8667   14.7285 C.ar    1  UNL1        0.0488
     20 C          66.2000   92.4131   16.0147 C.ar    1  UNL1        0.0154
     21 C          67.4625   92.7659   16.4977 C.ar    1  UNL1        0.0135
     22 C          68.5989   92.5822   15.7035 C.ar    1  UNL1        0.0683
     23 CL         70.1707   93.0389   16.3461 Cl      1  UNL1       -0.0814
     24 C          68.4674   92.0424   14.4132 C.ar    1  UNL1        0.0694
     25 CL         69.8702   91.7951   13.3819 Cl      1  UNL1       -0.0813
     26 C          67.2012   91.6904   13.9308 C.ar    1  UNL1        0.0268
     27 C          60.8986   81.6027   10.4135 C.2     1  UNL1        0.2443
     28 O          61.9334   81.0250   10.8446 O.2     1  UNL1       -0.2730
     29 N          59.5908   81.1196   10.7682 N.am    1  UNL1       -0.2825
     30 H          58.7804   81.4654   10.2061 H       1  UNL1        0.1549
     31 C          59.3149   80.1617   11.8072 C.ar    1  UNL1        0.0535
     32 C          58.7894   78.9091   11.4587 C.ar    1  UNL1        0.0353
     33 C          58.4781   77.9842   12.4580 C.ar    1  UNL1        0.1002
     34 N          58.6685   78.3029   13.7650 N.ar    1  UNL1       -0.2422
     35 C          59.1598   79.5139   14.1372 C.ar    1  UNL1        0.1002
     36 C          59.4876   80.4663   13.1694 C.ar    1  UNL1        0.0353
     37 C          59.6737   83.2141    8.9198 C.3     1  UNL1        0.0570
     38 C          59.0678   84.4307    9.5764 C.ar    1  UNL1        0.0033
     39 CA         58.7871   85.6809    9.0029 C.ar    1  UNL1        0.1292
     40 N          58.1043   86.4580    9.8783 N.ar    1  UNL1       -0.3483
     41 C          57.9438   85.7209   10.9887 C.ar    1  UNL1        0.0564
     42 C          57.2707   86.0899   12.1527 C.ar    1  UNL1        0.0170
     43 C          57.1934   85.1492   13.1948 C.ar    1  UNL1        0.0015
     44 C          57.7835   83.8751   13.0518 C.ar    1  UNL1        0.0001
     45 C          58.4542   83.5294   11.8649 C.ar    1  UNL1        0.0012
     46 C          58.5158   84.4831   10.8460 C.ar    1  UNL1        0.0133
     47 H          57.7564   87.4304    9.7211 H       1  UNL1        0.1661
     48 C          59.1407   86.1394    7.6458 C.2     1  UNL1        0.3536
     49 O          58.5798   87.1613    7.1673 O.2     1  UNL1       -0.2435
     50 OXT        60.0955   85.4695    6.8896 O.3     1  UNL1       -0.4761
     51 HXT        60.3391   85.7863    5.9588 H       1  UNL1        0.2955
@<TRIPOS>BOND
     1     2     3    2
     2     3     4   am
     3     4     1    1
     4     1    37    1
     5    37    38    1
     6    38    39   ar
     7    39    48    1
     8    48    49    2
     9    48    50    1
    10    39    40   ar
    11    40    41   ar
    12    41    42   ar
    13    42    43   ar
    14    43    44   ar
    15    44    45   ar
    16    45    46   ar
    17     1    27    1
    18    27    28    2
    19    27    29   am
    20    29    31    1
    21    31    32   ar
    22    32    33   ar
    23    33    34   ar
    24    34    35   ar
    25    35    36   ar
    26     3     6    1
    27     6     7   ar
    28     7     8   ar
    29     8     9   ar
    30     9    13    1
    31    13    14    1
    32    14    15    1
    33    15    16    1
    34    16    19    1
    35    19    20   ar
    36    20    21   ar
    37    21    22   ar
    38    22    23    1
    39    22    24   ar
    40    24    25    1
    41    24    26   ar
    42    16    17    1
    43    17    18    1
    44     9    10   ar
    45    10    11   ar
    46    11    12    1
    47    46    38   ar
    48    36    31   ar
    49    11     6   ar
    50    46    41   ar
    51    18    13    1
    52    26    19   ar
    53     4     5    1
    54    50    51    1
    55    40    47    1
    56    29    30    1
@<TRIPOS>MOLECULE
*****
 51 56 0 0 0
SMALL
GASTEIGER

@<TRIPOS>ATOM
      1 C          64.7148   91.2552   12.9385 C.3     1  UNL1        0.1535
      2 O          63.6985   90.9607   10.2760 O.2     1  UNL1       -0.2701
      3 C          63.1889   90.2383   11.1756 C.2     1  UNL1        0.2483
      4 N          63.5508   90.4476   12.5503 N.am    1  UNL1       -0.2945
      5 H          62.9375   90.0329   13.2875 H       1  UNL1        0.1501
      6 C          62.1954   89.2073   10.7998 C.ar    1  UNL1        0.0808
      7 C          61.1974   89.5151    9.8602 C.ar    1  UNL1        0.0080
      8 C          60.2475   88.5587    9.4926 C.ar    1  UNL1        0.0148
      9 C          60.2864   87.2696   10.0447 C.ar    1  UNL1        0.0502
     10 C          61.2896   86.9554   10.9752 C.ar    1  UNL1        0.0443
     11 C          62.2407   87.9104   11.3476 C.ar    1  UNL1        0.1457
     12 F          63.2259   87.5480   12.2078 F       1  UNL1       -0.2040
     13 N          59.3002   86.2871    9.6750 N.pl3   1  UNL1       -0.3040
     14 C          58.2374   85.9307   10.6293 C.3     1  UNL1        0.1122
     15 C          57.4495   84.7038   10.1558 C.3     1  UNL1        0.1122
     16 N          58.3763   83.6905    9.6315 N.pl3   1  UNL1       -0.3040
     17 C          59.3745   84.0710    8.6184 C.3     1  UNL1        0.1122
     18 C          59.3857   85.5862    8.3857 C.3     1  UNL1        0.1122
     19 C          58.3674   82.3470   10.1510 C.ar    1  UNL1        0.0488
     20 C          57.9721   81.2726    9.3372 C.ar    1  UNL1        0.0154
     21 C          57.9500   79.9715    9.8455 C.ar    1  UNL1        0.0135
     22 C          58.3179   79.7255   11.1722 C.ar    1  UNL1        0.0683
     23 CL         58.2767   78.0745   11.7758 Cl      1  UNL1       -0.0814
     24 C          58.7087   80.7938   11.9964 C.ar    1  UNL1        0.0694
     25 CL         59.1786   80.5285   13.6701 Cl      1  UNL1       -0.0813
     26 C          58.7292   82.0970   11.4853 C.ar    1  UNL1        0.0268
     27 C          65.0988   92.2143   11.8325 C.2     1  UNL1        0.2443
     28 O          64.5120   93.3263   11.7341 O.2     1  UNL1       -0.2730
     29 N          66.1566   91.8634   10.9230 N.am    1  UNL1       -0.2825
     30 H          66.4433   90.8591   10.8815 H       1  UNL1        0.1549
     31 C          66.8208   92.7787   10.0318 C.ar    1  UNL1        0.0535
     32 C          68.0951   92.4536    9.5449 C.ar    1  UNL1        0.0353
     33 C          68.7697   93.3494    8.7123 C.ar    1  UNL1        0.1002
     34 N          68.2003   94.5396    8.3879 N.ar    1  UNL1       -0.2422
     35 C          66.9745   94.8923    8.8565 C.ar    1  UNL1        0.1002
     36 C          66.2643   94.0240    9.6888 C.ar    1  UNL1        0.0353
     37 C          64.4138   92.0159   14.2450 C.3     1  UNL1        0.0570
     38 C          65.6712   92.3231   15.0215 C.ar    1  UNL1        0.0033
     39 CA         65.8047   92.5868   16.3938 C.ar    1  UNL1        0.1292
     40 N          67.1143   92.6626   16.7336 N.ar    1  UNL1       -0.3483
     41 C          67.8082   92.4460   15.6051 C.ar    1  UNL1        0.0564
     42 C          69.1948   92.3958   15.4672 C.ar    1  UNL1        0.0170
     43 C          69.7201   92.1239   14.1917 C.ar    1  UNL1        0.0015
     44 C          68.8579   91.9103   13.0950 C.ar    1  UNL1        0.0001
     45 C          67.4627   91.9645   13.2642 C.ar    1  UNL1        0.0012
     46 C          66.9681   92.2363   14.5420 C.ar    1  UNL1        0.0133
     47 H          67.5108   92.8386   17.6839 H       1  UNL1        0.1661
     48 C          64.7198   92.7518   17.3801 C.2     1  UNL1        0.3536
     49 O          64.8309   92.2305   18.5219 O.2     1  UNL1       -0.2435
     50 OXT        63.5803   93.4873   17.0751 O.3     1  UNL1       -0.4761
     51 HXT        62.8370   93.6018   17.7536 H       1  UNL1        0.2955
@<TRIPOS>BOND
     1     2     3    2
     2     3     4   am
     3     4     1    1
     4     1    37    1
     5    37    38    1
     6    38    39   ar
     7    39    48    1
     8    48    49    2
     9    48    50    1
    10    39    40   ar
    11    40    41   ar
    12    41    42   ar
    13    42    43   ar
    14    43    44   ar
    15    44    45   ar
    16    45    46   ar
    17     1    27    1
    18    27    28    2
    19    27    29   am
    20    29    31    1
    21    31    32   ar
    22    32    33   ar
    23    33    34   ar
    24    34    35   ar
    25    35    36   ar
    26     3     6    1
    27     6     7   ar
    28     7     8   ar
    29     8     9   ar
    30     9    13    1
    31    13    14    1
    32    14    15    1
    33    15    16    1
    34    16    19    1
    35    19    20   ar
    36    20    21   ar
    37    21    22   ar
    38    22    23    1
    39    22    24   ar
    40    24    25    1
    41    24    26   ar
    42    16    17    1
    43    17    18    1
    44     9    10   ar
    45    10    11   ar
    46    11    12    1
    47    46    38   ar
    48    36    31   ar
    49    11     6   ar
    50    46    41   ar
    51    18    13    1
    52    26    19   ar
    53     4     5    1
    54    50    51    1
    55    40    47    1
    56    29    30    1
@<TRIPOS>MOLECULE
*****
 51 56 0 0 0
SMALL
GASTEIGER

@<TRIPOS>ATOM
      1 C          61.0328   81.9159    9.5664 C.3     1  UNL1        0.1535
      2 O          63.1571   83.7769    9.0846 O.2     1  UNL1       -0.2701
      3 C          62.3345   84.0581    9.9984 C.2     1  UNL1        0.2483
      4 N          61.3405   83.0956   10.3857 N.am    1  UNL1       -0.2945
      5 H          60.8521   83.2352   11.2988 H       1  UNL1        0.1501
      6 C          62.4322   85.3672   10.6826 C.ar    1  UNL1        0.0808
      7 C          62.7742   85.4147   12.0444 C.ar    1  UNL1        0.0080
      8 C          62.8693   86.6387   12.7114 C.ar    1  UNL1        0.0148
      9 C          62.6407   87.8413   12.0259 C.ar    1  UNL1        0.0502
     10 C          62.3101   87.7976   10.6622 C.ar    1  UNL1        0.0443
     11 C          62.2115   86.5746    9.9915 C.ar    1  UNL1        0.1457
     12 F          61.9442   86.5807    8.6610 F       1  UNL1       -0.2040
     13 N          62.7270   89.1026   12.7161 N.pl3   1  UNL1       -0.3040
     14 C          63.2444   90.2842   12.0065 C.3     1  UNL1        0.1122
     15 C          63.4921   91.4506   12.9701 C.3     1  UNL1        0.1122
     16 N          64.1338   90.9543   14.1959 N.pl3   1  UNL1       -0.3040
     17 C          63.5399   89.8185   14.9205 C.3     1  UNL1        0.1122
     18 C          62.3723   89.2054   14.1388 C.3     1  UNL1        0.1122
     19 C          65.3767   91.5189   14.6555 C.ar    1  UNL1        0.0488
     20 C          65.4391   92.1945   15.8854 C.ar    1  UNL1        0.0154
     21 C          66.6414   92.7543   16.3243 C.ar    1  UNL1        0.0135
     22 C          67.7956   92.6510   15.5413 C.ar    1  UNL1        0.0683
     23 CL         69.2900   93.3689   16.1274 Cl      1  UNL1       -0.0814
     24 C          67.7426   91.9829   14.3067 C.ar    1  UNL1        0.0694
     25 CL         69.1703   91.8304   13.2914 Cl      1  UNL1       -0.0813
     26 C          66.5365   91.4234   13.8683 C.ar    1  UNL1        0.0268
     27 C          61.7273   80.6859   10.1096 C.2     1  UNL1        0.2443
     28 O          61.5018   80.3082   11.2916 O.2     1  UNL1       -0.2730
     29 N          62.6133   79.9363    9.2596 N.am    1  UNL1       -0.2825
     30 H          62.9593   80.4045    8.3916 H       1  UNL1        0.1549
     31 C          63.0976   78.6082    9.5332 C.ar    1  UNL1        0.0535
     32 C          64.1437   78.0897    8.7566 C.ar    1  UNL1        0.0353
     33 C          64.5973   76.7881    8.9825 C.ar    1  UNL1        0.1002
     34 N          64.0159   76.0204    9.9409 N.ar    1  UNL1       -0.2422
     35 C          62.9891   76.4866   10.6991 C.ar    1  UNL1        0.1002
     36 C          62.5076   77.7839   10.5083 C.ar    1  UNL1        0.0353
     37 C          59.5074   81.7029    9.5048 C.3     1  UNL1        0.0570
     38 C          58.8135   82.2331   10.7360 C.ar    1  UNL1        0.0033
     39 CA         58.4912   81.5469   11.9175 C.ar    1  UNL1        0.1292
     40 N          58.0114   82.4087   12.8467 N.ar    1  UNL1       -0.3483
     41 C          58.0306   83.6240   12.2771 C.ar    1  UNL1        0.0564
     42 C          57.6577   84.8331   12.8629 C.ar    1  UNL1        0.0170
     43 C          57.7843   86.0037   12.0945 C.ar    1  UNL1        0.0015
     44 C          58.2755   85.9406   10.7728 C.ar    1  UNL1        0.0001
     45 C          58.6465   84.7069   10.2085 C.ar    1  UNL1        0.0012
     46 C          58.5104   83.5601   10.9943 C.ar    1  UNL1        0.0133
     47 H          57.7015   82.1815   13.8182 H       1  UNL1        0.1661
     48 C          58.6437   80.1031   12.1804 C.2     1  UNL1        0.3536
     49 O          58.0800   79.2686   11.4229 O.2     1  UNL1       -0.2435
     50 OXT        59.4131   79.6461   13.2442 O.3     1  UNL1       -0.4761
     51 HXT        59.5189   78.6547   13.4226 H       1  UNL1        0.2955
@<TRIPOS>BOND
     1     2     3    2
     2     3     4   am
     3     4     1    1
     4     1    37    1
     5    37    38    1
     6    38    39   ar
     7    39    48    1
     8    48    49    2
     9    48    50    1
    10    39    40   ar
    11    40    41   ar
    12    41    42   ar
    13    42    43   ar
    14    43    44   ar
    15    44    45   ar
    16    45    46   ar
    17     1    27    1
    18    27    28    2
    19    27    29   am
    20    29    31    1
    21    31    32   ar
    22    32    33   ar
    23    33    34   ar
    24    34    35   ar
    25    35    36   ar
    26     3     6    1
    27     6     7   ar
    28     7     8   ar
    29     8     9   ar
    30     9    13    1
    31    13    14    1
    32    14    15    1
    33    15    16    1
    34    16    19    1
    35    19    20   ar
    36    20    21   ar
    37    21    22   ar
    38    22    23    1
    39    22    24   ar
    40    24    25    1
    41    24    26   ar
    42    16    17    1
    43    17    18    1
    44     9    10   ar
    45    10    11   ar
    46    11    12    1
    47    46    38   ar
    48    36    31   ar
    49    11     6   ar
    50    46    41   ar
    51    18    13    1
    52    26    19   ar
    53     4     5    1
    54    50    51    1
    55    40    47    1
    56    29    30    1
@<TRIPOS>MOLECULE
*****
 51 56 0 0 0
SMALL
GASTEIGER

@<TRIPOS>ATOM
      1 C          59.5129   83.1346    8.2289 C.3     1  UNL1        0.1535
      2 O          60.0334   85.5949    6.8564 O.2     1  UNL1       -0.2701
      3 C          60.3693   85.5243    8.0700 C.2     1  UNL1        0.2483
      4 N          60.2719   84.2714    8.7665 N.am    1  UNL1       -0.2945
      5 H          60.7903   84.1697    9.6680 H       1  UNL1        0.1501
      6 C          60.8944   86.7315    8.7472 C.ar    1  UNL1        0.0808
      7 C          60.1874   87.9420    8.6546 C.ar    1  UNL1        0.0080
      8 C          60.6657   89.0946    9.2830 C.ar    1  UNL1        0.0148
      9 C          61.8520   89.0562   10.0309 C.ar    1  UNL1        0.0502
     10 C          62.5546   87.8452   10.1349 C.ar    1  UNL1        0.0443
     11 C          62.0807   86.6899    9.5055 C.ar    1  UNL1        0.1457
     12 F          62.7609   85.5283    9.6777 F       1  UNL1       -0.2040
     13 N          62.3515   90.2470   10.6690 N.pl3   1  UNL1       -0.3040
     14 C          63.2354   91.1554    9.9201 C.3     1  UNL1        0.1122
     15 C          63.8544   92.2156   10.8383 C.3     1  UNL1        0.1122
     16 N          64.2900   91.5905   12.0953 N.pl3   1  UNL1       -0.3040
     17 C          63.3492   90.7515   12.8560 C.3     1  UNL1        0.1122
     18 C          62.0467   90.5268   12.0795 C.3     1  UNL1        0.1122
     19 C          65.6486   91.7297   12.5536 C.ar    1  UNL1        0.0488
     20 C          66.7045   91.8172   11.6314 C.ar    1  UNL1        0.0154
     21 C          68.0233   91.9378   12.0762 C.ar    1  UNL1        0.0135
     22 C          68.3065   91.9689   13.4454 C.ar    1  UNL1        0.0683
     23 CL         69.9791   92.1212   13.9665 Cl      1  UNL1       -0.0814
     24 C          67.2584   91.8757   14.3761 C.ar    1  UNL1        0.0694
     25 CL         67.5706   91.9107   16.1063 Cl      1  UNL1       -0.0813
     26 C          65.9376   91.7539   13.9282 C.ar    1  UNL1        0.0268
     27 C          60.1343   81.8217    8.6541 C.2     1  UNL1        0.2443
     28 O          60.2353   80.8772    7.8245 O.2     1  UNL1       -0.2730
     29 N          60.6377   81.6746    9.9936 N.am    1  UNL1       -0.2825
     30 H          60.3221   82.3709   10.7063 H       1  UNL1        0.1549
     31 C          61.5061   80.6168   10.4410 C.ar    1  UNL1        0.0535
     32 C          61.9943   79.6930    9.5058 C.ar    1  UNL1        0.0353
     33 C          62.8045   78.6374    9.9302 C.ar    1  UNL1        0.1002
     34 N          63.1056   78.4962   11.2475 N.ar    1  UNL1       -0.2422
     35 C          62.6349   79.3640   12.1813 C.ar    1  UNL1        0.1002
     36 C          61.8246   80.4356   11.7989 C.ar    1  UNL1        0.0353
     37 C          58.0436   83.2204    8.6872 C.3     1  UNL1        0.0570
     38 C          57.9179   83.1726   10.1906 C.ar    1  UNL1        0.0033
     39 CA         57.9201   82.0469   11.0293 C.ar    1  UNL1        0.1292
     40 N          57.9407   82.4283   12.3295 N.ar    1  UNL1       -0.3483
     41 C          57.9577   83.7706   12.3268 C.ar    1  UNL1        0.0564
     42 C          58.0140   84.6129   13.4365 C.ar    1  UNL1        0.0170
     43 C          58.0537   85.9998   13.2090 C.ar    1  UNL1        0.0015
     44 C          58.0368   86.5082   11.8925 C.ar    1  UNL1        0.0001
     45 C          57.9822   85.6344   10.7918 C.ar    1  UNL1        0.0012
     46 C          57.9437   84.2615   11.0468 C.ar    1  UNL1        0.0133
     47 H          57.9559   81.8073   13.1694 H       1  UNL1        0.1661
     48 C          57.9177   80.6294   10.6198 C.2     1  UNL1        0.3536
     49 O          57.2152   80.2651    9.6392 O.2     1  UNL1       -0.2435
     50 OXT        58.6909   79.6888   11.2905 O.3     1  UNL1       -0.4761
     51 HXT        58.6902   78.7163   11.0072 H       1  UNL1        0.2955
@<TRIPOS>BOND
     1     2     3    2
     2     3     4   am
     3     4     1    1
     4     1    37    1
     5    37    38    1
     6    38    39   ar
     7    39    48    1
     8    48    49    2
     9    48    50    1
    10    39    40   ar
    11    40    41   ar
    12    41    42   ar
    13    42    43   ar
    14    43    44   ar
    15    44    45   ar
    16    45    46   ar
    17     1    27    1
    18    27    28    2
    19    27    29   am
    20    29    31    1
    21    31    32   ar
    22    32    33   ar
    23    33    34   ar
    24    34    35   ar
    25    35    36   ar
    26     3     6    1
    27     6     7   ar
    28     7     8   ar
    29     8     9   ar
    30     9    13    1
    31    13    14    1
    32    14    15    1
    33    15    16    1
    34    16    19    1
    35    19    20   ar
    36    20    21   ar
    37    21    22   ar
    38    22    23    1
    39    22    24   ar
    40    24    25    1
    41    24    26   ar
    42    16    17    1
    43    17    18    1
    44     9    10   ar
    45    10    11   ar
    46    11    12    1
    47    46    38   ar
    48    36    31   ar
    49    11     6   ar
    50    46    41   ar
    51    18    13    1
    52    26    19   ar
    53     4     5    1
    54    50    51    1
    55    40    47    1
    56    29    30    1
@<TRIPOS>MOLECULE
*****
 51 56 0 0 0
SMALL
GASTEIGER

@<TRIPOS>ATOM
      1 C          60.5483   82.6329   13.0182 C.3     1  UNL1        0.1535
      2 O          59.5593   84.9881   14.3156 O.2     1  UNL1       -0.2701
      3 C          60.5128   85.1298   13.5022 C.2     1  UNL1        0.2483
      4 N          60.9493   84.0123   12.7116 N.am    1  UNL1       -0.2945
      5 H          61.5443   84.2062   11.8748 H       1  UNL1        0.1501
      6 C          61.1433   86.4605   13.3508 C.ar    1  UNL1        0.0808
      7 C          60.7320   87.5212   14.1750 C.ar    1  UNL1        0.0080
      8 C          61.3110   88.7864   14.0477 C.ar    1  UNL1        0.0148
      9 C          62.3251   89.0124   13.1049 C.ar    1  UNL1        0.0502
     10 C          62.7463   87.9514   12.2878 C.ar    1  UNL1        0.0443
     11 C          62.1678   86.6843   12.4103 C.ar    1  UNL1        0.1457
     12 F          62.6431   85.6736   11.6394 F       1  UNL1       -0.2040
     13 N          62.9139   90.3195   12.9654 N.pl3   1  UNL1       -0.3040
     14 C          62.7688   91.0490   11.6948 C.3     1  UNL1        0.1122
     15 C          63.6658   92.2916   11.6584 C.3     1  UNL1        0.1122
     16 N          64.9909   91.9637   12.2036 N.pl3   1  UNL1       -0.3040
     17 C          65.0958   91.3039   13.5156 C.3     1  UNL1        0.1122
     18 C          63.7170   90.9006   14.0507 C.3     1  UNL1        0.1122
     19 C          66.1842   92.2139   11.4364 C.ar    1  UNL1        0.0488
     20 C          67.3931   91.5848   11.7767 C.ar    1  UNL1        0.0154
     21 C          68.5534   91.8386   11.0412 C.ar    1  UNL1        0.0135
     22 C          68.5242   92.7252    9.9600 C.ar    1  UNL1        0.0683
     23 CL         70.0053   93.0192    9.0588 Cl      1  UNL1       -0.0814
     24 C          67.3218   93.3644    9.6154 C.ar    1  UNL1        0.0694
     25 CL         67.2414   94.4862    8.2634 Cl      1  UNL1       -0.0813
     26 C          66.1603   93.1095   10.3543 C.ar    1  UNL1        0.0268
     27 C          59.7677   82.0303   11.8701 C.2     1  UNL1        0.2443
     28 O          58.6779   81.4368   12.0950 O.2     1  UNL1       -0.2730
     29 N          60.2589   82.1712   10.5254 N.am    1  UNL1       -0.2825
     30 H          61.2605   82.4442   10.4042 H       1  UNL1        0.1549
     31 C          59.4921   81.9212    9.3326 C.ar    1  UNL1        0.0535
     32 C          60.0659   81.1693    8.2974 C.ar    1  UNL1        0.0353
     33 C          59.3505   80.9527    7.1175 C.ar    1  UNL1        0.1002
     34 N          58.1086   81.4825    6.9663 N.ar    1  UNL1       -0.2422
     35 C          57.5309   82.2299    7.9431 C.ar    1  UNL1        0.1002
     36 C          58.2104   82.4675    9.1402 C.ar    1  UNL1        0.0353
     37 C          61.7935   81.7836   13.3411 C.3     1  UNL1        0.0570
     38 C          63.0645   82.5944   13.2656 C.ar    1  UNL1        0.0033
     39 CA         63.9553   82.7189   12.1878 C.ar    1  UNL1        0.1292
     40 N          64.8937   83.6583   12.4586 N.ar    1  UNL1       -0.3483
     41 C          64.6087   84.1322   13.6817 C.ar    1  UNL1        0.0564
     42 C          65.2822   85.1399   14.3709 C.ar    1  UNL1        0.0170
     43 C          64.7972   85.5083   15.6382 C.ar    1  UNL1        0.0015
     44 C          63.6628   84.8688   16.1821 C.ar    1  UNL1        0.0001
     45 C          63.0018   83.8568   15.4630 C.ar    1  UNL1        0.0012
     46 C          63.5049   83.5110   14.2066 C.ar    1  UNL1        0.0133
     47 H          65.6753   83.9671   11.8380 H       1  UNL1        0.1661
     48 C          63.9213   81.9781   10.9123 C.2     1  UNL1        0.3536
     49 O          64.7883   82.2167   10.0296 O.2     1  UNL1       -0.2435
     50 OXT        62.9548   81.0080   10.6730 O.3     1  UNL1       -0.4761
     51 HXT        62.9336   80.4984    9.7978 H       1  UNL1        0.2955
@<TRIPOS>BOND
     1     2     3    2
     2     3     4   am
     3     4     1    1
     4     1    37    1
     5    37    38    1
     6    38    39   ar
     7    39    48    1
     8    48    49    2
     9    48    50    1
    10    39    40   ar
    11    40    41   ar
    12    41    42   ar
    13    42    43   ar
    14    43    44   ar
    15    44    45   ar
    16    45    46   ar
    17     1    27    1
    18    27    28    2
    19    27    29   am
    20    29    31    1
    21    31    32   ar
    22    32    33   ar
    23    33    34   ar
    24    34    35   ar
    25    35    36   ar
    26     3     6    1
    27     6     7   ar
    28     7     8   ar
    29     8     9   ar
    30     9    13    1
    31    13    14    1
    32    14    15    1
    33    15    16    1
    34    16    19    1
    35    19    20   ar
    36    20    21   ar
    37    21    22   ar
    38    22    23    1
    39    22    24   ar
    40    24    25    1
    41    24    26   ar
    42    16    17    1
    43    17    18    1
    44     9    10   ar
    45    10    11   ar
    46    11    12    1
    47    46    38   ar
    48    36    31   ar
    49    11     6   ar
    50    46    41   ar
    51    18    13    1
    52    26    19   ar
    53     4     5    1
    54    50    51    1
    55    40    47    1
    56    29    30    1
@<TRIPOS>MOLECULE
*****
 51 56 0 0 0
SMALL
GASTEIGER

@<TRIPOS>ATOM
      1 C          59.7083   81.7310   13.1646 C.3     1  UNL1        0.1535
      2 O          60.7530   83.6029   11.2638 O.2     1  UNL1       -0.2701
      3 C          60.7550   83.9452   12.4777 C.2     1  UNL1        0.2483
      4 N          60.3850   82.9938   13.4889 N.am    1  UNL1       -0.2945
      5 H          60.6417   83.2059   14.4793 H       1  UNL1        0.1501
      6 C          61.1755   85.3170   12.8423 C.ar    1  UNL1        0.0808
      7 C          60.4201   86.0503   13.7725 C.ar    1  UNL1        0.0080
      8 C          60.7964   87.3476   14.1293 C.ar    1  UNL1        0.0148
      9 C          61.9455   87.9320   13.5757 C.ar    1  UNL1        0.0502
     10 C          62.7089   87.1973   12.6546 C.ar    1  UNL1        0.0443
     11 C          62.3344   85.8995   12.2931 C.ar    1  UNL1        0.1457
     12 F          63.1310   85.2046   11.4420 F       1  UNL1       -0.2040
     13 N          62.3271   89.2738   13.9343 N.pl3   1  UNL1       -0.3040
     14 C          62.8505   90.1806   12.8994 C.3     1  UNL1        0.1122
     15 C          63.4288   91.4590   13.5171 C.3     1  UNL1        0.1122
     16 N          64.2214   91.1206   14.7078 N.pl3   1  UNL1       -0.3040
     17 C          63.6324   90.2742   15.7587 C.3     1  UNL1        0.1122
     18 C          62.2669   89.7228   15.3326 C.3     1  UNL1        0.1122
     19 C          65.5925   91.5468   14.8239 C.ar    1  UNL1        0.0488
     20 C          66.0501   92.1566   16.0036 C.ar    1  UNL1        0.0154
     21 C          67.3762   92.5827   16.1106 C.ar    1  UNL1        0.0135
     22 C          68.2618   92.4098   15.0421 C.ar    1  UNL1        0.0683
     23 CL         69.9232   92.9595   15.2145 Cl      1  UNL1       -0.0814
     24 C          67.8126   91.8068   13.8554 C.ar    1  UNL1        0.0694
     25 CL         68.8930   91.5705   12.4881 Cl      1  UNL1       -0.0813
     26 C          66.4830   91.3814   13.7499 C.ar    1  UNL1        0.0268
     27 C          59.0137   81.8204   11.8230 C.2     1  UNL1        0.2443
     28 O          57.9215   82.4428   11.7219 O.2     1  UNL1       -0.2730
     29 N          59.6245   81.2238   10.6653 N.am    1  UNL1       -0.2825
     30 H          60.3829   80.5232   10.8276 H       1  UNL1        0.1549
     31 C          59.2423   81.4816    9.3012 C.ar    1  UNL1        0.0535
     32 C          60.1258   82.1792    8.4651 C.ar    1  UNL1        0.0353
     33 C          59.7530   82.4728    7.1514 C.ar    1  UNL1        0.1002
     34 N          58.5314   82.0981    6.6896 N.ar    1  UNL1       -0.2422
     35 C          57.6455   81.4359    7.4790 C.ar    1  UNL1        0.1002
     36 C          57.9800   81.1193    8.7978 C.ar    1  UNL1        0.0353
     37 C          60.7243   80.5719   13.1807 C.3     1  UNL1        0.0570
     38 C          62.0975   81.0191   12.7416 C.ar    1  UNL1        0.0033
     39 CA         62.7558   80.7492   11.5315 C.ar    1  UNL1        0.1292
     40 N          63.9096   81.4558   11.4552 N.ar    1  UNL1       -0.3483
     41 C          63.9884   82.1697   12.5893 C.ar    1  UNL1        0.0564
     42 C          64.9890   83.0726   12.9465 C.ar    1  UNL1        0.0170
     43 C          64.8631   83.7422   14.1764 C.ar    1  UNL1        0.0015
     44 C          63.7525   83.4975   15.0122 C.ar    1  UNL1        0.0001
     45 C          62.7568   82.5828   14.6248 C.ar    1  UNL1        0.0012
     46 C          62.9071   81.9319   13.3980 C.ar    1  UNL1        0.0133
     47 H          64.5963   81.4602   10.6680 H       1  UNL1        0.1661
     48 C          62.3042   79.8513   10.4513 C.2     1  UNL1        0.3536
     49 O          62.9350   79.8216    9.3609 O.2     1  UNL1       -0.2435
     50 OXT        61.1999   79.0244   10.6221 O.3     1  UNL1       -0.4761
     51 HXT        60.8919   78.4067    9.8807 H       1  UNL1        0.2955
@<TRIPOS>BOND
     1     2     3    2
     2     3     4   am
     3     4     1    1
     4     1    37    1
     5    37    38    1
     6    38    39   ar
     7    39    48    1
     8    48    49    2
     9    48    50    1
    10    39    40   ar
    11    40    41   ar
    12    41    42   ar
    13    42    43   ar
    14    43    44   ar
    15    44    45   ar
    16    45    46   ar
    17     1    27    1
    18    27    28    2
    19    27    29   am
    20    29    31    1
    21    31    32   ar
    22    32    33   ar
    23    33    34   ar
    24    34    35   ar
    25    35    36   ar
    26     3     6    1
    27     6     7   ar
    28     7     8   ar
    29     8     9   ar
    30     9    13    1
    31    13    14    1
    32    14    15    1
    33    15    16    1
    34    16    19    1
    35    19    20   ar
    36    20    21   ar
    37    21    22   ar
    38    22    23    1
    39    22    24   ar
    40    24    25    1
    41    24    26   ar
    42    16    17    1
    43    17    18    1
    44     9    10   ar
    45    10    11   ar
    46    11    12    1
    47    46    38   ar
    48    36    31   ar
    49    11     6   ar
    50    46    41   ar
    51    18    13    1
    52    26    19   ar
    53     4     5    1
    54    50    51    1
    55    40    47    1
    56    29    30    1
