@<TRIPOS>MOLECULE
*****
 35 38 0 0 0
SMALL
GASTEIGER

@<TRIPOS>ATOM
      1 N          -9.9051   -7.9941   30.9883 N.am    1  UNL1       -0.2685
      2 C         -11.1599   -8.4761   31.5042 C.2     1  UNL1        0.2672
      3 O         -12.1726   -7.7249   31.4707 O.2     1  UNL1       -0.2682
      4 C         -11.2592   -9.8211   32.1078 C.ar    1  UNL1        0.1347
      5 C         -12.1956  -10.7562   31.6440 C.ar    1  UNL1        0.0238
      6 C         -12.2749  -12.0166   32.2511 C.ar    1  UNL1        0.0040
      7 C         -13.2034  -12.9651   31.7969 C.ar    1  UNL1        0.0002
      8 C         -13.2794  -14.2192   32.4044 C.ar    1  UNL1        0.0009
      9 C         -12.4330  -14.5379   33.4677 C.ar    1  UNL1        0.0114
     10 C         -11.4994  -13.6064   33.9373 C.ar    1  UNL1        0.0591
     11 CL        -10.4645  -14.0784   35.2831 Cl      1  UNL1       -0.0822
     12 C         -11.4134  -12.3338   33.3296 C.ar    1  UNL1        0.0298
     13 C         -10.4964  -11.3600   33.7603 C.ar    1  UNL1        0.0998
     14 N         -10.4471  -10.1486   33.1484 N.ar    1  UNL1       -0.2392
     15 C         -10.2507   -9.5748   29.0911 C.3     1  UNL1        0.0265
     16 C          -9.2441   -8.7387   29.8986 C.3     1  UNL1        0.1007
     17 C          -8.0628   -9.5315   30.4400 C.ar    1  UNL1        0.0234
     18 C          -8.1274  -10.2305   31.6642 C.ar    1  UNL1        0.0019
     19 C          -7.0091  -10.9110   32.1540 C.ar    1  UNL1        0.0295
     20 C          -5.8092  -10.8934   31.4418 C.ar    1  UNL1        0.1424
     21 F          -4.7258  -11.5526   31.9214 F       1  UNL1       -0.2041
     22 C          -5.7227  -10.1888   30.2401 C.ar    1  UNL1        0.0590
     23 C          -6.8366   -9.5052   29.7426 C.ar    1  UNL1        0.1399
     24 F          -6.7144   -8.8117   28.5819 F       1  UNL1       -0.2044
     25 C          -9.4612   -6.6466   31.3776 C.3     1  UNL1        0.1207
     26 C          -7.9706   -6.5168   31.2002 C.ar    1  UNL1       -0.0021
     27 C          -7.4435   -5.9189   30.0455 C.ar    1  UNL1       -0.0026
     28 C          -6.0645   -5.7530   29.9065 C.ar    1  UNL1       -0.0001
     29 C          -5.2002   -6.1728   30.9201 C.ar    1  UNL1        0.0064
     30 C          -5.7097   -6.7648   32.0895 C.ar    1  UNL1        0.0752
     31 C          -7.0996   -6.9321   32.2205 C.ar    1  UNL1        0.0038
     32 C          -4.8002   -7.2012   33.1720 C.2     1  UNL1        0.3380
     33 O          -3.6297   -6.7384   33.2483 O.2     1  UNL1       -0.2451
     34 O          -5.2295   -8.1276   34.1190 O.3     1  UNL1       -0.4771
     35 H          -4.6153   -8.4323   34.8648 H       1  UNL1        0.2954
@<TRIPOS>BOND
     1    15    16    1
     2    16    17    1
     3    17    18   ar
     4    18    19   ar
     5    19    20   ar
     6    20    21    1
     7    20    22   ar
     8    22    23   ar
     9    23    24    1
    10    16     1    1
    11     1    25    1
    12    25    26    1
    13    26    27   ar
    14    27    28   ar
    15    28    29   ar
    16    29    30   ar
    17    30    32    1
    18    32    33    2
    19    32    34    1
    20    30    31   ar
    21     1     2   am
    22     2     3    2
    23     2     4    1
    24     4     5   ar
    25     5     6   ar
    26     6     7   ar
    27     7     8   ar
    28     8     9   ar
    29     9    10   ar
    30    10    11    1
    31    10    12   ar
    32    12    13   ar
    33    13    14   ar
    34    23    17   ar
    35    31    26   ar
    36    14     4   ar
    37    12     6   ar
    38    34    35    1
@<TRIPOS>MOLECULE
*****
 35 38 0 0 0
SMALL
GASTEIGER

@<TRIPOS>ATOM
      1 N         -10.5727   -8.4483   30.3309 N.am    1  UNL1       -0.2685
      2 C         -11.4940   -8.9415   31.3213 C.2     1  UNL1        0.2672
      3 O         -12.6359   -8.4151   31.4211 O.2     1  UNL1       -0.2682
      4 C         -11.0984  -10.0252   32.2444 C.ar    1  UNL1        0.1347
      5 C         -11.8831  -11.1786   32.3867 C.ar    1  UNL1        0.0238
      6 C         -11.4877  -12.1791   33.2846 C.ar    1  UNL1        0.0040
      7 C         -12.2591  -13.3409   33.4361 C.ar    1  UNL1        0.0002
      8 C         -11.8620  -14.3348   34.3317 C.ar    1  UNL1        0.0009
      9 C         -10.6954  -14.1796   35.0825 C.ar    1  UNL1        0.0114
     10 C          -9.9108  -13.0280   34.9474 C.ar    1  UNL1        0.0591
     11 CL         -8.4522  -12.9008   35.9277 Cl      1  UNL1       -0.0822
     12 C         -10.3031  -12.0154   34.0435 C.ar    1  UNL1        0.0298
     13 C          -9.5550  -10.8389   33.8682 C.ar    1  UNL1        0.0998
     14 N          -9.9682   -9.8900   32.9888 N.ar    1  UNL1       -0.2392
     15 C         -10.9942  -10.5701   29.0908 C.3     1  UNL1        0.0265
     16 C         -10.0468   -9.3797   29.3136 C.3     1  UNL1        0.1007
     17 C          -8.6142   -9.7726   29.6459 C.ar    1  UNL1        0.0234
     18 C          -7.5112   -8.9837   29.2557 C.ar    1  UNL1        0.0019
     19 C          -6.2062   -9.3973   29.5378 C.ar    1  UNL1        0.0295
     20 C          -5.9802  -10.6060   30.1976 C.ar    1  UNL1        0.1424
     21 F          -4.7128  -11.0051   30.4673 F       1  UNL1       -0.2041
     22 C          -7.0596  -11.4082   30.5711 C.ar    1  UNL1        0.0590
     23 C          -8.3685  -11.0021   30.2928 C.ar    1  UNL1        0.1399
     24 F          -9.3959  -11.8145   30.6501 F       1  UNL1       -0.2044
     25 C         -10.3943   -6.9934   30.2059 C.3     1  UNL1        0.1207
     26 C          -9.0098   -6.5975   30.6496 C.ar    1  UNL1       -0.0021
     27 C          -8.3614   -5.5033   30.0573 C.ar    1  UNL1       -0.0026
     28 C          -7.1003   -5.1065   30.5053 C.ar    1  UNL1       -0.0001
     29 C          -6.4790   -5.7905   31.5527 C.ar    1  UNL1        0.0064
     30 C          -7.1171   -6.8831   32.1662 C.ar    1  UNL1        0.0752
     31 C          -8.3856   -7.2792   31.7068 C.ar    1  UNL1        0.0038
     32 C          -6.4694   -7.6047   33.2839 C.2     1  UNL1        0.3380
     33 O          -5.2619   -7.3838   33.5724 O.2     1  UNL1       -0.2451
     34 O          -7.1889   -8.5350   34.0298 O.3     1  UNL1       -0.4771
     35 H          -6.7554   -9.0337   34.7977 H       1  UNL1        0.2954
@<TRIPOS>BOND
     1    15    16    1
     2    16    17    1
     3    17    18   ar
     4    18    19   ar
     5    19    20   ar
     6    20    21    1
     7    20    22   ar
     8    22    23   ar
     9    23    24    1
    10    16     1    1
    11     1    25    1
    12    25    26    1
    13    26    27   ar
    14    27    28   ar
    15    28    29   ar
    16    29    30   ar
    17    30    32    1
    18    32    33    2
    19    32    34    1
    20    30    31   ar
    21     1     2   am
    22     2     3    2
    23     2     4    1
    24     4     5   ar
    25     5     6   ar
    26     6     7   ar
    27     7     8   ar
    28     8     9   ar
    29     9    10   ar
    30    10    11    1
    31    10    12   ar
    32    12    13   ar
    33    13    14   ar
    34    23    17   ar
    35    31    26   ar
    36    14     4   ar
    37    12     6   ar
    38    34    35    1
@<TRIPOS>MOLECULE
*****
 35 38 0 0 0
SMALL
GASTEIGER

@<TRIPOS>ATOM
      1 N         -10.2763   -8.3952   31.0780 N.am    1  UNL1       -0.2685
      2 C         -11.5839   -8.8902   31.4217 C.2     1  UNL1        0.2672
      3 O         -12.5792   -8.1202   31.3372 O.2     1  UNL1       -0.2682
      4 C         -11.7610  -10.2734   31.9103 C.ar    1  UNL1        0.1347
      5 C         -10.9832  -10.7751   32.9637 C.ar    1  UNL1        0.0238
      6 C         -11.1651  -12.0974   33.3903 C.ar    1  UNL1        0.0040
      7 C         -10.3980  -12.6137   34.4453 C.ar    1  UNL1        0.0002
      8 C         -10.5820  -13.9313   34.8670 C.ar    1  UNL1        0.0009
      9 C         -11.5296  -14.7438   34.2421 C.ar    1  UNL1        0.0114
     10 C         -12.3056  -14.2491   33.1872 C.ar    1  UNL1        0.0591
     11 CL        -13.4815  -15.3321   32.4461 Cl      1  UNL1       -0.0822
     12 C         -12.1281  -12.9167   32.7521 C.ar    1  UNL1        0.0298
     13 C         -12.8781  -12.3681   31.6979 C.ar    1  UNL1        0.0998
     14 N         -12.6753  -11.0823   31.3107 N.ar    1  UNL1       -0.2392
     15 C         -10.4105   -9.9761   29.1543 C.3     1  UNL1        0.0265
     16 C          -9.5108   -9.0710   30.0120 C.3     1  UNL1        0.1007
     17 C          -8.2932   -9.7721   30.5979 C.ar    1  UNL1        0.0234
     18 C          -8.3247  -10.3964   31.8630 C.ar    1  UNL1        0.0019
     19 C          -7.1754  -10.9917   32.3907 C.ar    1  UNL1        0.0295
     20 C          -5.9777  -10.9613   31.6753 C.ar    1  UNL1        0.1424
     21 F          -4.8643  -11.5376   32.1915 F       1  UNL1       -0.2041
     22 C          -5.9246  -10.3290   30.4321 C.ar    1  UNL1        0.0590
     23 C          -7.0696   -9.7309   29.8967 C.ar    1  UNL1        0.1399
     24 F          -6.9804   -9.1054   28.6950 F       1  UNL1       -0.2044
     25 C          -9.8622   -7.0878   31.6104 C.3     1  UNL1        0.1207
     26 C          -8.4118   -6.8309   31.2932 C.ar    1  UNL1       -0.0021
     27 C          -8.0480   -6.2200   30.0836 C.ar    1  UNL1       -0.0026
     28 C          -6.7081   -5.9360   29.8144 C.ar    1  UNL1       -0.0001
     29 C          -5.7209   -6.2499   30.7513 C.ar    1  UNL1        0.0064
     30 C          -6.0665   -6.8529   31.9737 C.ar    1  UNL1        0.0752
     31 C          -7.4178   -7.1394   32.2360 C.ar    1  UNL1        0.0038
     32 C          -5.0268   -7.1773   32.9753 C.2     1  UNL1        0.3380
     33 O          -3.8686   -6.6890   32.8749 O.2     1  UNL1       -0.2451
     34 O          -5.3185   -8.0253   34.0408 O.3     1  UNL1       -0.4771
     35 H          -4.6144   -8.2530   34.7326 H       1  UNL1        0.2954
@<TRIPOS>BOND
     1    15    16    1
     2    16    17    1
     3    17    18   ar
     4    18    19   ar
     5    19    20   ar
     6    20    21    1
     7    20    22   ar
     8    22    23   ar
     9    23    24    1
    10    16     1    1
    11     1    25    1
    12    25    26    1
    13    26    27   ar
    14    27    28   ar
    15    28    29   ar
    16    29    30   ar
    17    30    32    1
    18    32    33    2
    19    32    34    1
    20    30    31   ar
    21     1     2   am
    22     2     3    2
    23     2     4    1
    24     4     5   ar
    25     5     6   ar
    26     6     7   ar
    27     7     8   ar
    28     8     9   ar
    29     9    10   ar
    30    10    11    1
    31    10    12   ar
    32    12    13   ar
    33    13    14   ar
    34    23    17   ar
    35    31    26   ar
    36    14     4   ar
    37    12     6   ar
    38    34    35    1
@<TRIPOS>MOLECULE
*****
 35 38 0 0 0
SMALL
GASTEIGER

@<TRIPOS>ATOM
      1 N         -10.4259   -8.0526   30.8376 N.am    1  UNL1       -0.2685
      2 C          -9.8811   -8.8486   29.7687 C.2     1  UNL1        0.2672
      3 O         -10.6404   -9.2444   28.8425 O.2     1  UNL1       -0.2682
      4 C          -8.4559   -9.2385   29.7710 C.ar    1  UNL1        0.1347
      5 C          -7.9327  -10.0665   30.7745 C.ar    1  UNL1        0.0238
      6 C          -6.5724  -10.4022   30.7562 C.ar    1  UNL1        0.0040
      7 C          -6.0337  -11.2326   31.7503 C.ar    1  UNL1        0.0002
      8 C          -4.6783  -11.5642   31.7287 C.ar    1  UNL1        0.0009
      9 C          -3.8499  -11.0721   30.7187 C.ar    1  UNL1        0.0114
     10 C          -4.3664  -10.2415   29.7171 C.ar    1  UNL1        0.0591
     11 CL         -3.2614   -9.6577   28.4749 Cl      1  UNL1       -0.0822
     12 C          -5.7371   -9.8994   29.7288 C.ar    1  UNL1        0.0298
     13 C          -6.3090   -9.0692   28.7498 C.ar    1  UNL1        0.0998
     14 N          -7.6316   -8.7646   28.7986 N.ar    1  UNL1       -0.2392
     15 C         -10.1382   -5.7513   29.9218 C.3     1  UNL1        0.0265
     16 C          -9.8642   -6.7113   31.0912 C.3     1  UNL1        0.1007
     17 C          -8.3974   -6.8175   31.4844 C.ar    1  UNL1        0.0234
     18 C          -7.9829   -7.4781   32.6604 C.ar    1  UNL1        0.0019
     19 C          -6.6314   -7.5176   33.0146 C.ar    1  UNL1        0.0295
     20 C          -5.6771   -6.8892   32.2135 C.ar    1  UNL1        0.1424
     21 F          -4.3673   -6.9275   32.5617 F       1  UNL1       -0.2041
     22 C          -6.0734   -6.2132   31.0584 C.ar    1  UNL1        0.0590
     23 C          -7.4234   -6.1686   30.6965 C.ar    1  UNL1        0.1399
     24 F          -7.7792   -5.4852   29.5787 F       1  UNL1       -0.2044
     25 C         -11.6842   -8.4894   31.4623 C.3     1  UNL1        0.1207
     26 C         -11.5206   -9.8628   32.0601 C.ar    1  UNL1       -0.0021
     27 C         -12.4106  -10.8936   31.7224 C.ar    1  UNL1       -0.0026
     28 C         -12.2267  -12.1781   32.2369 C.ar    1  UNL1       -0.0001
     29 C         -11.1499  -12.4484   33.0844 C.ar    1  UNL1        0.0064
     30 C         -10.2410  -11.4313   33.4263 C.ar    1  UNL1        0.0752
     31 C         -10.4351  -10.1391   32.9071 C.ar    1  UNL1        0.0038
     32 C          -9.0916  -11.7139   34.3143 C.2     1  UNL1        0.3380
     33 O          -9.0899  -12.7375   35.0507 O.2     1  UNL1       -0.2451
     34 O          -7.9986  -10.8514   34.3441 O.3     1  UNL1       -0.4771
     35 H          -7.2062  -11.0361   34.9476 H       1  UNL1        0.2954
@<TRIPOS>BOND
     1    15    16    1
     2    16    17    1
     3    17    18   ar
     4    18    19   ar
     5    19    20   ar
     6    20    21    1
     7    20    22   ar
     8    22    23   ar
     9    23    24    1
    10    16     1    1
    11     1    25    1
    12    25    26    1
    13    26    27   ar
    14    27    28   ar
    15    28    29   ar
    16    29    30   ar
    17    30    32    1
    18    32    33    2
    19    32    34    1
    20    30    31   ar
    21     1     2   am
    22     2     3    2
    23     2     4    1
    24     4     5   ar
    25     5     6   ar
    26     6     7   ar
    27     7     8   ar
    28     8     9   ar
    29     9    10   ar
    30    10    11    1
    31    10    12   ar
    32    12    13   ar
    33    13    14   ar
    34    23    17   ar
    35    31    26   ar
    36    14     4   ar
    37    12     6   ar
    38    34    35    1
@<TRIPOS>MOLECULE
*****
 35 38 0 0 0
SMALL
GASTEIGER

@<TRIPOS>ATOM
      1 N         -10.4291  -11.2065   32.6307 N.am    1  UNL1       -0.2685
      2 C          -9.2539  -10.5711   33.1673 C.2     1  UNL1        0.2672
      3 O          -9.2537  -10.1818   34.3671 O.2     1  UNL1       -0.2682
      4 C          -8.0700  -10.3349   32.3154 C.ar    1  UNL1        0.1347
      5 C          -7.8805   -9.1089   31.6617 C.ar    1  UNL1        0.0238
      6 C          -6.7554   -8.9250   30.8469 C.ar    1  UNL1        0.0040
      7 C          -6.5488   -7.7034   30.1889 C.ar    1  UNL1        0.0002
      8 C          -5.4271   -7.5244   29.3780 C.ar    1  UNL1        0.0009
      9 C          -4.5041   -8.5590   29.2160 C.ar    1  UNL1        0.0114
     10 C          -4.6909   -9.7863   29.8630 C.ar    1  UNL1        0.0591
     11 CL         -3.4850  -11.0463   29.6117 Cl      1  UNL1       -0.0822
     12 C          -5.8227   -9.9787   30.6866 C.ar    1  UNL1        0.0298
     13 C          -6.0611  -11.1894   31.3588 C.ar    1  UNL1        0.0998
     14 N          -7.1623  -11.3326   32.1407 N.ar    1  UNL1       -0.2392
     15 C         -10.3287  -12.5651   30.5422 C.3     1  UNL1        0.0265
     16 C         -10.3183  -12.5715   32.0798 C.3     1  UNL1        0.1007
     17 C         -11.3623  -13.4829   32.7097 C.ar    1  UNL1        0.0234
     18 C         -12.5083  -13.9087   32.0049 C.ar    1  UNL1        0.0019
     19 C         -13.4698  -14.7087   32.6287 C.ar    1  UNL1        0.0295
     20 C         -13.3125  -15.0831   33.9638 C.ar    1  UNL1        0.1424
     21 F         -14.2486  -15.8571   34.5662 F       1  UNL1       -0.2041
     22 C         -12.1953  -14.6523   34.6811 C.ar    1  UNL1        0.0590
     23 C         -11.2284  -13.8518   34.0649 C.ar    1  UNL1        0.1399
     24 F         -10.1640  -13.4316   34.7955 F       1  UNL1       -0.2044
     25 C         -11.7379  -10.5855   32.8876 C.3     1  UNL1        0.1207
     26 C         -11.9066   -9.3534   32.0369 C.ar    1  UNL1       -0.0021
     27 C         -12.8475   -8.3733   32.3874 C.ar    1  UNL1       -0.0026
     28 C         -12.9661   -7.2087   31.6272 C.ar    1  UNL1       -0.0001
     29 C         -12.1424   -7.0066   30.5173 C.ar    1  UNL1        0.0064
     30 C         -11.1862   -7.9723   30.1560 C.ar    1  UNL1        0.0752
     31 C         -11.0754   -9.1446   30.9244 C.ar    1  UNL1        0.0038
     32 C         -10.3028   -7.7590   28.9883 C.2     1  UNL1        0.3380
     33 O          -9.5622   -6.7405   28.9253 O.2     1  UNL1       -0.2451
     34 O         -10.2800   -8.6835   27.9470 O.3     1  UNL1       -0.4771
     35 H          -9.6781   -8.5477   27.1436 H       1  UNL1        0.2954
@<TRIPOS>BOND
     1    15    16    1
     2    16    17    1
     3    17    18   ar
     4    18    19   ar
     5    19    20   ar
     6    20    21    1
     7    20    22   ar
     8    22    23   ar
     9    23    24    1
    10    16     1    1
    11     1    25    1
    12    25    26    1
    13    26    27   ar
    14    27    28   ar
    15    28    29   ar
    16    29    30   ar
    17    30    32    1
    18    32    33    2
    19    32    34    1
    20    30    31   ar
    21     1     2   am
    22     2     3    2
    23     2     4    1
    24     4     5   ar
    25     5     6   ar
    26     6     7   ar
    27     7     8   ar
    28     8     9   ar
    29     9    10   ar
    30    10    11    1
    31    10    12   ar
    32    12    13   ar
    33    13    14   ar
    34    23    17   ar
    35    31    26   ar
    36    14     4   ar
    37    12     6   ar
    38    34    35    1
@<TRIPOS>MOLECULE
*****
 35 38 0 0 0
SMALL
GASTEIGER

@<TRIPOS>ATOM
      1 N          -9.7351   -9.6886   31.6612 N.am    1  UNL1       -0.2685
      2 C         -10.1765  -10.3698   32.8504 C.2     1  UNL1        0.2672
      3 O          -9.9810   -9.8379   33.9772 O.2     1  UNL1       -0.2682
      4 C         -10.8153  -11.6993   32.7635 C.ar    1  UNL1        0.1347
      5 C         -11.4840  -12.2554   33.8634 C.ar    1  UNL1        0.0238
      6 C         -12.0633  -13.5264   33.7518 C.ar    1  UNL1        0.0040
      7 C         -12.7393  -14.0955   34.8413 C.ar    1  UNL1        0.0002
      8 C         -13.3146  -15.3618   34.7261 C.ar    1  UNL1        0.0009
      9 C         -13.2211  -16.0702   33.5270 C.ar    1  UNL1        0.0114
     10 C         -12.5509  -15.5214   32.4273 C.ar    1  UNL1        0.0591
     11 CL        -12.4725  -16.4733   30.9465 Cl      1  UNL1       -0.0822
     12 C         -11.9649  -14.2401   32.5324 C.ar    1  UNL1        0.0298
     13 C         -11.2795  -13.6412   31.4617 C.ar    1  UNL1        0.0998
     14 N         -10.7303  -12.4075   31.6054 N.ar    1  UNL1       -0.2392
     15 C         -10.4933  -10.1728   29.3357 C.3     1  UNL1        0.0265
     16 C         -10.7236   -9.3547   30.6171 C.3     1  UNL1        0.1007
     17 C         -10.7745   -7.8491   30.3986 C.ar    1  UNL1        0.0234
     18 C          -9.8680   -7.1847   29.5453 C.ar    1  UNL1        0.0019
     19 C          -9.9142   -5.7950   29.4028 C.ar    1  UNL1        0.0295
     20 C         -10.8511   -5.0470   30.1169 C.ar    1  UNL1        0.1424
     21 F         -10.8912   -3.6989   29.9781 F       1  UNL1       -0.2041
     22 C         -11.7406   -5.6869   30.9814 C.ar    1  UNL1        0.0590
     23 C         -11.7015   -7.0769   31.1301 C.ar    1  UNL1        0.1399
     24 F         -12.5658   -7.6674   31.9946 F       1  UNL1       -0.2044
     25 C          -8.3785   -9.1197   31.6451 C.3     1  UNL1        0.1207
     26 C          -7.4705   -9.9601   30.7850 C.ar    1  UNL1       -0.0021
     27 C          -7.3741  -11.3438   30.9969 C.ar    1  UNL1       -0.0026
     28 C          -6.5723  -12.1282   30.1661 C.ar    1  UNL1       -0.0001
     29 C          -5.8674  -11.5423   29.1121 C.ar    1  UNL1        0.0064
     30 C          -5.9592  -10.1589   28.8770 C.ar    1  UNL1        0.0752
     31 C          -6.7659   -9.3749   29.7206 C.ar    1  UNL1        0.0038
     32 C          -5.2242   -9.5340   27.7551 C.2     1  UNL1        0.3380
     33 O          -4.0954   -9.0056   27.9465 O.2     1  UNL1       -0.2451
     34 O          -5.7726   -9.5247   26.4749 O.3     1  UNL1       -0.4771
     35 H          -5.2773   -9.1006   25.6997 H       1  UNL1        0.2954
@<TRIPOS>BOND
     1    15    16    1
     2    16    17    1
     3    17    18   ar
     4    18    19   ar
     5    19    20   ar
     6    20    21    1
     7    20    22   ar
     8    22    23   ar
     9    23    24    1
    10    16     1    1
    11     1    25    1
    12    25    26    1
    13    26    27   ar
    14    27    28   ar
    15    28    29   ar
    16    29    30   ar
    17    30    32    1
    18    32    33    2
    19    32    34    1
    20    30    31   ar
    21     1     2   am
    22     2     3    2
    23     2     4    1
    24     4     5   ar
    25     5     6   ar
    26     6     7   ar
    27     7     8   ar
    28     8     9   ar
    29     9    10   ar
    30    10    11    1
    31    10    12   ar
    32    12    13   ar
    33    13    14   ar
    34    23    17   ar
    35    31    26   ar
    36    14     4   ar
    37    12     6   ar
    38    34    35    1
@<TRIPOS>MOLECULE
*****
 35 38 0 0 0
SMALL
GASTEIGER

@<TRIPOS>ATOM
      1 N          -9.0501   -9.6301   31.5750 N.am    1  UNL1       -0.2685
      2 C         -10.4132   -9.6425   32.0384 C.2     1  UNL1        0.2672
      3 O         -11.0150   -8.5491   32.2211 O.2     1  UNL1       -0.2682
      4 C         -11.0945  -10.9184   32.3402 C.ar    1  UNL1        0.1347
      5 C         -10.6896  -11.7190   33.4179 C.ar    1  UNL1        0.0238
      6 C         -11.3463  -12.9320   33.6649 C.ar    1  UNL1        0.0040
      7 C         -10.9563  -13.7428   34.7412 C.ar    1  UNL1        0.0002
      8 C         -11.6127  -14.9503   34.9836 C.ar    1  UNL1        0.0009
      9 C         -12.6608  -15.3593   34.1572 C.ar    1  UNL1        0.0114
     10 C         -13.0660  -14.5658   33.0774 C.ar    1  UNL1        0.0591
     11 CL        -14.3956  -15.1460   32.0772 Cl      1  UNL1       -0.0822
     12 C         -12.4089  -13.3413   32.8227 C.ar    1  UNL1        0.0298
     13 C         -12.7727  -12.5058   31.7529 C.ar    1  UNL1        0.0998
     14 N         -12.1141  -11.3367   31.5432 N.ar    1  UNL1       -0.2392
     15 C          -9.1519  -11.7988   30.3487 C.3     1  UNL1        0.0265
     16 C          -8.7139  -10.3253   30.3170 C.3     1  UNL1        0.1007
     17 C          -7.2462  -10.1151   29.9722 C.ar    1  UNL1        0.0234
     18 C          -6.8404   -9.3549   28.8547 C.ar    1  UNL1        0.0019
     19 C          -5.4851   -9.2199   28.5411 C.ar    1  UNL1        0.0295
     20 C          -4.5172   -9.8502   29.3243 C.ar    1  UNL1        0.1424
     21 F          -3.2036   -9.7191   29.0155 F       1  UNL1       -0.2041
     22 C          -4.9033  -10.6234   30.4204 C.ar    1  UNL1        0.0590
     23 C          -6.2571  -10.7638   30.7414 C.ar    1  UNL1        0.1399
     24 F          -6.6016  -11.5397   31.8009 F       1  UNL1       -0.2044
     25 C          -8.1002   -8.7130   32.2237 C.3     1  UNL1        0.1207
     26 C          -8.1067   -7.3769   31.5273 C.ar    1  UNL1       -0.0021
     27 C          -6.9012   -6.7091   31.2635 C.ar    1  UNL1       -0.0026
     28 C          -6.9058   -5.4963   30.5725 C.ar    1  UNL1       -0.0001
     29 C          -8.1101   -4.9435   30.1307 C.ar    1  UNL1        0.0064
     30 C          -9.3277   -5.6027   30.3761 C.ar    1  UNL1        0.0752
     31 C          -9.3152   -6.8220   31.0762 C.ar    1  UNL1        0.0038
     32 C         -10.6057   -5.0282   29.9006 C.2     1  UNL1        0.3380
     33 O         -10.6699   -3.8201   29.5450 O.2     1  UNL1       -0.2451
     34 O         -11.7512   -5.8180   29.8400 O.3     1  UNL1       -0.4771
     35 H         -12.6308   -5.4349   29.5150 H       1  UNL1        0.2954
@<TRIPOS>BOND
     1    15    16    1
     2    16    17    1
     3    17    18   ar
     4    18    19   ar
     5    19    20   ar
     6    20    21    1
     7    20    22   ar
     8    22    23   ar
     9    23    24    1
    10    16     1    1
    11     1    25    1
    12    25    26    1
    13    26    27   ar
    14    27    28   ar
    15    28    29   ar
    16    29    30   ar
    17    30    32    1
    18    32    33    2
    19    32    34    1
    20    30    31   ar
    21     1     2   am
    22     2     3    2
    23     2     4    1
    24     4     5   ar
    25     5     6   ar
    26     6     7   ar
    27     7     8   ar
    28     8     9   ar
    29     9    10   ar
    30    10    11    1
    31    10    12   ar
    32    12    13   ar
    33    13    14   ar
    34    23    17   ar
    35    31    26   ar
    36    14     4   ar
    37    12     6   ar
    38    34    35    1
@<TRIPOS>MOLECULE
*****
 35 38 0 0 0
SMALL
GASTEIGER

@<TRIPOS>ATOM
      1 N          -9.3065  -10.8220   30.2391 N.am    1  UNL1       -0.2685
      2 C          -9.9600  -12.0906   30.0479 C.2     1  UNL1        0.2672
      3 O          -9.9329  -12.6358   28.9108 O.2     1  UNL1       -0.2682
      4 C         -10.6939  -12.7344   31.1570 C.ar    1  UNL1        0.1347
      5 C         -11.3168  -13.9792   30.9878 C.ar    1  UNL1        0.0238
      6 C         -12.0198  -14.5529   32.0556 C.ar    1  UNL1        0.0040
      7 C         -12.6454  -15.7993   31.9043 C.ar    1  UNL1        0.0002
      8 C         -13.3448  -16.3672   32.9702 C.ar    1  UNL1        0.0009
      9 C         -13.4267  -15.6991   34.1931 C.ar    1  UNL1        0.0114
     10 C         -12.8103  -14.4541   34.3659 C.ar    1  UNL1        0.0591
     11 CL        -12.9562  -13.6693   35.9368 Cl      1  UNL1       -0.0822
     12 C         -12.0993  -13.8699   33.2938 C.ar    1  UNL1        0.0298
     13 C         -11.4624  -12.6227   33.4104 C.ar    1  UNL1        0.0998
     14 N         -10.7897  -12.0966   32.3544 N.ar    1  UNL1       -0.2392
     15 C          -8.6933   -9.8474   32.4508 C.3     1  UNL1        0.0265
     16 C          -8.2448  -10.7084   31.2584 C.3     1  UNL1        0.1007
     17 C          -6.9403  -10.2582   30.6159 C.ar    1  UNL1        0.0234
     18 C          -6.3728   -8.9933   30.8792 C.ar    1  UNL1        0.0019
     19 C          -5.1973   -8.5940   30.2370 C.ar    1  UNL1        0.0295
     20 C          -4.5793   -9.4397   29.3149 C.ar    1  UNL1        0.1424
     21 F          -3.4405   -9.0479   28.6920 F       1  UNL1       -0.2041
     22 C          -5.1397  -10.6852   29.0273 C.ar    1  UNL1        0.0590
     23 C          -6.3156  -11.0927   29.6652 C.ar    1  UNL1        0.1399
     24 F          -6.8472  -12.3011   29.3482 F       1  UNL1       -0.2044
     25 C          -9.5315   -9.7632   29.2427 C.3     1  UNL1        0.1207
     26 C         -10.3993   -8.6767   29.8230 C.ar    1  UNL1       -0.0021
     27 C         -11.5021   -9.0036   30.6265 C.ar    1  UNL1       -0.0026
     28 C         -12.2739   -7.9948   31.2053 C.ar    1  UNL1       -0.0001
     29 C         -11.9483   -6.6527   30.9960 C.ar    1  UNL1        0.0064
     30 C         -10.8407   -6.3049   30.2025 C.ar    1  UNL1        0.0752
     31 C         -10.0704   -7.3267   29.6196 C.ar    1  UNL1        0.0038
     32 C         -10.4835   -4.8854   29.9864 C.2     1  UNL1        0.3380
     33 O          -9.2753   -4.5388   29.8862 O.2     1  UNL1       -0.2451
     34 O         -11.4801   -3.9174   29.8901 O.3     1  UNL1       -0.4771
     35 H         -11.2466   -2.9430   29.7411 H       1  UNL1        0.2954
@<TRIPOS>BOND
     1    15    16    1
     2    16    17    1
     3    17    18   ar
     4    18    19   ar
     5    19    20   ar
     6    20    21    1
     7    20    22   ar
     8    22    23   ar
     9    23    24    1
    10    16     1    1
    11     1    25    1
    12    25    26    1
    13    26    27   ar
    14    27    28   ar
    15    28    29   ar
    16    29    30   ar
    17    30    32    1
    18    32    33    2
    19    32    34    1
    20    30    31   ar
    21     1     2   am
    22     2     3    2
    23     2     4    1
    24     4     5   ar
    25     5     6   ar
    26     6     7   ar
    27     7     8   ar
    28     8     9   ar
    29     9    10   ar
    30    10    11    1
    31    10    12   ar
    32    12    13   ar
    33    13    14   ar
    34    23    17   ar
    35    31    26   ar
    36    14     4   ar
    37    12     6   ar
    38    34    35    1
@<TRIPOS>MOLECULE
*****
 35 38 0 0 0
SMALL
GASTEIGER

@<TRIPOS>ATOM
      1 N          -9.2143   -9.7544   30.4150 N.am    1  UNL1       -0.2685
      2 C          -9.3004  -10.2541   31.7625 C.2     1  UNL1        0.2672
      3 O          -8.6664   -9.6678   32.6819 O.2     1  UNL1       -0.2682
      4 C         -10.0875  -11.4669   32.0671 C.ar    1  UNL1        0.1347
      5 C         -10.2612  -11.9055   33.3876 C.ar    1  UNL1        0.0238
      6 C         -10.9988  -13.0700   33.6395 C.ar    1  UNL1        0.0040
      7 C         -11.1853  -13.5203   34.9549 C.ar    1  UNL1        0.0002
      8 C         -11.9203  -14.6808   35.2014 C.ar    1  UNL1        0.0009
      9 C         -12.4742  -15.4009   34.1416 C.ar    1  UNL1        0.0114
     10 C         -12.3000  -14.9697   32.8211 C.ar    1  UNL1        0.0591
     11 CL        -13.0274  -15.9292   31.5345 Cl      1  UNL1       -0.0822
     12 C         -11.5580  -13.7961   32.5597 C.ar    1  UNL1        0.0298
     13 C         -11.3506  -13.3177   31.2548 C.ar    1  UNL1        0.0998
     14 N         -10.6303  -12.1852   31.0477 N.ar    1  UNL1       -0.2392
     15 C         -10.1751   -8.9365   28.2643 C.3     1  UNL1        0.0265
     16 C         -10.4526   -9.3554   29.7175 C.3     1  UNL1        0.1007
     17 C         -11.2097   -8.3182   30.5349 C.ar    1  UNL1        0.0234
     18 C         -10.8252   -6.9607   30.5639 C.ar    1  UNL1        0.0019
     19 C         -11.5155   -6.0434   31.3611 C.ar    1  UNL1        0.0295
     20 C         -12.5862   -6.4654   32.1503 C.ar    1  UNL1        0.1424
     21 F         -13.2518   -5.5731   32.9243 F       1  UNL1       -0.2041
     22 C         -12.9653   -7.8087   32.1492 C.ar    1  UNL1        0.0590
     23 C         -12.2803   -8.7333   31.3546 C.ar    1  UNL1        0.1399
     24 F         -12.6597  -10.0363   31.3917 F       1  UNL1       -0.2044
     25 C          -7.8870   -9.4132   29.8800 C.3     1  UNL1        0.1207
     26 C          -7.3654   -8.1619   30.5377 C.ar    1  UNL1       -0.0021
     27 C          -7.9759   -6.9232   30.2893 C.ar    1  UNL1       -0.0026
     28 C          -7.5239   -5.7736   30.9394 C.ar    1  UNL1       -0.0001
     29 C          -6.4665   -5.8500   31.8489 C.ar    1  UNL1        0.0064
     30 C          -5.8485   -7.0839   32.1192 C.ar    1  UNL1        0.0752
     31 C          -6.3069   -8.2367   31.4574 C.ar    1  UNL1        0.0038
     32 C          -4.7356   -7.1735   33.0901 C.2     1  UNL1        0.3380
     33 O          -3.6447   -6.5815   32.8677 O.2     1  UNL1       -0.2451
     34 O          -4.8833   -7.9125   34.2613 O.3     1  UNL1       -0.4771
     35 H          -4.1281   -7.9794   34.9332 H       1  UNL1        0.2954
@<TRIPOS>BOND
     1    15    16    1
     2    16    17    1
     3    17    18   ar
     4    18    19   ar
     5    19    20   ar
     6    20    21    1
     7    20    22   ar
     8    22    23   ar
     9    23    24    1
    10    16     1    1
    11     1    25    1
    12    25    26    1
    13    26    27   ar
    14    27    28   ar
    15    28    29   ar
    16    29    30   ar
    17    30    32    1
    18    32    33    2
    19    32    34    1
    20    30    31   ar
    21     1     2   am
    22     2     3    2
    23     2     4    1
    24     4     5   ar
    25     5     6   ar
    26     6     7   ar
    27     7     8   ar
    28     8     9   ar
    29     9    10   ar
    30    10    11    1
    31    10    12   ar
    32    12    13   ar
    33    13    14   ar
    34    23    17   ar
    35    31    26   ar
    36    14     4   ar
    37    12     6   ar
    38    34    35    1
