@<TRIPOS>MOLECULE
*****
 39 43 0 0 0
SMALL
GASTEIGER

@<TRIPOS>ATOM
      1 C          49.1945   12.8902  -20.7725 C.2     1  UNL1        0.2506
      2 O          49.3264   13.9844  -21.3861 O.2     1  UNL1       -0.2699
      3 N          48.6949   11.7311  -21.4735 N.am    1  UNL1       -0.2680
      4 C          47.7849   10.7938  -20.8105 C.3     1  UNL1        0.1412
      5 C          46.3975   11.4226  -20.6855 C.3     1  UNL1        0.2268
      6 O          46.1940   12.4627  -21.6434 O.3     1  UNL1       -0.4739
      7 C          46.3031   12.2804  -23.0273 C.ar    1  UNL1        0.1362
      8 C          45.1750   12.5575  -23.8056 C.ar    1  UNL1        0.0366
      9 C          45.2048   12.3966  -25.1902 C.ar    1  UNL1        0.0031
     10 C          46.3753   11.9642  -25.8303 C.ar    1  UNL1       -0.0000
     11 C          47.5196   11.7084  -25.0560 C.ar    1  UNL1        0.0004
     12 C          47.5068   11.8659  -23.6588 C.ar    1  UNL1        0.0317
     13 C          48.8191   11.6356  -22.9306 C.3     1  UNL1        0.1236
     14 C          46.4084   11.7903  -27.3047 C.ar    1  UNL1        0.0015
     15 C          46.7940   10.5442  -27.8737 C.ar    1  UNL1        0.0016
     16 C          46.8283   10.3679  -29.2697 C.ar    1  UNL1        0.0206
     17 C          46.4760   11.4503  -30.0685 C.ar    1  UNL1        0.0981
     18 N          46.4325   11.5016  -31.4120 N.ar    1  UNL1       -0.2312
     19 C          46.0326   12.7798  -31.6482 C.ar    1  UNL1        0.1170
     20 N          45.8166   13.5018  -30.5209 N.ar    1  UNL1       -0.3408
     21 C          46.1057   12.6460  -29.5335 C.ar    1  UNL1        0.0753
     22 C          46.0551   12.8630  -28.1595 C.ar    1  UNL1        0.0185
     23 H          45.4906   14.4908  -30.4410 H       1  UNL1        0.1671
     24 C          45.7825   13.3132  -33.0239 C.3     1  UNL1        0.0637
     25 C          44.5043   12.7196  -33.6038 C.3     1  UNL1        0.0084
     26 C          50.8451   12.5985  -18.8773 C.ar    1  UNL1        0.0503
     27 C          51.0848   12.5112  -17.4922 C.ar    1  UNL1        0.0328
     28 C          50.0407   12.6645  -16.5727 C.ar    1  UNL1        0.1069
     29 C          48.7471   12.9296  -17.0310 C.ar    1  UNL1        0.0186
     30 C          48.4918   13.0168  -18.3992 C.ar    1  UNL1        0.0071
     31 C          49.5249   12.8365  -19.3319 C.ar    1  UNL1        0.0667
     32 S          50.3693   12.5742  -14.8454 S.O2    1  UNL1        0.0105
     33 C          51.9877   13.2338  -14.5182 C.3     1  UNL1        0.1816
     34 O          49.3423   13.3659  -14.0853 O.2     1  UNL1       -0.1686
     35 O          50.3067   11.1425  -14.3923 O.2     1  UNL1       -0.1686
     36 N          51.9347   12.5053  -19.8179 N.pl3   1  UNL1       -0.3325
     37 H          52.0802   11.6131  -20.3416 H       1  UNL1        0.1468
     38 C          52.7932   13.9589  -21.5939 C.3     1  UNL1        0.0229
     39 C          52.8550   13.6022  -20.1139 C.3     1  UNL1        0.0871
@<TRIPOS>BOND
     1    38    39    1
     2    39    36    1
     3    36    26    1
     4    26    27   ar
     5    27    28   ar
     6    28    32    1
     7    32    33    1
     8    32    34    2
     9    32    35    2
    10    28    29   ar
    11    29    30   ar
    12    30    31   ar
    13    31     1    1
    14     1     2    2
    15     1     3   am
    16     3     4    1
    17     4     5    1
    18     5     6    1
    19     6     7    1
    20     7     8   ar
    21     8     9   ar
    22     9    10   ar
    23    10    14    1
    24    14    15   ar
    25    15    16   ar
    26    16    17   ar
    27    17    18   ar
    28    18    19   ar
    29    19    24    1
    30    24    25    1
    31    19    20   ar
    32    20    21   ar
    33    21    22   ar
    34    10    11   ar
    35    11    12   ar
    36    12    13    1
    37    31    26   ar
    38    13     3    1
    39    12     7   ar
    40    22    14   ar
    41    21    17   ar
    42    36    37    1
    43    20    23    1
@<TRIPOS>MOLECULE
*****
 39 43 0 0 0
SMALL
GASTEIGER

@<TRIPOS>ATOM
      1 C          49.8449   10.8233  -20.4771 C.2     1  UNL1        0.2506
      2 O          50.5371    9.7693  -20.5080 O.2     1  UNL1       -0.2699
      3 N          49.4087   11.4307  -21.7121 N.am    1  UNL1       -0.2680
      4 C          49.3791   12.8883  -21.8564 C.3     1  UNL1        0.1412
      5 C          50.8042   13.4220  -21.9974 C.3     1  UNL1        0.2268
      6 O          51.7078   12.4170  -22.4606 O.3     1  UNL1       -0.4739
      7 C          51.5440   11.7146  -23.6606 C.ar    1  UNL1        0.1362
      8 C          52.5651   11.8134  -24.6107 C.ar    1  UNL1        0.0366
      9 C          52.4729   11.1459  -25.8312 C.ar    1  UNL1        0.0031
     10 C          51.3554   10.3504  -26.1235 C.ar    1  UNL1       -0.0000
     11 C          50.3379   10.2271  -25.1623 C.ar    1  UNL1        0.0004
     12 C          50.4152   10.8932  -23.9264 C.ar    1  UNL1        0.0317
     13 C          49.2972   10.6287  -22.9336 C.3     1  UNL1        0.1236
     14 C          51.2544    9.6402  -27.4237 C.ar    1  UNL1        0.0015
     15 C          52.4036    9.4814  -28.2479 C.ar    1  UNL1        0.0016
     16 C          52.3196    8.8095  -29.4818 C.ar    1  UNL1        0.0206
     17 C          51.0793    8.3114  -29.8655 C.ar    1  UNL1        0.0981
     18 N          50.7752    7.6376  -30.9893 N.ar    1  UNL1       -0.2312
     19 C          49.4435    7.4029  -30.8443 C.ar    1  UNL1        0.1170
     20 N          48.9266    7.8845  -29.6869 N.ar    1  UNL1       -0.3408
     21 C          49.9745    8.4584  -29.0839 C.ar    1  UNL1        0.0753
     22 C          50.0130    9.1128  -27.8560 C.ar    1  UNL1        0.0185
     23 H          47.9435    7.8150  -29.3414 H       1  UNL1        0.1671
     24 C          48.6424    6.6199  -31.8368 C.3     1  UNL1        0.0637
     25 C          49.5437    6.0635  -32.9323 C.3     1  UNL1        0.0084
     26 C          48.1929   11.6311  -18.7394 C.ar    1  UNL1        0.0503
     27 C          47.9591   12.2585  -17.5002 C.ar    1  UNL1        0.0328
     28 C          49.0254   12.6722  -16.6935 C.ar    1  UNL1        0.1069
     29 C          50.3396   12.4413  -17.1098 C.ar    1  UNL1        0.0186
     30 C          50.5889   11.8236  -18.3350 C.ar    1  UNL1        0.0071
     31 C          49.5284   11.4301  -19.1660 C.ar    1  UNL1        0.0667
     32 S          48.7079   13.4333  -15.1380 S.O2    1  UNL1        0.0105
     33 C          47.6801   14.8637  -15.3806 C.3     1  UNL1        0.1816
     34 O          48.0105   12.4640  -14.2250 O.2     1  UNL1       -0.1686
     35 O          50.0056   13.8463  -14.5022 O.2     1  UNL1       -0.1686
     36 N          47.0921   11.1478  -19.5364 N.pl3   1  UNL1       -0.3325
     37 H          47.0009   10.1215  -19.7095 H       1  UNL1        0.1468
     38 C          44.8058   11.9804  -19.2467 C.3     1  UNL1        0.0229
     39 C          46.0597   12.0086  -20.1118 C.3     1  UNL1        0.0871
@<TRIPOS>BOND
     1    38    39    1
     2    39    36    1
     3    36    26    1
     4    26    27   ar
     5    27    28   ar
     6    28    32    1
     7    32    33    1
     8    32    34    2
     9    32    35    2
    10    28    29   ar
    11    29    30   ar
    12    30    31   ar
    13    31     1    1
    14     1     2    2
    15     1     3   am
    16     3     4    1
    17     4     5    1
    18     5     6    1
    19     6     7    1
    20     7     8   ar
    21     8     9   ar
    22     9    10   ar
    23    10    14    1
    24    14    15   ar
    25    15    16   ar
    26    16    17   ar
    27    17    18   ar
    28    18    19   ar
    29    19    24    1
    30    24    25    1
    31    19    20   ar
    32    20    21   ar
    33    21    22   ar
    34    10    11   ar
    35    11    12   ar
    36    12    13    1
    37    31    26   ar
    38    13     3    1
    39    12     7   ar
    40    22    14   ar
    41    21    17   ar
    42    36    37    1
    43    20    23    1
@<TRIPOS>MOLECULE
*****
 39 43 0 0 0
SMALL
GASTEIGER

@<TRIPOS>ATOM
      1 C          49.9270   10.6016  -20.6558 C.2     1  UNL1        0.2506
      2 O          50.6890    9.5980  -20.7136 O.2     1  UNL1       -0.2699
      3 N          49.3874   11.1628  -21.8717 N.am    1  UNL1       -0.2680
      4 C          49.2484   12.6130  -22.0260 C.3     1  UNL1        0.1412
      5 C          50.6238   13.2429  -22.2442 C.3     1  UNL1        0.2268
      6 O          51.5709   12.2979  -22.7449 O.3     1  UNL1       -0.4739
      7 C          51.3963   11.5718  -23.9293 C.ar    1  UNL1        0.1362
      8 C          52.3587   11.7305  -24.9313 C.ar    1  UNL1        0.0366
      9 C          52.2518   11.0440  -26.1400 C.ar    1  UNL1        0.0031
     10 C          51.1795   10.1693  -26.3682 C.ar    1  UNL1       -0.0000
     11 C          50.2230    9.9867  -25.3552 C.ar    1  UNL1        0.0004
     12 C          50.3159   10.6709  -24.1303 C.ar    1  UNL1        0.0317
     13 C          49.2708   10.3408  -23.0794 C.3     1  UNL1        0.1236
     14 C          51.0629    9.4388  -27.6557 C.ar    1  UNL1        0.0015
     15 C          52.2185    9.1860  -28.4468 C.ar    1  UNL1        0.0016
     16 C          52.1199    8.4940  -29.6684 C.ar    1  UNL1        0.0206
     17 C          50.8587    8.0707  -30.0735 C.ar    1  UNL1        0.0981
     18 N          50.5377    7.3937  -31.1907 N.ar    1  UNL1       -0.2312
     19 C          49.1902    7.2509  -31.0751 C.ar    1  UNL1        0.1170
     20 N          48.6787    7.7912  -29.9415 N.ar    1  UNL1       -0.3408
     21 C          49.7476    8.3077  -29.3236 C.ar    1  UNL1        0.0753
     22 C          49.7999    8.9851  -28.1088 C.ar    1  UNL1        0.0185
     23 H          47.6851    7.7944  -29.6199 H       1  UNL1        0.1671
     24 C          48.3629    6.5008  -32.0715 C.3     1  UNL1        0.0637
     25 C          49.2193    6.0545  -33.2503 C.3     1  UNL1        0.0084
     26 C          50.6479   11.8023  -18.5487 C.ar    1  UNL1        0.0503
     27 C          50.3138   12.3110  -17.2785 C.ar    1  UNL1        0.0328
     28 C          49.0017   12.2337  -16.7976 C.ar    1  UNL1        0.1069
     29 C          48.0039   11.6652  -17.5945 C.ar    1  UNL1        0.0186
     30 C          48.3180   11.1544  -18.8536 C.ar    1  UNL1        0.0071
     31 C          49.6355   11.2001  -19.3351 C.ar    1  UNL1        0.0667
     32 S          48.6038   12.8976  -15.2163 S.O2    1  UNL1        0.0105
     33 C          50.0991   13.3949  -14.3928 C.3     1  UNL1        0.1816
     34 O          47.6980   14.0869  -15.3719 O.2     1  UNL1       -0.1686
     35 O          47.8968   11.8572  -14.3937 O.2     1  UNL1       -0.1686
     36 N          51.9869   11.9431  -19.0666 N.pl3   1  UNL1       -0.3325
     37 H          52.5322   11.0853  -19.3080 H       1  UNL1        0.1468
     38 C          53.8857   13.0388  -20.1612 C.3     1  UNL1        0.0229
     39 C          52.6399   13.2294  -19.3049 C.3     1  UNL1        0.0871
@<TRIPOS>BOND
     1    38    39    1
     2    39    36    1
     3    36    26    1
     4    26    27   ar
     5    27    28   ar
     6    28    32    1
     7    32    33    1
     8    32    34    2
     9    32    35    2
    10    28    29   ar
    11    29    30   ar
    12    30    31   ar
    13    31     1    1
    14     1     2    2
    15     1     3   am
    16     3     4    1
    17     4     5    1
    18     5     6    1
    19     6     7    1
    20     7     8   ar
    21     8     9   ar
    22     9    10   ar
    23    10    14    1
    24    14    15   ar
    25    15    16   ar
    26    16    17   ar
    27    17    18   ar
    28    18    19   ar
    29    19    24    1
    30    24    25    1
    31    19    20   ar
    32    20    21   ar
    33    21    22   ar
    34    10    11   ar
    35    11    12   ar
    36    12    13    1
    37    31    26   ar
    38    13     3    1
    39    12     7   ar
    40    22    14   ar
    41    21    17   ar
    42    36    37    1
    43    20    23    1
@<TRIPOS>MOLECULE
*****
 39 43 0 0 0
SMALL
GASTEIGER

@<TRIPOS>ATOM
      1 C          49.7413   10.5390  -20.6803 C.2     1  UNL1        0.2506
      2 O          50.4702    9.5121  -20.7533 O.2     1  UNL1       -0.2699
      3 N          49.1816   11.1076  -21.8836 N.am    1  UNL1       -0.2680
      4 C          49.0821   12.5603  -22.0454 C.3     1  UNL1        0.1412
      5 C          50.4685   13.1461  -22.3109 C.3     1  UNL1        0.2268
      6 O          51.3705   12.1689  -22.8329 O.3     1  UNL1       -0.4739
      7 C          51.1372   11.4399  -24.0054 C.ar    1  UNL1        0.1362
      8 C          52.0724   11.5617  -25.0377 C.ar    1  UNL1        0.0366
      9 C          51.9073   10.8701  -26.2369 C.ar    1  UNL1        0.0031
     10 C          50.8023   10.0271  -26.4248 C.ar    1  UNL1       -0.0000
     11 C          49.8726    9.8813  -25.3814 C.ar    1  UNL1        0.0004
     12 C          50.0242   10.5711  -24.1655 C.ar    1  UNL1        0.0317
     13 C          49.0027   10.2809  -23.0803 C.3     1  UNL1        0.1236
     14 C          50.6236    9.2911  -27.7021 C.ar    1  UNL1        0.0015
     15 C          49.3215    8.9302  -28.1485 C.ar    1  UNL1        0.0016
     16 C          49.1403    8.2332  -29.3578 C.ar    1  UNL1        0.0206
     17 C          50.2738    7.9097  -30.0955 C.ar    1  UNL1        0.0981
     18 N          50.3321    7.2589  -31.2713 N.ar    1  UNL1       -0.2312
     19 C          51.6679    7.2197  -31.5237 C.ar    1  UNL1        0.1170
     20 N          52.4216    7.8246  -30.5726 N.ar    1  UNL1       -0.3408
     21 C          51.5234    8.2508  -29.6768 C.ar    1  UNL1        0.0753
     22 C          51.7479    8.9422  -28.4898 C.ar    1  UNL1        0.0185
     23 H          53.4593    7.9404  -30.5492 H       1  UNL1        0.1671
     24 C          52.2430    6.6296  -32.7731 C.3     1  UNL1        0.0637
     25 C          53.6858    6.1956  -32.5449 C.3     1  UNL1        0.0084
     26 C          50.5711   11.6862  -18.5835 C.ar    1  UNL1        0.0503
     27 C          50.2897   12.2163  -17.3093 C.ar    1  UNL1        0.0328
     28 C          48.9818   12.2297  -16.8111 C.ar    1  UNL1        0.1069
     29 C          47.9367   11.7318  -17.5945 C.ar    1  UNL1        0.0186
     30 C          48.1982   11.2010  -18.8574 C.ar    1  UNL1        0.0071
     31 C          49.5093   11.1557  -19.3562 C.ar    1  UNL1        0.0667
     32 S          48.6516   12.9188  -15.2251 S.O2    1  UNL1        0.0105
     33 C          50.1838   13.3948  -14.4588 C.3     1  UNL1        0.1816
     34 O          47.7648   14.1245  -15.3637 O.2     1  UNL1       -0.1686
     35 O          47.9525   11.9021  -14.3669 O.2     1  UNL1       -0.1686
     36 N          51.9096   11.7344  -19.1190 N.pl3   1  UNL1       -0.3325
     37 H          52.2697   10.9188  -19.6638 H       1  UNL1        0.1468
     38 C          52.3555   14.0258  -19.8638 C.3     1  UNL1        0.0229
     39 C          52.8087   12.8777  -18.9705 C.3     1  UNL1        0.0871
@<TRIPOS>BOND
     1    38    39    1
     2    39    36    1
     3    36    26    1
     4    26    27   ar
     5    27    28   ar
     6    28    32    1
     7    32    33    1
     8    32    34    2
     9    32    35    2
    10    28    29   ar
    11    29    30   ar
    12    30    31   ar
    13    31     1    1
    14     1     2    2
    15     1     3   am
    16     3     4    1
    17     4     5    1
    18     5     6    1
    19     6     7    1
    20     7     8   ar
    21     8     9   ar
    22     9    10   ar
    23    10    14    1
    24    14    15   ar
    25    15    16   ar
    26    16    17   ar
    27    17    18   ar
    28    18    19   ar
    29    19    24    1
    30    24    25    1
    31    19    20   ar
    32    20    21   ar
    33    21    22   ar
    34    10    11   ar
    35    11    12   ar
    36    12    13    1
    37    31    26   ar
    38    13     3    1
    39    12     7   ar
    40    22    14   ar
    41    21    17   ar
    42    36    37    1
    43    20    23    1
@<TRIPOS>MOLECULE
*****
 39 43 0 0 0
SMALL
GASTEIGER

@<TRIPOS>ATOM
      1 C          46.4494   12.8513  -25.7265 C.2     1  UNL1        0.2506
      2 O          45.5396   13.3556  -25.0130 O.2     1  UNL1       -0.2699
      3 N          47.6008   12.2476  -25.0987 N.am    1  UNL1       -0.2680
      4 C          48.9355   12.4030  -25.6824 C.3     1  UNL1        0.1412
      5 C          49.4420   13.8246  -25.4407 C.3     1  UNL1        0.2268
      6 O          48.7870   14.4441  -24.3325 O.3     1  UNL1       -0.4739
      7 C          48.7819   13.9165  -23.0356 C.ar    1  UNL1        0.1362
      8 C          49.3239   14.7052  -22.0160 C.ar    1  UNL1        0.0366
      9 C          49.3579   14.2472  -20.6996 C.ar    1  UNL1        0.0031
     10 C          48.8357   12.9875  -20.3717 C.ar    1  UNL1       -0.0000
     11 C          48.2669   12.2012  -21.3879 C.ar    1  UNL1        0.0004
     12 C          48.2242   12.6480  -22.7204 C.ar    1  UNL1        0.0317
     13 C          47.5192   11.7510  -23.7223 C.3     1  UNL1        0.1236
     14 C          48.8728   12.4972  -18.9705 C.ar    1  UNL1        0.0015
     15 C          47.7776   11.7623  -18.4362 C.ar    1  UNL1        0.0016
     16 C          47.8023   11.2921  -17.1098 C.ar    1  UNL1        0.0206
     17 C          48.9285   11.5724  -16.3437 C.ar    1  UNL1        0.0981
     18 N          49.1646   11.2177  -15.0678 N.ar    1  UNL1       -0.2312
     19 C          50.3945   11.7490  -14.8340 C.ar    1  UNL1        0.1170
     20 N          50.9234   12.3935  -15.9034 N.ar    1  UNL1       -0.3408
     21 C          49.9809   12.2745  -16.8460 C.ar    1  UNL1        0.0753
     22 C          49.9997   12.7552  -18.1521 C.ar    1  UNL1        0.0185
     23 H          51.8530   12.8637  -15.9780 H       1  UNL1        0.1671
     24 C          51.1249   11.5718  -13.5399 C.3     1  UNL1        0.0637
     25 C          52.2172   12.6244  -13.3934 C.3     1  UNL1        0.0084
     26 C          45.9989   14.1360  -27.8591 C.ar    1  UNL1        0.0503
     27 C          45.8480   14.1297  -29.2594 C.ar    1  UNL1        0.0328
     28 C          46.0240   12.9516  -29.9944 C.ar    1  UNL1        0.1069
     29 C          46.3758   11.7701  -29.3357 C.ar    1  UNL1        0.0186
     30 C          46.5269   11.7581  -27.9494 C.ar    1  UNL1        0.0071
     31 C          46.3249   12.9264  -27.1983 C.ar    1  UNL1        0.0667
     32 S          45.8527   12.9740  -31.7464 S.O2    1  UNL1        0.0105
     33 C          44.2424   12.3636  -32.1889 C.3     1  UNL1        0.1816
     34 O          46.0154   14.3771  -32.2604 O.2     1  UNL1       -0.1686
     35 O          46.9100   12.1064  -32.3696 O.2     1  UNL1       -0.1686
     36 N          45.8811   15.3654  -27.1138 N.pl3   1  UNL1       -0.3325
     37 H          45.0711   15.4925  -26.4663 H       1  UNL1        0.1468
     38 C          47.1011   17.0314  -25.7946 C.3     1  UNL1        0.0229
     39 C          46.8482   16.4597  -27.1841 C.3     1  UNL1        0.0871
@<TRIPOS>BOND
     1    38    39    1
     2    39    36    1
     3    36    26    1
     4    26    27   ar
     5    27    28   ar
     6    28    32    1
     7    32    33    1
     8    32    34    2
     9    32    35    2
    10    28    29   ar
    11    29    30   ar
    12    30    31   ar
    13    31     1    1
    14     1     2    2
    15     1     3   am
    16     3     4    1
    17     4     5    1
    18     5     6    1
    19     6     7    1
    20     7     8   ar
    21     8     9   ar
    22     9    10   ar
    23    10    14    1
    24    14    15   ar
    25    15    16   ar
    26    16    17   ar
    27    17    18   ar
    28    18    19   ar
    29    19    24    1
    30    24    25    1
    31    19    20   ar
    32    20    21   ar
    33    21    22   ar
    34    10    11   ar
    35    11    12   ar
    36    12    13    1
    37    31    26   ar
    38    13     3    1
    39    12     7   ar
    40    22    14   ar
    41    21    17   ar
    42    36    37    1
    43    20    23    1
@<TRIPOS>MOLECULE
*****
 39 43 0 0 0
SMALL
GASTEIGER

@<TRIPOS>ATOM
      1 C          49.7808   11.7010  -20.2694 C.2     1  UNL1        0.2506
      2 O          50.6063   11.0495  -20.9661 O.2     1  UNL1       -0.2699
      3 N          48.6065   12.2655  -20.8912 N.am    1  UNL1       -0.2680
      4 C          48.1074   13.5816  -20.4849 C.3     1  UNL1        0.1412
      5 C          49.0267   14.6734  -21.0314 C.3     1  UNL1        0.2268
      6 O          49.7771   14.2241  -22.1610 O.3     1  UNL1       -0.4739
      7 C          49.1973   13.7233  -23.3330 C.ar    1  UNL1        0.1362
      8 C          49.4803   14.3905  -24.5289 C.ar    1  UNL1        0.0366
      9 C          48.9373   13.9540  -25.7365 C.ar    1  UNL1        0.0031
     10 C          48.1045   12.8262  -25.7749 C.ar    1  UNL1       -0.0000
     11 C          47.8370   12.1369  -24.5800 C.ar    1  UNL1        0.0004
     12 C          48.3767   12.5634  -23.3536 C.ar    1  UNL1        0.0317
     13 C          48.0843   11.7009  -22.1387 C.3     1  UNL1        0.1236
     14 C          47.5236   12.3609  -27.0599 C.ar    1  UNL1        0.0015
     15 C          47.5037   10.9746  -27.3804 C.ar    1  UNL1        0.0016
     16 C          46.9550   10.5223  -28.5951 C.ar    1  UNL1        0.0206
     17 C          46.4382   11.4743  -29.4671 C.ar    1  UNL1        0.0981
     18 N          45.8659   11.2665  -30.6666 N.ar    1  UNL1       -0.2312
     19 C          45.5538   12.5274  -31.0696 C.ar    1  UNL1        0.1170
     20 N          45.8918   13.4869  -30.1732 N.ar    1  UNL1       -0.3408
     21 C          46.4527   12.8025  -29.1693 C.ar    1  UNL1        0.0753
     22 C          46.9824   13.2928  -27.9791 C.ar    1  UNL1        0.0185
     23 H          45.7406   14.5179  -30.2442 H       1  UNL1        0.1671
     24 C          44.8358   12.8181  -32.3502 C.3     1  UNL1        0.0637
     25 C          45.8267   12.9566  -33.4997 C.3     1  UNL1        0.0084
     26 C          51.3337   12.3173  -18.3694 C.ar    1  UNL1        0.0503
     27 C          51.5505   12.4404  -16.9832 C.ar    1  UNL1        0.0328
     28 C          50.5267   12.1631  -16.0699 C.ar    1  UNL1        0.1069
     29 C          49.2661   11.7806  -16.5371 C.ar    1  UNL1        0.0186
     30 C          49.0351   11.6514  -17.9064 C.ar    1  UNL1        0.0071
     31 C          50.0617   11.8988  -18.8309 C.ar    1  UNL1        0.0667
     32 S          50.8151   12.3466  -14.3429 S.O2    1  UNL1        0.0105
     33 C          50.0976   10.9700  -13.4760 C.3     1  UNL1        0.1816
     34 O          52.2927   12.3949  -14.0713 O.2     1  UNL1       -0.1686
     35 O          50.1938   13.6269  -13.8591 O.2     1  UNL1       -0.1686
     36 N          52.3713   12.6672  -19.3083 N.pl3   1  UNL1       -0.3325
     37 H          53.0106   11.9205  -19.6622 H       1  UNL1        0.1468
     38 C          52.9385   13.9632  -21.3091 C.3     1  UNL1        0.0229
     39 C          52.5812   14.0173  -19.8289 C.3     1  UNL1        0.0871
@<TRIPOS>BOND
     1    38    39    1
     2    39    36    1
     3    36    26    1
     4    26    27   ar
     5    27    28   ar
     6    28    32    1
     7    32    33    1
     8    32    34    2
     9    32    35    2
    10    28    29   ar
    11    29    30   ar
    12    30    31   ar
    13    31     1    1
    14     1     2    2
    15     1     3   am
    16     3     4    1
    17     4     5    1
    18     5     6    1
    19     6     7    1
    20     7     8   ar
    21     8     9   ar
    22     9    10   ar
    23    10    14    1
    24    14    15   ar
    25    15    16   ar
    26    16    17   ar
    27    17    18   ar
    28    18    19   ar
    29    19    24    1
    30    24    25    1
    31    19    20   ar
    32    20    21   ar
    33    21    22   ar
    34    10    11   ar
    35    11    12   ar
    36    12    13    1
    37    31    26   ar
    38    13     3    1
    39    12     7   ar
    40    22    14   ar
    41    21    17   ar
    42    36    37    1
    43    20    23    1
