@<TRIPOS>MOLECULE
*****
 40 44 0 0 0
SMALL
GASTEIGER

@<TRIPOS>ATOM
      1 C         -29.8504   46.9928   -8.6214 C.3     1  UNL1        0.1333
      2 N         -28.5544   47.4517   -8.1203 N.ar    1  UNL1       -0.2950
      3 C         -27.7790   46.9013   -7.1446 C.ar    1  UNL1        0.2019
      4 N         -26.5866   47.5278   -6.9765 N.ar    1  UNL1       -0.2134
      5 C         -26.6464   48.5303   -7.8712 C.ar    1  UNL1        0.1033
      6 C         -25.6818   49.5077   -8.1039 C.ar    1  UNL1        0.0284
      7 C         -25.9369   50.4805   -9.0971 C.ar    1  UNL1        0.0922
      8 C         -27.1760   50.4580   -9.7958 C.ar    1  UNL1        0.1782
      9 C         -28.1393   49.4664   -9.5128 C.ar    1  UNL1        0.1897
     10 C         -27.8268   48.4969   -8.5564 C.ar    1  UNL1        0.1173
     11 O         -29.3716   49.4981  -10.1725 O.3     1  UNL1       -0.4669
     12 C         -29.7851   50.6505  -10.9092 C.3     1  UNL1        0.2527
     13 C         -28.5906   51.2625  -11.6498 C.3     1  UNL1        0.2526
     14 O         -27.4887   51.4292  -10.7551 O.3     1  UNL1       -0.4682
     15 C         -24.9144   51.5109   -9.3736 C.2     1  UNL1        0.2526
     16 O         -25.2504   52.7259   -9.3440 O.2     1  UNL1       -0.2697
     17 N         -23.5556   51.1386   -9.6672 N.am    1  UNL1       -0.2803
     18 H         -23.3154   50.1239   -9.7250 H       1  UNL1        0.1552
     19 C         -22.5110   52.0786   -9.9689 C.ar    1  UNL1        0.0506
     20 C         -22.4620   52.7475  -11.2031 C.ar    1  UNL1        0.0170
     21 C         -21.4525   53.6769  -11.4597 C.ar    1  UNL1        0.0309
     22 C         -20.4902   53.9595  -10.4875 C.ar    1  UNL1        0.1441
     23 F         -19.5224   54.8713  -10.7612 F       1  UNL1       -0.2042
     24 C         -20.5336   53.3157   -9.2371 C.ar    1  UNL1        0.1000
     25 C         -21.5586   52.3837   -8.9847 C.ar    1  UNL1        0.0208
     26 C         -19.4974   53.6455   -8.1893 C.3     1  UNL1        0.4207
     27 F         -19.3197   55.0117   -8.0543 F       1  UNL1       -0.1658
     28 F         -18.2876   53.0772   -8.5442 F       1  UNL1       -0.1658
     29 F         -19.8955   53.1336   -6.9675 F       1  UNL1       -0.1658
     30 N         -28.1533   45.7642   -6.3547 N.pl3   1  UNL1       -0.2814
     31 H         -27.9645   44.8180   -6.7545 H       1  UNL1        0.1551
     32 C         -28.6180   45.8500   -4.9963 C.ar    1  UNL1        0.0889
     33 C         -29.9824   46.0612   -4.7089 C.ar    1  UNL1        0.1547
     34 F         -30.8891   46.2128   -5.7067 F       1  UNL1       -0.2028
     35 C         -30.4172   46.1480   -3.3833 C.ar    1  UNL1        0.0368
     36 C         -29.5021   46.0381   -2.3343 C.ar    1  UNL1        0.0332
     37 I         -30.1661   46.1696   -0.3369 I       1  UNL1       -0.0424
     38 C         -28.1459   45.8472   -2.6089 C.ar    1  UNL1        0.0186
     39 C         -27.6991   45.7586   -3.9322 C.ar    1  UNL1        0.0737
     40 CL        -25.9864   45.4895   -4.2288 Cl      1  UNL1       -0.0809
@<TRIPOS>BOND
     1     1     2    1
     2     2     3   ar
     3     3    30    1
     4    30    32    1
     5    32    33   ar
     6    33    34    1
     7    33    35   ar
     8    35    36   ar
     9    36    37    1
    10    36    38   ar
    11    38    39   ar
    12    39    40    1
    13     3     4   ar
    14     4     5   ar
    15     5     6   ar
    16     6     7   ar
    17     7    15    1
    18    15    16    2
    19    15    17   am
    20    17    19    1
    21    19    20   ar
    22    20    21   ar
    23    21    22   ar
    24    22    23    1
    25    22    24   ar
    26    24    26    1
    27    26    27    1
    28    26    28    1
    29    26    29    1
    30    24    25   ar
    31     7     8   ar
    32     8     9   ar
    33     9    10   ar
    34     9    11    1
    35    11    12    1
    36    12    13    1
    37    13    14    1
    38    10     2   ar
    39    39    32   ar
    40    10     5   ar
    41    25    19   ar
    42    14     8    1
    43    30    31    1
    44    17    18    1
@<TRIPOS>MOLECULE
*****
 40 44 0 0 0
SMALL
GASTEIGER

@<TRIPOS>ATOM
      1 C         -22.9803   53.1257  -11.6872 C.3     1  UNL1        0.1333
      2 N         -22.8825   52.4347  -10.4010 N.ar    1  UNL1       -0.2950
      3 C         -21.8407   52.4200   -9.5231 C.ar    1  UNL1        0.2019
      4 N         -22.1039   51.7458   -8.3748 N.ar    1  UNL1       -0.2134
      5 C         -23.3572   51.2986   -8.5707 C.ar    1  UNL1        0.1033
      6 C         -24.1162   50.5177   -7.7025 C.ar    1  UNL1        0.0284
      7 C         -25.4231   50.1511   -8.0968 C.ar    1  UNL1        0.0922
      8 C         -25.9066   50.5523   -9.3733 C.ar    1  UNL1        0.1782
      9 C         -25.0969   51.3215  -10.2359 C.ar    1  UNL1        0.1897
     10 C         -23.8292   51.7007   -9.7871 C.ar    1  UNL1        0.1173
     11 O         -25.5727   51.6562  -11.5073 O.3     1  UNL1       -0.4669
     12 C         -26.7254   51.0151  -12.0565 C.3     1  UNL1        0.2527
     13 C         -27.7770   50.7896  -10.9642 C.3     1  UNL1        0.2526
     14 O         -27.1776   50.1730   -9.8226 O.3     1  UNL1       -0.4682
     15 C         -26.2511   49.3425   -7.1780 C.2     1  UNL1        0.2526
     16 O         -27.1846   49.9054   -6.5441 O.2     1  UNL1       -0.2697
     17 N         -26.0030   47.9349   -7.0104 N.am    1  UNL1       -0.2803
     18 H         -25.1977   47.5042   -7.5171 H       1  UNL1        0.1552
     19 C         -26.7477   47.0869   -6.1204 C.ar    1  UNL1        0.0506
     20 C         -28.0072   46.5776   -6.4772 C.ar    1  UNL1        0.0170
     21 C         -28.6970   45.7331   -5.6057 C.ar    1  UNL1        0.0309
     22 C         -28.1358   45.3767   -4.3771 C.ar    1  UNL1        0.1441
     23 F         -28.8258   44.5498   -3.5507 F       1  UNL1       -0.2042
     24 C         -26.8663   45.8594   -4.0097 C.ar    1  UNL1        0.1000
     25 C         -26.1750   46.7063   -4.8973 C.ar    1  UNL1        0.0208
     26 C         -26.2644   45.4503   -2.6865 C.3     1  UNL1        0.4207
     27 F         -27.1632   45.6011   -1.6444 F       1  UNL1       -0.1658
     28 F         -25.1532   46.2312   -2.4258 F       1  UNL1       -0.1658
     29 F         -25.8800   44.1228   -2.7436 F       1  UNL1       -0.1658
     30 N         -20.5741   53.0516   -9.7554 N.pl3   1  UNL1       -0.2814
     31 H         -20.0111   52.7151  -10.5682 H       1  UNL1        0.1551
     32 C         -20.1148   54.2127   -9.0418 C.ar    1  UNL1        0.0889
     33 C         -20.4811   55.5101   -9.4561 C.ar    1  UNL1        0.1547
     34 F         -21.2570   55.6979  -10.5531 F       1  UNL1       -0.2028
     35 C         -20.0215   56.6287   -8.7553 C.ar    1  UNL1        0.0368
     36 C         -19.1870   56.4704   -7.6470 C.ar    1  UNL1        0.0332
     37 I         -18.4982   58.1633   -6.5945 I       1  UNL1       -0.0424
     38 C         -18.8036   55.1905   -7.2398 C.ar    1  UNL1        0.0186
     39 C         -19.2576   54.0631   -7.9337 C.ar    1  UNL1        0.0737
     40 CL        -18.7717   52.4705   -7.3671 Cl      1  UNL1       -0.0809
@<TRIPOS>BOND
     1     1     2    1
     2     2     3   ar
     3     3    30    1
     4    30    32    1
     5    32    33   ar
     6    33    34    1
     7    33    35   ar
     8    35    36   ar
     9    36    37    1
    10    36    38   ar
    11    38    39   ar
    12    39    40    1
    13     3     4   ar
    14     4     5   ar
    15     5     6   ar
    16     6     7   ar
    17     7    15    1
    18    15    16    2
    19    15    17   am
    20    17    19    1
    21    19    20   ar
    22    20    21   ar
    23    21    22   ar
    24    22    23    1
    25    22    24   ar
    26    24    26    1
    27    26    27    1
    28    26    28    1
    29    26    29    1
    30    24    25   ar
    31     7     8   ar
    32     8     9   ar
    33     9    10   ar
    34     9    11    1
    35    11    12    1
    36    12    13    1
    37    13    14    1
    38    10     2   ar
    39    39    32   ar
    40    10     5   ar
    41    25    19   ar
    42    14     8    1
    43    30    31    1
    44    17    18    1
@<TRIPOS>MOLECULE
*****
 40 44 0 0 0
SMALL
GASTEIGER

@<TRIPOS>ATOM
      1 C         -22.8635   53.0969  -11.7743 C.3     1  UNL1        0.1333
      2 N         -22.8599   52.4318  -10.4708 N.ar    1  UNL1       -0.2950
      3 C         -21.8628   52.3883   -9.5435 C.ar    1  UNL1        0.2019
      4 N         -22.2122   51.7538   -8.3955 N.ar    1  UNL1       -0.2134
      5 C         -23.4748   51.3617   -8.6425 C.ar    1  UNL1        0.1033
      6 C         -24.3107   50.6375   -7.7961 C.ar    1  UNL1        0.0284
      7 C         -25.6136   50.3238   -8.2454 C.ar    1  UNL1        0.0922
      8 C         -26.0163   50.7178   -9.5519 C.ar    1  UNL1        0.1782
      9 C         -25.1307   51.4280  -10.3900 C.ar    1  UNL1        0.1897
     10 C         -23.8689   51.7574   -9.8883 C.ar    1  UNL1        0.1173
     11 O         -25.5291   51.7554  -11.6896 O.3     1  UNL1       -0.4669
     12 C         -26.6840   51.1567  -12.2805 C.3     1  UNL1        0.2527
     13 C         -27.7957   51.0060  -11.2359 C.3     1  UNL1        0.2526
     14 O         -27.2813   50.3884  -10.0542 O.3     1  UNL1       -0.4682
     15 C         -26.5221   49.5763   -7.3512 C.2     1  UNL1        0.2526
     16 O         -26.5598   48.3186   -7.4340 O.2     1  UNL1       -0.2697
     17 N         -27.3480   50.2678   -6.3968 N.am    1  UNL1       -0.2803
     18 H         -27.3260   51.3118   -6.3786 H       1  UNL1        0.1552
     19 C         -28.2722   49.6152   -5.5103 C.ar    1  UNL1        0.0506
     20 C         -29.5997   49.3626   -5.8933 C.ar    1  UNL1        0.0170
     21 C         -30.4690   48.7016   -5.0237 C.ar    1  UNL1        0.0309
     22 C         -30.0232   48.2744   -3.7707 C.ar    1  UNL1        0.1441
     23 F         -30.8878   47.6294   -2.9465 F       1  UNL1       -0.2042
     24 C         -28.6914   48.4993   -3.3762 C.ar    1  UNL1        0.1000
     25 C         -27.8199   49.1618   -4.2619 C.ar    1  UNL1        0.0208
     26 C         -28.2190   48.0149   -2.0262 C.3     1  UNL1        0.4207
     27 F         -28.9891   48.5293   -0.9971 F       1  UNL1       -0.1658
     28 F         -26.9066   48.4051   -1.8311 F       1  UNL1       -0.1658
     29 F         -28.2914   46.6345   -1.9784 F       1  UNL1       -0.1658
     30 N         -20.5577   52.9541   -9.7272 N.pl3   1  UNL1       -0.2814
     31 H         -19.9764   52.5778  -10.5090 H       1  UNL1        0.1551
     32 C         -20.0742   54.1032   -9.0101 C.ar    1  UNL1        0.0889
     33 C         -20.4322   55.4085   -9.4063 C.ar    1  UNL1        0.1547
     34 F         -21.2230   55.6155  -10.4891 F       1  UNL1       -0.2028
     35 C         -19.9491   56.5151   -8.7022 C.ar    1  UNL1        0.0368
     36 C         -19.0992   56.3368   -7.6087 C.ar    1  UNL1        0.0332
     37 I         -18.3750   58.0117   -6.5513 I       1  UNL1       -0.0424
     38 C         -18.7241   55.0488   -7.2197 C.ar    1  UNL1        0.0186
     39 C         -19.2016   53.9333   -7.9169 C.ar    1  UNL1        0.0737
     40 CL        -18.7250   52.3300   -7.3732 Cl      1  UNL1       -0.0809
@<TRIPOS>BOND
     1     1     2    1
     2     2     3   ar
     3     3    30    1
     4    30    32    1
     5    32    33   ar
     6    33    34    1
     7    33    35   ar
     8    35    36   ar
     9    36    37    1
    10    36    38   ar
    11    38    39   ar
    12    39    40    1
    13     3     4   ar
    14     4     5   ar
    15     5     6   ar
    16     6     7   ar
    17     7    15    1
    18    15    16    2
    19    15    17   am
    20    17    19    1
    21    19    20   ar
    22    20    21   ar
    23    21    22   ar
    24    22    23    1
    25    22    24   ar
    26    24    26    1
    27    26    27    1
    28    26    28    1
    29    26    29    1
    30    24    25   ar
    31     7     8   ar
    32     8     9   ar
    33     9    10   ar
    34     9    11    1
    35    11    12    1
    36    12    13    1
    37    13    14    1
    38    10     2   ar
    39    39    32   ar
    40    10     5   ar
    41    25    19   ar
    42    14     8    1
    43    30    31    1
    44    17    18    1
@<TRIPOS>MOLECULE
*****
 40 44 0 0 0
SMALL
GASTEIGER

@<TRIPOS>ATOM
      1 C         -24.0859   53.1477  -11.3577 C.3     1  UNL1        0.1333
      2 N         -23.7499   52.3391  -10.1853 N.ar    1  UNL1       -0.2950
      3 C         -22.5547   52.2375   -9.5392 C.ar    1  UNL1        0.2019
      4 N         -22.5995   51.4602   -8.4274 N.ar    1  UNL1       -0.2134
      5 C         -23.8768   51.0393   -8.4076 C.ar    1  UNL1        0.1033
      6 C         -24.4656   50.1843   -7.4791 C.ar    1  UNL1        0.0284
      7 C         -25.8330   49.8624   -7.6347 C.ar    1  UNL1        0.0922
      8 C         -26.5517   50.3833   -8.7466 C.ar    1  UNL1        0.1782
      9 C         -25.9124   51.2258   -9.6808 C.ar    1  UNL1        0.1897
     10 C         -24.5722   51.5554   -9.4630 C.ar    1  UNL1        0.1173
     11 O         -26.6241   51.6801  -10.7953 O.3     1  UNL1       -0.4669
     12 C         -27.8778   51.0986  -11.1578 C.3     1  UNL1        0.2527
     13 C         -28.6956   50.7770   -9.9017 C.3     1  UNL1        0.2526
     14 O         -27.8952   50.0537   -8.9643 O.3     1  UNL1       -0.4682
     15 C         -26.4800   48.9754   -6.6456 C.2     1  UNL1        0.2526
     16 O         -26.9253   47.8592   -7.0276 O.2     1  UNL1       -0.2697
     17 N         -26.5975   49.3727   -5.2674 N.am    1  UNL1       -0.2803
     18 H         -26.2564   50.3194   -4.9880 H       1  UNL1        0.1552
     19 C         -27.2325   48.5778   -4.2521 C.ar    1  UNL1        0.0506
     20 C         -28.4062   49.0090   -3.6122 C.ar    1  UNL1        0.0170
     21 C         -29.0186   48.2047   -2.6495 C.ar    1  UNL1        0.0309
     22 C         -28.4773   46.9589   -2.3234 C.ar    1  UNL1        0.1441
     23 F         -29.0956   46.1945   -1.3874 F       1  UNL1       -0.2042
     24 C         -27.3139   46.4995   -2.9678 C.ar    1  UNL1        0.1000
     25 C         -26.7058   47.3150   -3.9416 C.ar    1  UNL1        0.0208
     26 C         -26.7512   45.1425   -2.6182 C.3     1  UNL1        0.4207
     27 F         -27.4446   44.1214   -3.2451 F       1  UNL1       -0.1658
     28 F         -26.8277   44.9514   -1.2505 F       1  UNL1       -0.1658
     29 F         -25.4263   45.0759   -3.0099 F       1  UNL1       -0.1658
     30 N         -21.3454   52.8820   -9.9627 N.pl3   1  UNL1       -0.2814
     31 H         -21.4354   53.6894  -10.6191 H       1  UNL1        0.1551
     32 C         -20.0474   52.5881   -9.4174 C.ar    1  UNL1        0.0889
     33 C         -19.7235   52.9353   -8.0895 C.ar    1  UNL1        0.1547
     34 F         -20.6199   53.5772   -7.2988 F       1  UNL1       -0.2028
     35 C         -18.4555   52.6480   -7.5763 C.ar    1  UNL1        0.0368
     36 C         -17.4964   52.0259   -8.3782 C.ar    1  UNL1        0.0332
     37 I         -15.5857   51.5953   -7.5962 I       1  UNL1       -0.0424
     38 C         -17.8015   51.6946   -9.7004 C.ar    1  UNL1        0.0186
     39 C         -19.0678   51.9773  -10.2251 C.ar    1  UNL1        0.0737
     40 CL        -19.4156   51.5162  -11.8864 Cl      1  UNL1       -0.0809
@<TRIPOS>BOND
     1     1     2    1
     2     2     3   ar
     3     3    30    1
     4    30    32    1
     5    32    33   ar
     6    33    34    1
     7    33    35   ar
     8    35    36   ar
     9    36    37    1
    10    36    38   ar
    11    38    39   ar
    12    39    40    1
    13     3     4   ar
    14     4     5   ar
    15     5     6   ar
    16     6     7   ar
    17     7    15    1
    18    15    16    2
    19    15    17   am
    20    17    19    1
    21    19    20   ar
    22    20    21   ar
    23    21    22   ar
    24    22    23    1
    25    22    24   ar
    26    24    26    1
    27    26    27    1
    28    26    28    1
    29    26    29    1
    30    24    25   ar
    31     7     8   ar
    32     8     9   ar
    33     9    10   ar
    34     9    11    1
    35    11    12    1
    36    12    13    1
    37    13    14    1
    38    10     2   ar
    39    39    32   ar
    40    10     5   ar
    41    25    19   ar
    42    14     8    1
    43    30    31    1
    44    17    18    1
@<TRIPOS>MOLECULE
*****
 40 44 0 0 0
SMALL
GASTEIGER

@<TRIPOS>ATOM
      1 C         -22.8589   53.0867  -11.8577 C.3     1  UNL1        0.1333
      2 N         -22.8932   52.4383  -10.5463 N.ar    1  UNL1       -0.2950
      3 C         -21.9195   52.3979   -9.5943 C.ar    1  UNL1        0.2019
      4 N         -22.3026   51.7812   -8.4474 N.ar    1  UNL1       -0.2134
      5 C         -23.5623   51.3970   -8.7204 C.ar    1  UNL1        0.1033
      6 C         -24.4253   50.6911   -7.8857 C.ar    1  UNL1        0.0284
      7 C         -25.7196   50.3831   -8.3629 C.ar    1  UNL1        0.0922
      8 C         -26.0866   50.7639   -9.6837 C.ar    1  UNL1        0.1782
      9 C         -25.1743   51.4556  -10.5087 C.ar    1  UNL1        0.1897
     10 C         -23.9222   51.7803   -9.9804 C.ar    1  UNL1        0.1173
     11 O         -25.5378   51.7699  -11.8217 O.3     1  UNL1       -0.4669
     12 C         -26.6834   51.1738  -12.4332 C.3     1  UNL1        0.2527
     13 C         -27.8217   51.0463  -11.4144 C.3     1  UNL1        0.2526
     14 O         -27.3419   50.4394  -10.2127 O.3     1  UNL1       -0.4682
     15 C         -26.6564   49.6552   -7.4819 C.2     1  UNL1        0.2526
     16 O         -27.8735   49.5933   -7.8055 O.2     1  UNL1       -0.2697
     17 N         -26.1907   49.0216   -6.2765 N.am    1  UNL1       -0.2803
     18 H         -25.1853   49.1239   -6.0130 H       1  UNL1        0.1552
     19 C         -27.0417   48.3163   -5.3578 C.ar    1  UNL1        0.0506
     20 C         -27.2478   48.7794   -4.0479 C.ar    1  UNL1        0.0170
     21 C         -28.1018   48.0909   -3.1846 C.ar    1  UNL1        0.0309
     22 C         -28.7687   46.9430   -3.6194 C.ar    1  UNL1        0.1441
     23 F         -29.5974   46.2954   -2.7612 F       1  UNL1       -0.2042
     24 C         -28.5919   46.4743   -4.9342 C.ar    1  UNL1        0.1000
     25 C         -27.7330   47.1782   -5.8000 C.ar    1  UNL1        0.0208
     26 C         -29.3342   45.2428   -5.3957 C.3     1  UNL1        0.4207
     27 F         -29.1075   44.9779   -6.7354 F       1  UNL1       -0.1658
     28 F         -30.6919   45.4265   -5.2070 F       1  UNL1       -0.1658
     29 F         -28.9198   44.1489   -4.6576 F       1  UNL1       -0.1658
     30 N         -20.6053   52.9498   -9.7530 N.pl3   1  UNL1       -0.2814
     31 H         -20.0071   52.5561  -10.5133 H       1  UNL1        0.1551
     32 C         -20.1305   54.1063   -9.0419 C.ar    1  UNL1        0.0889
     33 C         -20.4726   55.4077   -9.4638 C.ar    1  UNL1        0.1547
     34 F         -21.2393   55.6037  -10.5659 F       1  UNL1       -0.2028
     35 C         -19.9982   56.5215   -8.7653 C.ar    1  UNL1        0.0368
     36 C         -19.1726   56.3542   -7.6516 C.ar    1  UNL1        0.0332
     37 I         -18.4613   58.0399   -6.6026 I       1  UNL1       -0.0424
     38 C         -18.8130   55.0698   -7.2368 C.ar    1  UNL1        0.0186
     39 C         -19.2821   53.9471   -7.9283 C.ar    1  UNL1        0.0737
     40 CL        -18.8261   52.3491   -7.3522 Cl      1  UNL1       -0.0809
@<TRIPOS>BOND
     1     1     2    1
     2     2     3   ar
     3     3    30    1
     4    30    32    1
     5    32    33   ar
     6    33    34    1
     7    33    35   ar
     8    35    36   ar
     9    36    37    1
    10    36    38   ar
    11    38    39   ar
    12    39    40    1
    13     3     4   ar
    14     4     5   ar
    15     5     6   ar
    16     6     7   ar
    17     7    15    1
    18    15    16    2
    19    15    17   am
    20    17    19    1
    21    19    20   ar
    22    20    21   ar
    23    21    22   ar
    24    22    23    1
    25    22    24   ar
    26    24    26    1
    27    26    27    1
    28    26    28    1
    29    26    29    1
    30    24    25   ar
    31     7     8   ar
    32     8     9   ar
    33     9    10   ar
    34     9    11    1
    35    11    12    1
    36    12    13    1
    37    13    14    1
    38    10     2   ar
    39    39    32   ar
    40    10     5   ar
    41    25    19   ar
    42    14     8    1
    43    30    31    1
    44    17    18    1
@<TRIPOS>MOLECULE
*****
 40 44 0 0 0
SMALL
GASTEIGER

@<TRIPOS>ATOM
      1 C         -29.4161   46.1947   -1.4669 C.3     1  UNL1        0.1333
      2 N         -29.6452   47.4216   -2.2309 N.ar    1  UNL1       -0.2950
      3 C         -30.5749   48.3939   -2.0154 C.ar    1  UNL1        0.2019
      4 N         -30.4668   49.4497   -2.8616 N.ar    1  UNL1       -0.2134
      5 C         -29.4407   49.0937   -3.6549 C.ar    1  UNL1        0.1033
      6 C         -28.9177   49.8137   -4.7263 C.ar    1  UNL1        0.0284
      7 C         -27.8282   49.2625   -5.4384 C.ar    1  UNL1        0.0922
      8 C         -27.3278   47.9827   -5.0698 C.ar    1  UNL1        0.1782
      9 C         -27.9021   47.2723   -3.9943 C.ar    1  UNL1        0.1897
     10 C         -28.9468   47.8748   -3.2886 C.ar    1  UNL1        0.1173
     11 O         -27.4301   45.9928   -3.6865 O.3     1  UNL1       -0.4669
     12 C         -26.5850   45.2801   -4.5918 C.3     1  UNL1        0.2527
     13 C         -25.5917   46.2402   -5.2564 C.3     1  UNL1        0.2526
     14 O         -26.2801   47.3795   -5.7765 O.3     1  UNL1       -0.4682
     15 C         -27.2456   50.0235   -6.5632 C.2     1  UNL1        0.2526
     16 O         -27.5430   51.2420   -6.6932 O.2     1  UNL1       -0.2697
     17 N         -26.3494   49.3898   -7.4940 N.am    1  UNL1       -0.2803
     18 H         -26.1533   48.3698   -7.3854 H       1  UNL1        0.1552
     19 C         -25.7611   50.0547   -8.6244 C.ar    1  UNL1        0.0506
     20 C         -26.4448   50.1644   -9.8465 C.ar    1  UNL1        0.0170
     21 C         -25.8622   50.8402  -10.9201 C.ar    1  UNL1        0.0309
     22 C         -24.6004   51.4240  -10.7849 C.ar    1  UNL1        0.1441
     23 F         -24.0590   52.0796  -11.8431 F       1  UNL1       -0.2042
     24 C         -23.9078   51.3432   -9.5628 C.ar    1  UNL1        0.1000
     25 C         -24.5054   50.6645   -8.4833 C.ar    1  UNL1        0.0208
     26 C         -22.5527   51.9955   -9.4261 C.3     1  UNL1        0.4207
     27 F         -21.6109   51.4013  -10.2486 F       1  UNL1       -0.1658
     28 F         -22.1219   51.8904   -8.1161 F       1  UNL1       -0.1658
     29 F         -22.6468   53.3333   -9.7645 F       1  UNL1       -0.1658
     30 N         -31.5828   48.3422   -0.9963 N.pl3   1  UNL1       -0.2814
     31 H         -32.3826   47.6869   -1.1441 H       1  UNL1        0.1551
     32 C         -31.4745   49.0105    0.2726 C.ar    1  UNL1        0.0889
     33 C         -31.4899   50.4184    0.3540 C.ar    1  UNL1        0.1547
     34 F         -31.5831   51.1798   -0.7651 F       1  UNL1       -0.2028
     35 C         -31.3778   51.0529    1.5943 C.ar    1  UNL1        0.0368
     36 C         -31.2381   50.2978    2.7607 C.ar    1  UNL1        0.0332
     37 I         -31.0702   51.2628    4.6284 I       1  UNL1       -0.0424
     38 C         -31.2034   48.9033    2.6887 C.ar    1  UNL1        0.0186
     39 C         -31.3148   48.2570    1.4524 C.ar    1  UNL1        0.0737
     40 CL        -31.2944   46.4987    1.4138 Cl      1  UNL1       -0.0809
@<TRIPOS>BOND
     1     1     2    1
     2     2     3   ar
     3     3    30    1
     4    30    32    1
     5    32    33   ar
     6    33    34    1
     7    33    35   ar
     8    35    36   ar
     9    36    37    1
    10    36    38   ar
    11    38    39   ar
    12    39    40    1
    13     3     4   ar
    14     4     5   ar
    15     5     6   ar
    16     6     7   ar
    17     7    15    1
    18    15    16    2
    19    15    17   am
    20    17    19    1
    21    19    20   ar
    22    20    21   ar
    23    21    22   ar
    24    22    23    1
    25    22    24   ar
    26    24    26    1
    27    26    27    1
    28    26    28    1
    29    26    29    1
    30    24    25   ar
    31     7     8   ar
    32     8     9   ar
    33     9    10   ar
    34     9    11    1
    35    11    12    1
    36    12    13    1
    37    13    14    1
    38    10     2   ar
    39    39    32   ar
    40    10     5   ar
    41    25    19   ar
    42    14     8    1
    43    30    31    1
    44    17    18    1
@<TRIPOS>MOLECULE
*****
 40 44 0 0 0
SMALL
GASTEIGER

@<TRIPOS>ATOM
      1 C         -23.3735   53.1529  -12.1713 C.3     1  UNL1        0.1333
      2 N         -23.2798   52.5162  -10.8570 N.ar    1  UNL1       -0.2950
      3 C         -22.2328   52.5203   -9.9853 C.ar    1  UNL1        0.2019
      4 N         -22.5007   51.9011   -8.8075 N.ar    1  UNL1       -0.2134
      5 C         -23.7631   51.4689   -8.9767 C.ar    1  UNL1        0.1033
      6 C         -24.5304   50.7401   -8.0713 C.ar    1  UNL1        0.0284
      7 C         -25.8462   50.3809   -8.4419 C.ar    1  UNL1        0.0922
      8 C         -26.3307   50.7355   -9.7318 C.ar    1  UNL1        0.1782
      9 C         -25.5129   51.4519  -10.6314 C.ar    1  UNL1        0.1897
     10 C         -24.2356   51.8268  -10.2066 C.ar    1  UNL1        0.1173
     11 O         -25.9907   51.7402  -11.9133 O.3     1  UNL1       -0.4669
     12 C         -27.1584   51.0972  -12.4278 C.3     1  UNL1        0.2527
     13 C         -28.2068   50.9382  -11.3207 C.3     1  UNL1        0.2526
     14 O         -27.6112   50.3606  -10.1571 O.3     1  UNL1       -0.4682
     15 C         -26.6827   49.6279   -7.4844 C.2     1  UNL1        0.2526
     16 O         -26.7235   48.3704   -7.5687 O.2     1  UNL1       -0.2697
     17 N         -27.4359   50.3139   -6.4679 N.am    1  UNL1       -0.2803
     18 H         -27.4151   51.3578   -6.4476 H       1  UNL1        0.1552
     19 C         -28.2888   49.6558   -5.5165 C.ar    1  UNL1        0.0506
     20 C         -29.6381   49.3909   -5.8033 C.ar    1  UNL1        0.0170
     21 C         -30.4374   48.7247   -4.8727 C.ar    1  UNL1        0.0309
     22 C         -29.8997   48.3045   -3.6538 C.ar    1  UNL1        0.1441
     23 F         -30.6978   47.6543   -2.7688 F       1  UNL1       -0.2042
     24 C         -28.5453   48.5417   -3.3557 C.ar    1  UNL1        0.1000
     25 C         -27.7449   49.2094   -4.3026 C.ar    1  UNL1        0.0208
     26 C         -27.9736   48.0648   -2.0419 C.3     1  UNL1        0.4207
     27 F         -28.7315   48.4937   -0.9656 F       1  UNL1       -0.1658
     28 F         -26.6874   48.5517   -1.8963 F       1  UNL1       -0.1658
     29 F         -27.9372   46.6822   -2.0276 F       1  UNL1       -0.1658
     30 N         -20.9565   53.1179  -10.2518 N.pl3   1  UNL1       -0.2814
     31 H         -20.9386   53.9546  -10.8769 H       1  UNL1        0.1551
     32 C         -19.7386   52.7359   -9.5891 C.ar    1  UNL1        0.0889
     33 C         -19.5424   53.0084   -8.2194 C.ar    1  UNL1        0.1547
     34 F         -20.4879   53.6595   -7.4963 F       1  UNL1       -0.2028
     35 C         -18.3506   52.6358   -7.5914 C.ar    1  UNL1        0.0368
     36 C         -17.3409   52.0017   -8.3182 C.ar    1  UNL1        0.0332
     37 I         -15.5457   51.4422   -7.3631 I       1  UNL1       -0.0424
     38 C         -17.5182   51.7439   -9.6795 C.ar    1  UNL1        0.0186
     39 C         -18.7073   52.1123  -10.3189 C.ar    1  UNL1        0.0737
     40 CL        -18.8969   51.7418  -12.0279 Cl      1  UNL1       -0.0809
@<TRIPOS>BOND
     1     1     2    1
     2     2     3   ar
     3     3    30    1
     4    30    32    1
     5    32    33   ar
     6    33    34    1
     7    33    35   ar
     8    35    36   ar
     9    36    37    1
    10    36    38   ar
    11    38    39   ar
    12    39    40    1
    13     3     4   ar
    14     4     5   ar
    15     5     6   ar
    16     6     7   ar
    17     7    15    1
    18    15    16    2
    19    15    17   am
    20    17    19    1
    21    19    20   ar
    22    20    21   ar
    23    21    22   ar
    24    22    23    1
    25    22    24   ar
    26    24    26    1
    27    26    27    1
    28    26    28    1
    29    26    29    1
    30    24    25   ar
    31     7     8   ar
    32     8     9   ar
    33     9    10   ar
    34     9    11    1
    35    11    12    1
    36    12    13    1
    37    13    14    1
    38    10     2   ar
    39    39    32   ar
    40    10     5   ar
    41    25    19   ar
    42    14     8    1
    43    30    31    1
    44    17    18    1
@<TRIPOS>MOLECULE
*****
 40 44 0 0 0
SMALL
GASTEIGER

@<TRIPOS>ATOM
      1 C         -22.7454   52.9622  -11.5335 C.3     1  UNL1        0.1333
      2 N         -22.8039   52.2805  -10.2400 N.ar    1  UNL1       -0.2950
      3 C         -21.8450   52.2089   -9.2749 C.ar    1  UNL1        0.2019
      4 N         -22.2494   51.5654   -8.1502 N.ar    1  UNL1       -0.2134
      5 C         -23.5073   51.1971   -8.4519 C.ar    1  UNL1        0.1033
      6 C         -24.3873   50.4757   -7.6488 C.ar    1  UNL1        0.0284
      7 C         -25.6762   50.1890   -8.1533 C.ar    1  UNL1        0.0922
      8 C         -26.0207   50.6063   -9.4691 C.ar    1  UNL1        0.1782
      9 C         -25.0915   51.3128  -10.2621 C.ar    1  UNL1        0.1897
     10 C         -23.8455   51.6151   -9.7068 C.ar    1  UNL1        0.1173
     11 O         -25.4331   51.6633  -11.5718 O.3     1  UNL1       -0.4669
     12 C         -26.5730   51.0911  -12.2157 C.3     1  UNL1        0.2527
     13 C         -27.7274   50.9451  -11.2177 C.3     1  UNL1        0.2526
     14 O         -27.2699   50.3040  -10.0251 O.3     1  UNL1       -0.4682
     15 C         -26.6309   49.4450   -7.3056 C.2     1  UNL1        0.2526
     16 O         -27.7984   49.8987   -7.1603 O.2     1  UNL1       -0.2697
     17 N         -26.2405   48.2200   -6.6589 N.am    1  UNL1       -0.2803
     18 H         -25.2553   47.8897   -6.7642 H       1  UNL1        0.1552
     19 C         -27.1021   47.4523   -5.8022 C.ar    1  UNL1        0.0506
     20 C         -28.4507   47.2320   -6.1277 C.ar    1  UNL1        0.0170
     21 C         -29.2586   46.4587   -5.2923 C.ar    1  UNL1        0.0309
     22 C         -28.7304   45.8867   -4.1325 C.ar    1  UNL1        0.1441
     23 F         -29.5368   45.1349   -3.3403 F       1  UNL1       -0.2042
     24 C         -27.3769   46.0781   -3.7993 C.ar    1  UNL1        0.1000
     25 C         -26.5677   46.8549   -4.6506 C.ar    1  UNL1        0.0208
     26 C         -26.8156   45.4378   -2.5521 C.3     1  UNL1        0.4207
     27 F         -25.6766   46.0878   -2.1087 F       1  UNL1       -0.1658
     28 F         -26.4947   44.1189   -2.8169 F       1  UNL1       -0.1658
     29 F         -27.7624   45.4786   -1.5446 F       1  UNL1       -0.1658
     30 N         -20.5249   52.7557   -9.3995 N.pl3   1  UNL1       -0.2814
     31 H         -19.8667   52.2782  -10.0549 H       1  UNL1        0.1551
     32 C         -20.1134   53.9994   -8.8060 C.ar    1  UNL1        0.0889
     33 C         -19.6858   54.0554   -7.4632 C.ar    1  UNL1        0.1547
     34 F         -19.6742   52.9414   -6.6889 F       1  UNL1       -0.2028
     35 C         -19.2945   55.2731   -6.8994 C.ar    1  UNL1        0.0368
     36 C         -19.3352   56.4448   -7.6579 C.ar    1  UNL1        0.0332
     37 I         -18.7426   58.2781   -6.8000 I       1  UNL1       -0.0424
     38 C         -19.7746   56.4029   -8.9831 C.ar    1  UNL1        0.0186
     39 C         -20.1687   55.1894   -9.5583 C.ar    1  UNL1        0.0737
     40 CL        -20.6877   55.1807  -11.2389 Cl      1  UNL1       -0.0809
@<TRIPOS>BOND
     1     1     2    1
     2     2     3   ar
     3     3    30    1
     4    30    32    1
     5    32    33   ar
     6    33    34    1
     7    33    35   ar
     8    35    36   ar
     9    36    37    1
    10    36    38   ar
    11    38    39   ar
    12    39    40    1
    13     3     4   ar
    14     4     5   ar
    15     5     6   ar
    16     6     7   ar
    17     7    15    1
    18    15    16    2
    19    15    17   am
    20    17    19    1
    21    19    20   ar
    22    20    21   ar
    23    21    22   ar
    24    22    23    1
    25    22    24   ar
    26    24    26    1
    27    26    27    1
    28    26    28    1
    29    26    29    1
    30    24    25   ar
    31     7     8   ar
    32     8     9   ar
    33     9    10   ar
    34     9    11    1
    35    11    12    1
    36    12    13    1
    37    13    14    1
    38    10     2   ar
    39    39    32   ar
    40    10     5   ar
    41    25    19   ar
    42    14     8    1
    43    30    31    1
    44    17    18    1
@<TRIPOS>MOLECULE
*****
 40 44 0 0 0
SMALL
GASTEIGER

@<TRIPOS>ATOM
      1 C         -24.0352   53.1224  -11.6351 C.3     1  UNL1        0.1333
      2 N         -23.7692   52.3645  -10.4119 N.ar    1  UNL1       -0.2950
      3 C         -22.6195   52.3062   -9.6833 C.ar    1  UNL1        0.2019
      4 N         -22.7297   51.5714   -8.5474 N.ar    1  UNL1       -0.2134
      5 C         -23.9998   51.1317   -8.5973 C.ar    1  UNL1        0.1033
      6 C         -24.6393   50.3037   -7.6779 C.ar    1  UNL1        0.0284
      7 C         -25.9887   49.9549   -7.9127 C.ar    1  UNL1        0.0922
      8 C         -26.6368   50.4218   -9.0900 C.ar    1  UNL1        0.1782
      9 C         -25.9465   51.2379  -10.0112 C.ar    1  UNL1        0.1897
     10 C         -24.6285   51.5963   -9.7166 C.ar    1  UNL1        0.1173
     11 O         -26.5865   51.6382  -11.1881 O.3     1  UNL1       -0.4669
     12 C         -27.8051   51.0238  -11.6113 C.3     1  UNL1        0.2527
     13 C         -28.7021   50.7377  -10.4016 C.3     1  UNL1        0.2526
     14 O         -27.9581   50.0633   -9.3847 O.3     1  UNL1       -0.4682
     15 C         -26.6899   49.0964   -6.9354 C.2     1  UNL1        0.2526
     16 O         -27.6675   49.5727   -6.2972 O.2     1  UNL1       -0.2697
     17 N         -26.2705   47.7372   -6.7164 N.am    1  UNL1       -0.2803
     18 H         -25.4327   47.3825   -7.2292 H       1  UNL1        0.1552
     19 C         -26.8851   46.8483   -5.7688 C.ar    1  UNL1        0.0506
     20 C         -26.1546   46.2934   -4.7051 C.ar    1  UNL1        0.0170
     21 C         -26.7826   45.4552   -3.7822 C.ar    1  UNL1        0.0309
     22 C         -28.1452   45.1712   -3.9007 C.ar    1  UNL1        0.1441
     23 F         -28.7322   44.3571   -2.9867 F       1  UNL1       -0.2042
     24 C         -28.8994   45.7334   -4.9470 C.ar    1  UNL1        0.1000
     25 C         -28.2590   46.5823   -5.8703 C.ar    1  UNL1        0.0208
     26 C         -30.3755   45.4322   -5.0512 C.3     1  UNL1        0.4207
     27 F         -31.1281   46.2623   -4.2382 F       1  UNL1       -0.1658
     28 F         -30.6049   44.1213   -4.6746 F       1  UNL1       -0.1658
     29 F         -30.7922   45.6058   -6.3586 F       1  UNL1       -0.1658
     30 N         -21.3926   52.9528  -10.0492 N.pl3   1  UNL1       -0.2814
     31 H         -21.4556   53.7788  -10.6854 H       1  UNL1        0.1551
     32 C         -20.1151   52.6339   -9.4706 C.ar    1  UNL1        0.0889
     33 C         -19.8208   52.9703   -8.1330 C.ar    1  UNL1        0.1547
     34 F         -20.7266   53.6252   -7.3640 F       1  UNL1       -0.2028
     35 C         -18.5723   52.6586   -7.5873 C.ar    1  UNL1        0.0368
     36 C         -17.6033   52.0224   -8.3658 C.ar    1  UNL1        0.0332
     37 I         -15.7222   51.5549   -7.5348 I       1  UNL1       -0.0424
     38 C         -17.8786   51.7014   -9.6971 C.ar    1  UNL1        0.0186
     39 C         -19.1252   52.0085  -10.2543 C.ar    1  UNL1        0.0737
     40 CL        -19.4365   51.5598  -11.9262 Cl      1  UNL1       -0.0809
@<TRIPOS>BOND
     1     1     2    1
     2     2     3   ar
     3     3    30    1
     4    30    32    1
     5    32    33   ar
     6    33    34    1
     7    33    35   ar
     8    35    36   ar
     9    36    37    1
    10    36    38   ar
    11    38    39   ar
    12    39    40    1
    13     3     4   ar
    14     4     5   ar
    15     5     6   ar
    16     6     7   ar
    17     7    15    1
    18    15    16    2
    19    15    17   am
    20    17    19    1
    21    19    20   ar
    22    20    21   ar
    23    21    22   ar
    24    22    23    1
    25    22    24   ar
    26    24    26    1
    27    26    27    1
    28    26    28    1
    29    26    29    1
    30    24    25   ar
    31     7     8   ar
    32     8     9   ar
    33     9    10   ar
    34     9    11    1
    35    11    12    1
    36    12    13    1
    37    13    14    1
    38    10     2   ar
    39    39    32   ar
    40    10     5   ar
    41    25    19   ar
    42    14     8    1
    43    30    31    1
    44    17    18    1
