@<TRIPOS>MOLECULE
*****
 52 57 0 0 0
SMALL
GASTEIGER

@<TRIPOS>ATOM
      1 C         -63.0597  -50.2967  -24.5033 C.ar    1  UNL1        0.0502
      2 C         -64.2148  -51.0001  -24.8761 C.ar    1  UNL1        0.0148
      3 C         -64.5368  -52.2099  -24.2563 C.ar    1  UNL1        0.0080
      4 C         -63.7050  -52.7488  -23.2592 C.ar    1  UNL1        0.0808
      5 C         -62.5501  -52.0347  -22.8779 C.ar    1  UNL1        0.1457
      6 F         -61.7457  -52.4767  -21.8792 F       1  UNL1       -0.2040
      7 C         -62.2334  -50.8230  -23.5001 C.ar    1  UNL1        0.0443
      8 N         -62.5512  -46.4697  -26.1634 N.pl3   1  UNL1       -0.2897
      9 C         -63.4726  -47.4122  -26.8097 C.3     1  UNL1        0.1136
     10 C         -63.0119  -48.8493  -26.5634 C.3     1  UNL1        0.1123
     11 N         -62.7216  -49.0494  -25.1388 N.pl3   1  UNL1       -0.3040
     12 C         -61.8026  -48.1079  -24.4888 C.3     1  UNL1        0.1123
     13 C         -62.2652  -46.6717  -24.7364 C.3     1  UNL1        0.1136
     14 C         -61.0040  -43.9244  -28.3530 C.ar    1  UNL1        0.0941
     15 N         -61.3209  -45.0974  -27.7362 N.ar    1  UNL1       -0.2326
     16 C         -62.2867  -45.1979  -26.7843 C.ar    1  UNL1        0.1314
     17 C         -62.9841  -44.0498  -26.3966 C.ar    1  UNL1        0.0343
     18 C         -62.7031  -42.8329  -27.0143 C.ar    1  UNL1        0.0080
     19 C         -61.7261  -42.7476  -28.0230 C.ar    1  UNL1        0.0875
     20 C         -61.4311  -41.4115  -28.6775 C.3     1  UNL1        0.4197
     21 F         -61.4097  -41.5147  -30.0581 F       1  UNL1       -0.1658
     22 F         -62.4079  -40.4989  -28.3243 F       1  UNL1       -0.1658
     23 F         -60.1959  -40.9403  -28.2711 F       1  UNL1       -0.1658
     24 C         -59.9278  -43.9396  -29.4094 C.3     1  UNL1        0.1876
     25 C         -59.6114  -44.5191  -31.6177 C.3     1  UNL1        0.1747
     26 O         -60.2488  -44.8814  -30.4134 O.3     1  UNL1       -0.3447
     27 C         -64.0749  -54.0357  -22.6214 C.2     1  UNL1        0.2483
     28 O         -63.1636  -54.8471  -22.3004 O.2     1  UNL1       -0.2701
     29 N         -65.4456  -54.3529  -22.3265 N.am    1  UNL1       -0.2945
     30 H         -66.1470  -53.5808  -22.3713 H       1  UNL1        0.1501
     31 C         -65.8533  -55.6771  -21.8315 C.3     1  UNL1        0.1535
     32 C         -66.8905  -55.5683  -20.7369 C.2     1  UNL1        0.2443
     33 O         -66.7201  -56.1755  -19.6438 O.2     1  UNL1       -0.2730
     34 N         -68.0002  -54.6705  -20.8997 N.am    1  UNL1       -0.2825
     35 H         -67.9737  -54.0063  -21.7064 H       1  UNL1        0.1549
     36 C         -69.0377  -54.4969  -19.9207 C.ar    1  UNL1        0.0535
     37 C         -68.9739  -55.1232  -18.6649 C.ar    1  UNL1        0.0353
     38 C         -70.0136  -54.9381  -17.7500 C.ar    1  UNL1        0.1002
     39 N         -71.0841  -54.1680  -18.0798 N.ar    1  UNL1       -0.2422
     40 C         -71.1799  -53.5645  -19.2940 C.ar    1  UNL1        0.1002
     41 C         -70.1632  -53.7250  -20.2383 C.ar    1  UNL1        0.0353
     42 C         -66.3633  -56.5721  -22.9805 C.3     1  UNL1        0.0569
     43 C         -67.3416  -55.8677  -23.8785 C.ar    1  UNL1       -0.0017
     44 C         -67.0312  -54.9801  -24.9041 C.ar    1  UNL1        0.0681
     45 N         -68.1610  -54.4884  -25.4615 N.ar    1  UNL1       -0.3523
     46 C         -69.1816  -55.0554  -24.7951 C.ar    1  UNL1        0.0563
     47 C         -70.5447  -54.8473  -25.0016 C.ar    1  UNL1        0.0170
     48 C         -71.4485  -55.5401  -24.1755 C.ar    1  UNL1        0.0015
     49 C         -70.9754  -56.4160  -23.1734 C.ar    1  UNL1        0.0001
     50 C         -69.5945  -56.6077  -22.9883 C.ar    1  UNL1        0.0012
     51 C         -68.7220  -55.9048  -23.8211 C.ar    1  UNL1        0.0131
     52 H         -68.2230  -53.8007  -26.2449 H       1  UNL1        0.1660
@<TRIPOS>BOND
     1    25    26    1
     2    26    24    1
     3    24    14    1
     4    14    15   ar
     5    15    16   ar
     6    16     8    1
     7     8     9    1
     8     9    10    1
     9    10    11    1
    10    11     1    1
    11     1     2   ar
    12     2     3   ar
    13     3     4   ar
    14     4    27    1
    15    27    28    2
    16    27    29   am
    17    29    31    1
    18    31    42    1
    19    42    43    1
    20    43    44   ar
    21    44    45   ar
    22    45    46   ar
    23    46    47   ar
    24    47    48   ar
    25    48    49   ar
    26    49    50   ar
    27    50    51   ar
    28    31    32    1
    29    32    33    2
    30    32    34   am
    31    34    36    1
    32    36    37   ar
    33    37    38   ar
    34    38    39   ar
    35    39    40   ar
    36    40    41   ar
    37     4     5   ar
    38     5     6    1
    39     5     7   ar
    40    11    12    1
    41    12    13    1
    42    16    17   ar
    43    17    18   ar
    44    18    19   ar
    45    19    20    1
    46    20    21    1
    47    20    22    1
    48    20    23    1
    49    19    14   ar
    50    13     8    1
    51     7     1   ar
    52    51    43   ar
    53    41    36   ar
    54    51    46   ar
    55    29    30    1
    56    45    52    1
    57    34    35    1
@<TRIPOS>MOLECULE
*****
 52 57 0 0 0
SMALL
GASTEIGER

@<TRIPOS>ATOM
      1 C         -62.5857  -42.5436  -23.0838 C.ar    1  UNL1        0.0502
      2 C         -62.3123  -43.7080  -22.3507 C.ar    1  UNL1        0.0148
      3 C         -62.0027  -44.9010  -23.0081 C.ar    1  UNL1        0.0080
      4 C         -61.9717  -44.9592  -24.4124 C.ar    1  UNL1        0.0808
      5 C         -62.2359  -43.7850  -25.1476 C.ar    1  UNL1        0.1457
      6 F         -62.1590  -43.7689  -26.5017 F       1  UNL1       -0.2040
      7 C         -62.5432  -42.5927  -24.4846 C.ar    1  UNL1        0.0443
      8 N         -63.7754  -39.2571  -20.7507 N.pl3   1  UNL1       -0.2897
      9 C         -64.7655  -39.9212  -21.6071 C.3     1  UNL1        0.1136
     10 C         -64.0780  -40.5313  -22.8290 C.3     1  UNL1        0.1123
     11 N         -62.9062  -41.3107  -22.4124 N.pl3   1  UNL1       -0.3040
     12 C         -61.9152  -40.6508  -21.5545 C.3     1  UNL1        0.1123
     13 C         -62.6050  -40.0414  -20.3334 C.3     1  UNL1        0.1136
     14 C         -63.4579  -36.0418  -18.9541 C.ar    1  UNL1        0.0941
     15 N         -63.1848  -37.1804  -19.6511 N.ar    1  UNL1       -0.2326
     16 C         -64.1444  -38.0651  -20.0324 C.ar    1  UNL1        0.1314
     17 C         -65.4762  -37.8182  -19.6856 C.ar    1  UNL1        0.0343
     18 C         -65.8012  -36.6568  -18.9876 C.ar    1  UNL1        0.0080
     19 C         -64.8043  -35.7311  -18.6290 C.ar    1  UNL1        0.0875
     20 C         -65.1792  -34.4766  -17.8633 C.3     1  UNL1        0.4197
     21 F         -66.4997  -34.1221  -18.0821 F       1  UNL1       -0.1658
     22 F         -65.0055  -34.6934  -16.5088 F       1  UNL1       -0.1658
     23 F         -64.3866  -33.4158  -18.2625 F       1  UNL1       -0.1658
     24 C         -62.3126  -35.1251  -18.6041 C.3     1  UNL1        0.1876
     25 C         -61.7273  -35.1498  -20.8333 C.3     1  UNL1        0.1747
     26 O         -61.2490  -35.3098  -19.5167 O.3     1  UNL1       -0.3447
     27 C         -61.6403  -46.2416  -25.0796 C.2     1  UNL1        0.2483
     28 O         -60.5198  -46.7779  -24.8589 O.2     1  UNL1       -0.2701
     29 N         -62.5876  -46.9011  -25.9364 N.am    1  UNL1       -0.2945
     30 H         -63.5795  -46.5760  -25.9107 H       1  UNL1        0.1501
     31 C         -62.2337  -48.0926  -26.7236 C.3     1  UNL1        0.1535
     32 C         -62.3547  -49.3581  -25.9051 C.2     1  UNL1        0.2443
     33 O         -63.1759  -50.2536  -26.2461 O.2     1  UNL1       -0.2730
     34 N         -61.4426  -49.5889  -24.8195 N.am    1  UNL1       -0.2825
     35 H         -60.6252  -48.9442  -24.7258 H       1  UNL1        0.1549
     36 C         -61.4763  -50.7565  -23.9824 C.ar    1  UNL1        0.0535
     37 C         -62.6909  -51.3270  -23.5670 C.ar    1  UNL1        0.0353
     38 C         -62.6751  -52.4533  -22.7404 C.ar    1  UNL1        0.1002
     39 N         -61.4920  -52.9836  -22.3317 N.ar    1  UNL1       -0.2422
     40 C         -60.3025  -52.4417  -22.7044 C.ar    1  UNL1        0.1002
     41 C         -60.2735  -51.3144  -23.5287 C.ar    1  UNL1        0.0353
     42 C         -63.0842  -48.1888  -28.0076 C.3     1  UNL1        0.0569
     43 C         -63.1587  -46.8878  -28.7569 C.ar    1  UNL1       -0.0017
     44 C         -64.2873  -46.3482  -29.3661 C.ar    1  UNL1        0.0681
     45 N         -63.9755  -45.1966  -30.0029 N.ar    1  UNL1       -0.3523
     46 C         -62.6597  -45.0060  -29.8035 C.ar    1  UNL1        0.0563
     47 C         -61.8766  -43.9555  -30.2800 C.ar    1  UNL1        0.0170
     48 C         -60.5066  -43.9584  -29.9600 C.ar    1  UNL1        0.0015
     49 C         -59.9562  -44.9988  -29.1790 C.ar    1  UNL1        0.0001
     50 C         -60.7704  -46.0454  -28.7104 C.ar    1  UNL1        0.0012
     51 C         -62.1251  -46.0171  -29.0463 C.ar    1  UNL1        0.0131
     52 H         -64.6265  -44.5869  -30.5459 H       1  UNL1        0.1660
@<TRIPOS>BOND
     1    25    26    1
     2    26    24    1
     3    24    14    1
     4    14    15   ar
     5    15    16   ar
     6    16     8    1
     7     8     9    1
     8     9    10    1
     9    10    11    1
    10    11     1    1
    11     1     2   ar
    12     2     3   ar
    13     3     4   ar
    14     4    27    1
    15    27    28    2
    16    27    29   am
    17    29    31    1
    18    31    42    1
    19    42    43    1
    20    43    44   ar
    21    44    45   ar
    22    45    46   ar
    23    46    47   ar
    24    47    48   ar
    25    48    49   ar
    26    49    50   ar
    27    50    51   ar
    28    31    32    1
    29    32    33    2
    30    32    34   am
    31    34    36    1
    32    36    37   ar
    33    37    38   ar
    34    38    39   ar
    35    39    40   ar
    36    40    41   ar
    37     4     5   ar
    38     5     6    1
    39     5     7   ar
    40    11    12    1
    41    12    13    1
    42    16    17   ar
    43    17    18   ar
    44    18    19   ar
    45    19    20    1
    46    20    21    1
    47    20    22    1
    48    20    23    1
    49    19    14   ar
    50    13     8    1
    51     7     1   ar
    52    51    43   ar
    53    41    36   ar
    54    51    46   ar
    55    29    30    1
    56    45    52    1
    57    34    35    1
@<TRIPOS>MOLECULE
*****
 52 57 0 0 0
SMALL
GASTEIGER

@<TRIPOS>ATOM
      1 C         -62.6765  -42.6081  -23.0930 C.ar    1  UNL1        0.0502
      2 C         -62.6492  -42.6757  -24.4940 C.ar    1  UNL1        0.0148
      3 C         -62.3578  -43.8805  -25.1381 C.ar    1  UNL1        0.0080
      4 C         -62.0755  -45.0408  -24.3961 C.ar    1  UNL1        0.0808
      5 C         -62.1144  -44.9736  -22.9879 C.ar    1  UNL1        0.1457
      6 F         -61.9113  -46.0757  -22.2237 F       1  UNL1       -0.2040
      7 C         -62.4086  -43.7655  -22.3480 C.ar    1  UNL1        0.0443
      8 N         -63.8072  -39.2993  -20.7621 N.pl3   1  UNL1       -0.2897
      9 C         -64.8100  -39.9484  -21.6153 C.3     1  UNL1        0.1136
     10 C         -64.1352  -40.5714  -22.8379 C.3     1  UNL1        0.1123
     11 N         -62.9754  -41.3691  -22.4227 N.pl3   1  UNL1       -0.3040
     12 C         -61.9719  -40.7243  -21.5680 C.3     1  UNL1        0.1123
     13 C         -62.6489  -40.1020  -20.3463 C.3     1  UNL1        0.1136
     14 C         -63.4355  -36.0762  -18.9901 C.ar    1  UNL1        0.0941
     15 N         -63.1827  -37.2208  -19.6849 N.ar    1  UNL1       -0.2326
     16 C         -64.1552  -38.1004  -20.0447 C.ar    1  UNL1        0.1314
     17 C         -65.4790  -37.8416  -19.6769 C.ar    1  UNL1        0.0343
     18 C         -65.7836  -36.6738  -18.9804 C.ar    1  UNL1        0.0080
     19 C         -64.7739  -35.7535  -18.6442 C.ar    1  UNL1        0.0875
     20 C         -65.1264  -34.4918  -17.8797 C.3     1  UNL1        0.4197
     21 F         -64.3128  -33.4321  -18.2435 F       1  UNL1       -0.1658
     22 F         -66.4383  -34.1437  -18.1433 F       1  UNL1       -0.1658
     23 F         -64.9709  -34.6949  -16.5205 F       1  UNL1       -0.1658
     24 C         -62.2777  -35.1662  -18.6650 C.3     1  UNL1        0.1876
     25 C         -61.7251  -35.1646  -20.9027 C.3     1  UNL1        0.1747
     26 O         -61.2325  -35.3616  -19.5964 O.3     1  UNL1       -0.3447
     27 C         -61.7692  -46.3039  -25.1106 C.2     1  UNL1        0.2483
     28 O         -60.6275  -46.8240  -24.9778 O.2     1  UNL1       -0.2701
     29 N         -62.7618  -46.9634  -25.9144 N.am    1  UNL1       -0.2945
     30 H         -63.7549  -46.6569  -25.8146 H       1  UNL1        0.1501
     31 C         -62.4427  -48.1328  -26.7484 C.3     1  UNL1        0.1535
     32 C         -62.4647  -49.4135  -25.9451 C.2     1  UNL1        0.2443
     33 O         -63.1857  -50.3797  -26.3179 O.2     1  UNL1       -0.2730
     34 N         -61.5658  -49.5684  -24.8351 N.am    1  UNL1       -0.2825
     35 H         -60.8173  -48.8493  -24.7117 H       1  UNL1        0.1549
     36 C         -61.5107  -50.7435  -24.0098 C.ar    1  UNL1        0.0535
     37 C         -62.6792  -51.3651  -23.5389 C.ar    1  UNL1        0.0353
     38 C         -62.5769  -52.4969  -22.7261 C.ar    1  UNL1        0.1002
     39 N         -61.3546  -52.9834  -22.3840 N.ar    1  UNL1       -0.2422
     40 C         -60.2078  -52.3918  -22.8112 C.ar    1  UNL1        0.1002
     41 C         -60.2654  -51.2573  -23.6240 C.ar    1  UNL1        0.0353
     42 C         -63.3919  -48.2321  -27.9610 C.3     1  UNL1        0.0569
     43 C         -63.4885  -46.9459  -28.7331 C.ar    1  UNL1       -0.0017
     44 C         -62.9359  -45.7211  -28.3715 C.ar    1  UNL1        0.0681
     45 N         -63.2747  -44.7669  -29.2678 N.ar    1  UNL1       -0.3523
     46 C         -64.0384  -45.3776  -30.1904 C.ar    1  UNL1        0.0563
     47 C         -64.6369  -44.7991  -31.3088 C.ar    1  UNL1        0.0170
     48 C         -65.4112  -45.6265  -32.1426 C.ar    1  UNL1        0.0015
     49 C         -65.5676  -46.9983  -31.8439 C.ar    1  UNL1        0.0001
     50 C         -64.9510  -47.5553  -30.7093 C.ar    1  UNL1        0.0012
     51 C         -64.1914  -46.7092  -29.8994 C.ar    1  UNL1        0.0131
     52 H         -63.0032  -43.7589  -29.2400 H       1  UNL1        0.1660
@<TRIPOS>BOND
     1    25    26    1
     2    26    24    1
     3    24    14    1
     4    14    15   ar
     5    15    16   ar
     6    16     8    1
     7     8     9    1
     8     9    10    1
     9    10    11    1
    10    11     1    1
    11     1     2   ar
    12     2     3   ar
    13     3     4   ar
    14     4    27    1
    15    27    28    2
    16    27    29   am
    17    29    31    1
    18    31    42    1
    19    42    43    1
    20    43    44   ar
    21    44    45   ar
    22    45    46   ar
    23    46    47   ar
    24    47    48   ar
    25    48    49   ar
    26    49    50   ar
    27    50    51   ar
    28    31    32    1
    29    32    33    2
    30    32    34   am
    31    34    36    1
    32    36    37   ar
    33    37    38   ar
    34    38    39   ar
    35    39    40   ar
    36    40    41   ar
    37     4     5   ar
    38     5     6    1
    39     5     7   ar
    40    11    12    1
    41    12    13    1
    42    16    17   ar
    43    17    18   ar
    44    18    19   ar
    45    19    20    1
    46    20    21    1
    47    20    22    1
    48    20    23    1
    49    19    14   ar
    50    13     8    1
    51     7     1   ar
    52    51    43   ar
    53    41    36   ar
    54    51    46   ar
    55    29    30    1
    56    45    52    1
    57    34    35    1
@<TRIPOS>MOLECULE
*****
 52 57 0 0 0
SMALL
GASTEIGER

@<TRIPOS>ATOM
      1 C         -63.2273  -49.9145  -24.8361 C.ar    1  UNL1        0.0502
      2 C         -64.3367  -50.6993  -25.1845 C.ar    1  UNL1        0.0148
      3 C         -64.6027  -51.8895  -24.5033 C.ar    1  UNL1        0.0080
      4 C         -63.7590  -52.3272  -23.4673 C.ar    1  UNL1        0.0808
      5 C         -62.6506  -51.5313  -23.1110 C.ar    1  UNL1        0.1457
      6 F         -61.8395  -51.8738  -22.0792 F       1  UNL1       -0.2040
      7 C         -62.3898  -50.3396  -23.7948 C.ar    1  UNL1        0.0443
      8 N         -62.9321  -46.1981  -26.7753 N.pl3   1  UNL1       -0.2897
      9 C         -63.6112  -47.3072  -27.4560 C.3     1  UNL1        0.1136
     10 C         -63.0226  -48.6427  -26.9998 C.3     1  UNL1        0.1123
     11 N         -62.9469  -48.6870  -25.5348 N.pl3   1  UNL1       -0.3040
     12 C         -62.2705  -47.5788  -24.8507 C.3     1  UNL1        0.1123
     13 C         -62.8607  -46.2446  -25.3085 C.3     1  UNL1        0.1136
     14 C         -62.7952  -42.5632  -27.4352 C.ar    1  UNL1        0.0941
     15 N         -62.9493  -43.7759  -26.8332 N.ar    1  UNL1       -0.2326
     16 C         -62.7291  -44.9552  -27.4733 C.ar    1  UNL1        0.1314
     17 C         -62.3431  -44.9402  -28.8170 C.ar    1  UNL1        0.0343
     18 C         -62.1576  -43.7211  -29.4658 C.ar    1  UNL1        0.0080
     19 C         -62.3542  -42.5066  -28.7833 C.ar    1  UNL1        0.0875
     20 C         -62.1535  -41.1907  -29.5106 C.3     1  UNL1        0.4197
     21 F         -61.2617  -40.3699  -28.8409 F       1  UNL1       -0.1658
     22 F         -61.6541  -41.4346  -30.7766 F       1  UNL1       -0.1658
     23 F         -63.3540  -40.5120  -29.6149 F       1  UNL1       -0.1658
     24 C         -63.0484  -41.3214  -26.6177 C.3     1  UNL1        0.1876
     25 C         -64.9181  -40.6699  -25.4377 C.3     1  UNL1        0.1747
     26 O         -64.4059  -40.9415  -26.7229 O.3     1  UNL1       -0.3447
     27 C         -64.0690  -53.5959  -22.7645 C.2     1  UNL1        0.2483
     28 O         -63.1241  -54.3684  -22.4449 O.2     1  UNL1       -0.2701
     29 N         -65.4187  -53.9374  -22.4063 N.am    1  UNL1       -0.2945
     30 H         -66.1429  -53.1869  -22.4564 H       1  UNL1        0.1501
     31 C         -65.7705  -55.2503  -21.8432 C.3     1  UNL1        0.1535
     32 C         -66.8531  -55.1352  -20.7941 C.2     1  UNL1        0.2443
     33 O         -67.3485  -54.0074  -20.5199 O.2     1  UNL1       -0.2730
     34 N         -67.4016  -56.3272  -20.2090 N.am    1  UNL1       -0.2825
     35 H         -67.1412  -57.2438  -20.6388 H       1  UNL1        0.1549
     36 C         -68.4296  -56.3242  -19.2050 C.ar    1  UNL1        0.0535
     37 C         -69.5502  -57.1660  -19.2995 C.ar    1  UNL1        0.0353
     38 C         -70.5328  -57.1177  -18.3073 C.ar    1  UNL1        0.1002
     39 N         -70.4098  -56.2525  -17.2662 N.ar    1  UNL1       -0.2422
     40 C         -69.3448  -55.4147  -17.1590 C.ar    1  UNL1        0.1002
     41 C         -68.3409  -55.4296  -18.1301 C.ar    1  UNL1        0.0353
     42 C         -66.1858  -56.2418  -22.9503 C.3     1  UNL1        0.0569
     43 C         -67.2084  -55.6699  -23.8921 C.ar    1  UNL1       -0.0017
     44 C         -66.9530  -54.8858  -25.0128 C.ar    1  UNL1        0.0681
     45 N         -68.1119  -54.4944  -25.5896 N.ar    1  UNL1       -0.3523
     46 C         -69.0964  -55.0220  -24.8415 C.ar    1  UNL1        0.0563
     47 C         -70.4703  -54.8832  -25.0338 C.ar    1  UNL1        0.0170
     48 C         -71.3301  -55.5149  -24.1167 C.ar    1  UNL1        0.0015
     49 C         -70.8036  -56.2634  -23.0406 C.ar    1  UNL1        0.0001
     50 C         -69.4129  -56.3875  -22.8718 C.ar    1  UNL1        0.0012
     51 C         -68.5850  -55.7474  -23.7958 C.ar    1  UNL1        0.0131
     52 H         -68.2160  -53.8960  -26.4390 H       1  UNL1        0.1660
@<TRIPOS>BOND
     1    25    26    1
     2    26    24    1
     3    24    14    1
     4    14    15   ar
     5    15    16   ar
     6    16     8    1
     7     8     9    1
     8     9    10    1
     9    10    11    1
    10    11     1    1
    11     1     2   ar
    12     2     3   ar
    13     3     4   ar
    14     4    27    1
    15    27    28    2
    16    27    29   am
    17    29    31    1
    18    31    42    1
    19    42    43    1
    20    43    44   ar
    21    44    45   ar
    22    45    46   ar
    23    46    47   ar
    24    47    48   ar
    25    48    49   ar
    26    49    50   ar
    27    50    51   ar
    28    31    32    1
    29    32    33    2
    30    32    34   am
    31    34    36    1
    32    36    37   ar
    33    37    38   ar
    34    38    39   ar
    35    39    40   ar
    36    40    41   ar
    37     4     5   ar
    38     5     6    1
    39     5     7   ar
    40    11    12    1
    41    12    13    1
    42    16    17   ar
    43    17    18   ar
    44    18    19   ar
    45    19    20    1
    46    20    21    1
    47    20    22    1
    48    20    23    1
    49    19    14   ar
    50    13     8    1
    51     7     1   ar
    52    51    43   ar
    53    41    36   ar
    54    51    46   ar
    55    29    30    1
    56    45    52    1
    57    34    35    1
@<TRIPOS>MOLECULE
*****
 52 57 0 0 0
SMALL
GASTEIGER

@<TRIPOS>ATOM
      1 C         -63.0800  -50.0980  -24.7090 C.ar    1  UNL1        0.0502
      2 C         -64.2259  -50.8222  -25.0701 C.ar    1  UNL1        0.0148
      3 C         -64.5470  -52.0118  -24.4120 C.ar    1  UNL1        0.0080
      4 C         -63.7234  -52.5096  -23.3871 C.ar    1  UNL1        0.0808
      5 C         -62.5779  -51.7745  -23.0178 C.ar    1  UNL1        0.1457
      6 F         -61.7823  -52.1756  -21.9951 F       1  UNL1       -0.2040
      7 C         -62.2620  -50.5831  -23.6785 C.ar    1  UNL1        0.0443
      8 N         -62.5658  -46.3198  -26.4756 N.pl3   1  UNL1       -0.2897
      9 C         -63.5177  -47.2643  -27.0729 C.3     1  UNL1        0.1136
     10 C         -63.0700  -48.7015  -26.8044 C.3     1  UNL1        0.1123
     11 N         -62.7427  -48.8715  -25.3839 N.pl3   1  UNL1       -0.3040
     12 C         -61.7931  -47.9279  -24.7828 C.3     1  UNL1        0.1123
     13 C         -62.2428  -46.4915  -25.0526 C.3     1  UNL1        0.1136
     14 C         -62.9948  -43.4124  -28.7182 C.ar    1  UNL1        0.0941
     15 N         -63.1876  -44.5805  -28.0436 N.ar    1  UNL1       -0.2326
     16 C         -62.3014  -45.0673  -27.1344 C.ar    1  UNL1        0.1314
     17 C         -61.1241  -44.3566  -26.8816 C.ar    1  UNL1        0.0343
     18 C         -60.8956  -43.1486  -27.5374 C.ar    1  UNL1        0.0080
     19 C         -61.8363  -42.6372  -28.4500 C.ar    1  UNL1        0.0875
     20 C         -61.5644  -41.3236  -29.1581 C.3     1  UNL1        0.4197
     21 F         -62.6253  -40.4440  -29.0242 F       1  UNL1       -0.1658
     22 F         -60.4378  -40.7322  -28.6171 F       1  UNL1       -0.1658
     23 F         -61.3641  -41.5393  -30.5095 F       1  UNL1       -0.1658
     24 C         -64.0583  -42.9626  -29.6884 C.3     1  UNL1        0.1876
     25 C         -66.0341  -43.8660  -30.4582 C.3     1  UNL1        0.1747
     26 O         -64.6488  -44.0846  -30.3132 O.3     1  UNL1       -0.3447
     27 C         -64.0922  -53.7760  -22.7089 C.2     1  UNL1        0.2483
     28 O         -63.1794  -54.5694  -22.3497 O.2     1  UNL1       -0.2701
     29 N         -65.4640  -54.0921  -22.4182 N.am    1  UNL1       -0.2945
     30 H         -66.1698  -53.3269  -22.4978 H       1  UNL1        0.1501
     31 C         -65.8687  -55.4010  -21.8819 C.3     1  UNL1        0.1535
     32 C         -67.1728  -55.3133  -21.1219 C.2     1  UNL1        0.2443
     33 O         -67.2586  -55.7948  -19.9585 O.2     1  UNL1       -0.2730
     34 N         -68.2677  -54.5679  -21.6783 N.am    1  UNL1       -0.2825
     35 H         -68.0773  -53.9812  -22.5222 H       1  UNL1        0.1549
     36 C         -69.5458  -54.4266  -21.0367 C.ar    1  UNL1        0.0535
     37 C         -69.7099  -53.6219  -19.8970 C.ar    1  UNL1        0.0353
     38 C         -70.9682  -53.5267  -19.2972 C.ar    1  UNL1        0.1002
     39 N         -72.0214  -54.2189  -19.8066 N.ar    1  UNL1       -0.2422
     40 C         -71.8871  -55.0183  -20.8977 C.ar    1  UNL1        0.1002
     41 C         -70.6460  -55.1430  -21.5265 C.ar    1  UNL1        0.0353
     42 C         -65.9579  -56.4613  -22.9995 C.3     1  UNL1        0.0569
     43 C         -67.3091  -56.5037  -23.6569 C.ar    1  UNL1       -0.0017
     44 C         -68.4214  -57.2136  -23.2153 C.ar    1  UNL1        0.0681
     45 N         -69.4473  -57.0732  -24.0852 N.ar    1  UNL1       -0.3523
     46 C         -68.9918  -56.2834  -25.0732 C.ar    1  UNL1        0.0563
     47 C         -69.6851  -55.8656  -26.2083 C.ar    1  UNL1        0.0170
     48 C         -69.0075  -55.0444  -27.1280 C.ar    1  UNL1        0.0015
     49 C         -67.6677  -54.6626  -26.8949 C.ar    1  UNL1        0.0001
     50 C         -66.9932  -55.0980  -25.7402 C.ar    1  UNL1        0.0012
     51 C         -67.6903  -55.9141  -24.8474 C.ar    1  UNL1        0.0131
     52 H         -70.3966  -57.5009  -24.0058 H       1  UNL1        0.1660
@<TRIPOS>BOND
     1    25    26    1
     2    26    24    1
     3    24    14    1
     4    14    15   ar
     5    15    16   ar
     6    16     8    1
     7     8     9    1
     8     9    10    1
     9    10    11    1
    10    11     1    1
    11     1     2   ar
    12     2     3   ar
    13     3     4   ar
    14     4    27    1
    15    27    28    2
    16    27    29   am
    17    29    31    1
    18    31    42    1
    19    42    43    1
    20    43    44   ar
    21    44    45   ar
    22    45    46   ar
    23    46    47   ar
    24    47    48   ar
    25    48    49   ar
    26    49    50   ar
    27    50    51   ar
    28    31    32    1
    29    32    33    2
    30    32    34   am
    31    34    36    1
    32    36    37   ar
    33    37    38   ar
    34    38    39   ar
    35    39    40   ar
    36    40    41   ar
    37     4     5   ar
    38     5     6    1
    39     5     7   ar
    40    11    12    1
    41    12    13    1
    42    16    17   ar
    43    17    18   ar
    44    18    19   ar
    45    19    20    1
    46    20    21    1
    47    20    22    1
    48    20    23    1
    49    19    14   ar
    50    13     8    1
    51     7     1   ar
    52    51    43   ar
    53    41    36   ar
    54    51    46   ar
    55    29    30    1
    56    45    52    1
    57    34    35    1
@<TRIPOS>MOLECULE
*****
 52 57 0 0 0
SMALL
GASTEIGER

@<TRIPOS>ATOM
      1 C         -63.1562  -51.1685  -23.9552 C.ar    1  UNL1        0.0502
      2 C         -62.5031  -51.7589  -22.8630 C.ar    1  UNL1        0.0148
      3 C         -62.9716  -52.9593  -22.3236 C.ar    1  UNL1        0.0080
      4 C         -64.1101  -53.5892  -22.8562 C.ar    1  UNL1        0.0808
      5 C         -64.7588  -53.0000  -23.9612 C.ar    1  UNL1        0.1457
      6 F         -65.8236  -53.5959  -24.5535 F       1  UNL1       -0.2040
      7 C         -64.2845  -51.7992  -24.4988 C.ar    1  UNL1        0.0443
      8 N         -62.0609  -47.3077  -25.2019 N.pl3   1  UNL1       -0.2897
      9 C         -63.3954  -47.8165  -25.5414 C.3     1  UNL1        0.1136
     10 C         -63.3587  -49.3394  -25.6740 C.3     1  UNL1        0.1123
     11 N         -62.6789  -49.9308  -24.5155 N.pl3   1  UNL1       -0.3040
     12 C         -61.3456  -49.4233  -24.1718 C.3     1  UNL1        0.1123
     13 C         -61.3847  -47.9004  -24.0399 C.3     1  UNL1        0.1136
     14 C         -61.1642  -44.6579  -27.6187 C.ar    1  UNL1        0.0941
     15 N         -61.5738  -45.8314  -27.0604 N.ar    1  UNL1       -0.2326
     16 C         -61.6359  -46.0321  -25.7170 C.ar    1  UNL1        0.1314
     17 C         -61.2480  -45.0020  -24.8549 C.ar    1  UNL1        0.0343
     18 C         -60.8387  -43.7797  -25.3841 C.ar    1  UNL1        0.0080
     19 C         -60.8120  -43.5717  -26.7753 C.ar    1  UNL1        0.0875
     20 C         -60.3564  -42.2357  -27.3304 C.3     1  UNL1        0.4197
     21 F         -61.4060  -41.5385  -27.9047 F       1  UNL1       -0.1658
     22 F         -59.8304  -41.4667  -26.3089 F       1  UNL1       -0.1658
     23 F         -59.3929  -42.4241  -28.3045 F       1  UNL1       -0.1658
     24 C         -61.1564  -44.5454  -29.1226 C.3     1  UNL1        0.1876
     25 C         -59.8153  -44.6072  -30.9962 C.3     1  UNL1        0.1747
     26 O         -59.9017  -44.9511  -29.6316 O.3     1  UNL1       -0.3447
     27 C         -64.5821  -54.8624  -22.2599 C.2     1  UNL1        0.2483
     28 O         -63.7337  -55.7205  -21.8914 O.2     1  UNL1       -0.2701
     29 N         -65.9827  -55.1150  -22.0576 N.am    1  UNL1       -0.2945
     30 H         -66.6417  -54.3091  -22.1375 H       1  UNL1        0.1501
     31 C         -66.4850  -56.4224  -21.6066 C.3     1  UNL1        0.1535
     32 C         -67.1559  -56.3261  -20.2551 C.2     1  UNL1        0.2443
     33 O         -66.4605  -56.1514  -19.2167 O.2     1  UNL1       -0.2730
     34 N         -68.5903  -56.3045  -20.1768 N.am    1  UNL1       -0.2825
     35 H         -69.1244  -56.2021  -21.0695 H       1  UNL1        0.1549
     36 C         -69.3217  -56.2176  -18.9429 C.ar    1  UNL1        0.0535
     37 C         -69.1190  -55.1584  -18.0426 C.ar    1  UNL1        0.0353
     38 C         -69.8417  -55.1234  -16.8474 C.ar    1  UNL1        0.1002
     39 N         -70.7242  -56.1147  -16.5539 N.ar    1  UNL1       -0.2422
     40 C         -70.9273  -57.1601  -17.3986 C.ar    1  UNL1        0.1002
     41 C         -70.2240  -57.2344  -18.6032 C.ar    1  UNL1        0.0353
     42 C         -67.4391  -57.0454  -22.6472 C.3     1  UNL1        0.0569
     43 C         -68.0140  -56.0289  -23.5938 C.ar    1  UNL1       -0.0017
     44 C         -68.5312  -54.7826  -23.2542 C.ar    1  UNL1        0.0681
     45 N         -69.0197  -54.1592  -24.3503 N.ar    1  UNL1       -0.3523
     46 C         -68.8180  -55.0019  -25.3782 C.ar    1  UNL1        0.0563
     47 C         -69.1679  -54.8046  -26.7133 C.ar    1  UNL1        0.0170
     48 C         -68.8723  -55.8307  -27.6294 C.ar    1  UNL1        0.0015
     49 C         -68.2400  -57.0171  -27.1959 C.ar    1  UNL1        0.0001
     50 C         -67.8970  -57.1883  -25.8428 C.ar    1  UNL1        0.0012
     51 C         -68.2053  -56.1544  -24.9568 C.ar    1  UNL1        0.0131
     52 H         -69.4697  -53.2175  -24.3850 H       1  UNL1        0.1660
@<TRIPOS>BOND
     1    25    26    1
     2    26    24    1
     3    24    14    1
     4    14    15   ar
     5    15    16   ar
     6    16     8    1
     7     8     9    1
     8     9    10    1
     9    10    11    1
    10    11     1    1
    11     1     2   ar
    12     2     3   ar
    13     3     4   ar
    14     4    27    1
    15    27    28    2
    16    27    29   am
    17    29    31    1
    18    31    42    1
    19    42    43    1
    20    43    44   ar
    21    44    45   ar
    22    45    46   ar
    23    46    47   ar
    24    47    48   ar
    25    48    49   ar
    26    49    50   ar
    27    50    51   ar
    28    31    32    1
    29    32    33    2
    30    32    34   am
    31    34    36    1
    32    36    37   ar
    33    37    38   ar
    34    38    39   ar
    35    39    40   ar
    36    40    41   ar
    37     4     5   ar
    38     5     6    1
    39     5     7   ar
    40    11    12    1
    41    12    13    1
    42    16    17   ar
    43    17    18   ar
    44    18    19   ar
    45    19    20    1
    46    20    21    1
    47    20    22    1
    48    20    23    1
    49    19    14   ar
    50    13     8    1
    51     7     1   ar
    52    51    43   ar
    53    41    36   ar
    54    51    46   ar
    55    29    30    1
    56    45    52    1
    57    34    35    1
@<TRIPOS>MOLECULE
*****
 52 57 0 0 0
SMALL
GASTEIGER

@<TRIPOS>ATOM
      1 C         -61.7096  -43.3287  -21.7442 C.ar    1  UNL1        0.0502
      2 C         -60.4116  -43.7884  -21.4760 C.ar    1  UNL1        0.0148
      3 C         -60.0016  -45.0477  -21.9203 C.ar    1  UNL1        0.0080
      4 C         -60.8838  -45.8797  -22.6317 C.ar    1  UNL1        0.0808
      5 C         -62.1846  -45.4114  -22.9100 C.ar    1  UNL1        0.1457
      6 F         -63.0561  -46.1462  -23.6453 F       1  UNL1       -0.2040
      7 C         -62.5894  -44.1491  -22.4647 C.ar    1  UNL1        0.0443
      8 N         -63.4440  -39.7829  -20.3023 N.pl3   1  UNL1       -0.2897
      9 C         -63.8051  -40.2615  -21.6423 C.3     1  UNL1        0.1136
     10 C         -62.6418  -41.0451  -22.2512 C.3     1  UNL1        0.1123
     11 N         -62.1388  -42.0319  -21.2883 N.pl3   1  UNL1       -0.3040
     12 C         -61.7788  -41.5576  -19.9471 C.3     1  UNL1        0.1123
     13 C         -62.9435  -40.7743  -19.3403 C.3     1  UNL1        0.1136
     14 C         -63.4811  -36.3050  -19.0497 C.ar    1  UNL1        0.0941
     15 N         -63.0782  -37.5231  -19.5085 N.ar    1  UNL1       -0.2326
     16 C         -63.9468  -38.5144  -19.8428 C.ar    1  UNL1        0.1314
     17 C         -65.3201  -38.2954  -19.6980 C.ar    1  UNL1        0.0343
     18 C         -65.7756  -37.0578  -19.2481 C.ar    1  UNL1        0.0080
     19 C         -64.8688  -36.0275  -18.9387 C.ar    1  UNL1        0.0875
     20 C         -65.3858  -34.6901  -18.4439 C.3     1  UNL1        0.4197
     21 F         -64.5949  -33.6433  -18.8867 F       1  UNL1       -0.1658
     22 F         -66.6721  -34.4913  -18.9104 F       1  UNL1       -0.1658
     23 F         -65.3903  -34.6590  -17.0612 F       1  UNL1       -0.1658
     24 C         -62.4258  -35.2761  -18.7301 C.3     1  UNL1        0.1876
     25 C         -61.7600  -35.1359  -20.9324 C.3     1  UNL1        0.1747
     26 O         -61.3335  -35.4118  -19.6171 O.3     1  UNL1       -0.3447
     27 C         -60.4175  -47.2114  -23.0887 C.2     1  UNL1        0.2483
     28 O         -59.1825  -47.4053  -23.2588 O.2     1  UNL1       -0.2701
     29 N         -61.3424  -48.2916  -23.2992 N.am    1  UNL1       -0.2945
     30 H         -62.3105  -48.1870  -22.9226 H       1  UNL1        0.1501
     31 C         -60.9272  -49.5731  -23.8907 C.3     1  UNL1        0.1535
     32 C         -61.7319  -50.7285  -23.3396 C.2     1  UNL1        0.2443
     33 O         -61.5598  -51.1053  -22.1476 O.2     1  UNL1       -0.2730
     34 N         -62.7790  -51.3055  -24.1362 N.am    1  UNL1       -0.2825
     35 H         -63.0530  -50.8076  -25.0135 H       1  UNL1        0.1549
     36 C         -63.5974  -52.4051  -23.7046 C.ar    1  UNL1        0.0535
     37 C         -64.9083  -52.5751  -24.1798 C.ar    1  UNL1        0.0353
     38 C         -65.6728  -53.6506  -23.7203 C.ar    1  UNL1        0.1002
     39 N         -65.1544  -54.5172  -22.8103 N.ar    1  UNL1       -0.2422
     40 C         -63.8953  -54.3666  -22.3208 C.ar    1  UNL1        0.1002
     41 C         -63.0981  -53.3040  -22.7525 C.ar    1  UNL1        0.0353
     42 C         -61.0127  -49.5333  -25.4309 C.3     1  UNL1        0.0569
     43 C         -62.0609  -48.5796  -25.9325 C.ar    1  UNL1       -0.0017
     44 C         -63.4169  -48.8495  -26.0894 C.ar    1  UNL1        0.0681
     45 N         -64.0525  -47.7817  -26.6228 N.ar    1  UNL1       -0.3523
     46 C         -63.1095  -46.8413  -26.8067 C.ar    1  UNL1        0.0563
     47 C         -63.2811  -45.5671  -27.3460 C.ar    1  UNL1        0.0170
     48 C         -62.1468  -44.7426  -27.4597 C.ar    1  UNL1        0.0015
     49 C         -60.8809  -45.2043  -27.0359 C.ar    1  UNL1        0.0001
     50 C         -60.7375  -46.4942  -26.4942 C.ar    1  UNL1        0.0012
     51 C         -61.8801  -47.2903  -26.3965 C.ar    1  UNL1        0.0131
     52 H         -65.0687  -47.7099  -26.8521 H       1  UNL1        0.1660
@<TRIPOS>BOND
     1    25    26    1
     2    26    24    1
     3    24    14    1
     4    14    15   ar
     5    15    16   ar
     6    16     8    1
     7     8     9    1
     8     9    10    1
     9    10    11    1
    10    11     1    1
    11     1     2   ar
    12     2     3   ar
    13     3     4   ar
    14     4    27    1
    15    27    28    2
    16    27    29   am
    17    29    31    1
    18    31    42    1
    19    42    43    1
    20    43    44   ar
    21    44    45   ar
    22    45    46   ar
    23    46    47   ar
    24    47    48   ar
    25    48    49   ar
    26    49    50   ar
    27    50    51   ar
    28    31    32    1
    29    32    33    2
    30    32    34   am
    31    34    36    1
    32    36    37   ar
    33    37    38   ar
    34    38    39   ar
    35    39    40   ar
    36    40    41   ar
    37     4     5   ar
    38     5     6    1
    39     5     7   ar
    40    11    12    1
    41    12    13    1
    42    16    17   ar
    43    17    18   ar
    44    18    19   ar
    45    19    20    1
    46    20    21    1
    47    20    22    1
    48    20    23    1
    49    19    14   ar
    50    13     8    1
    51     7     1   ar
    52    51    43   ar
    53    41    36   ar
    54    51    46   ar
    55    29    30    1
    56    45    52    1
    57    34    35    1
@<TRIPOS>MOLECULE
*****
 52 57 0 0 0
SMALL
GASTEIGER

@<TRIPOS>ATOM
      1 C         -62.7345  -42.8423  -23.0419 C.ar    1  UNL1        0.0502
      2 C         -62.2061  -44.0359  -22.5279 C.ar    1  UNL1        0.0148
      3 C         -61.8887  -45.0943  -23.3825 C.ar    1  UNL1        0.0080
      4 C         -62.1039  -44.9873  -24.7677 C.ar    1  UNL1        0.0808
      5 C         -62.6247  -43.7826  -25.2839 C.ar    1  UNL1        0.1457
      6 F         -62.7943  -43.6022  -26.6175 F       1  UNL1       -0.2040
      7 C         -62.9389  -42.7252  -24.4243 C.ar    1  UNL1        0.0443
      8 N         -63.7139  -39.3376  -20.9400 N.pl3   1  UNL1       -0.2897
      9 C         -62.3393  -39.5217  -21.4212 C.3     1  UNL1        0.1136
     10 C         -61.9979  -41.0111  -21.4782 C.3     1  UNL1        0.1123
     11 N         -63.0645  -41.7476  -22.1665 N.pl3   1  UNL1       -0.3040
     12 C         -64.4402  -41.5645  -21.6895 C.3     1  UNL1        0.1123
     13 C         -64.7793  -40.0746  -21.6332 C.3     1  UNL1        0.1136
     14 C         -63.3165  -36.1408  -19.1264 C.ar    1  UNL1        0.0941
     15 N         -63.0913  -37.2395  -19.9003 N.ar    1  UNL1       -0.2326
     16 C         -64.0331  -38.1941  -20.1255 C.ar    1  UNL1        0.1314
     17 C         -65.2907  -38.0657  -19.5281 C.ar    1  UNL1        0.0343
     18 C         -65.5683  -36.9487  -18.7428 C.ar    1  UNL1        0.0080
     19 C         -64.5975  -35.9497  -18.5454 C.ar    1  UNL1        0.0875
     20 C         -64.9184  -34.7452  -17.6812 C.3     1  UNL1        0.4197
     21 F         -64.9496  -35.0769  -16.3372 F       1  UNL1       -0.1658
     22 F         -63.9528  -33.7733  -17.8673 F       1  UNL1       -0.1658
     23 F         -66.1572  -34.2300  -18.0168 F       1  UNL1       -0.1658
     24 C         -62.2013  -35.1383  -18.9655 C.3     1  UNL1        0.1876
     25 C         -61.4119  -35.1655  -21.1309 C.3     1  UNL1        0.1747
     26 O         -61.1106  -35.4912  -19.7926 O.3     1  UNL1       -0.3447
     27 C         -61.7570  -46.1298  -25.6475 C.2     1  UNL1        0.2483
     28 O         -60.9188  -46.9829  -25.2455 O.2     1  UNL1       -0.2701
     29 N         -62.3890  -46.3023  -26.9270 N.am    1  UNL1       -0.2945
     30 H         -63.2424  -45.7365  -27.1313 H       1  UNL1        0.1501
     31 C         -61.9594  -47.3388  -27.8787 C.3     1  UNL1        0.1535
     32 C         -63.1317  -47.9225  -28.6344 C.2     1  UNL1        0.2443
     33 O         -63.7114  -48.9555  -28.1994 O.2     1  UNL1       -0.2730
     34 N         -63.6594  -47.2225  -29.7726 N.am    1  UNL1       -0.2825
     35 H         -63.3123  -46.2528  -29.9508 H       1  UNL1        0.1549
     36 C         -64.7673  -47.6940  -30.5571 C.ar    1  UNL1        0.0535
     37 C         -65.4775  -48.8528  -30.2022 C.ar    1  UNL1        0.0353
     38 C         -66.5382  -49.2825  -31.0037 C.ar    1  UNL1        0.1002
     39 N         -66.8703  -48.5900  -32.1253 N.ar    1  UNL1       -0.2422
     40 C         -66.1893  -47.4755  -32.5016 C.ar    1  UNL1        0.1002
     41 C         -65.1212  -47.0129  -31.7295 C.ar    1  UNL1        0.0353
     42 C         -60.8951  -46.7963  -28.8555 C.3     1  UNL1        0.0569
     43 C         -60.8151  -45.2952  -28.8562 C.ar    1  UNL1       -0.0017
     44 C         -60.0282  -44.5090  -28.0203 C.ar    1  UNL1        0.0681
     45 N         -60.2541  -43.1965  -28.2557 N.ar    1  UNL1       -0.3523
     46 C         -61.1784  -43.1474  -29.2306 C.ar    1  UNL1        0.0563
     47 C         -61.7421  -42.0081  -29.8034 C.ar    1  UNL1        0.0170
     48 C         -62.7093  -42.1873  -30.8093 C.ar    1  UNL1        0.0015
     49 C         -63.0866  -43.4862  -31.2163 C.ar    1  UNL1        0.0001
     50 C         -62.5002  -44.6178  -30.6218 C.ar    1  UNL1        0.0012
     51 C         -61.5457  -44.4088  -29.6246 C.ar    1  UNL1        0.0131
     52 H         -59.8055  -42.3884  -27.7698 H       1  UNL1        0.1660
@<TRIPOS>BOND
     1    25    26    1
     2    26    24    1
     3    24    14    1
     4    14    15   ar
     5    15    16   ar
     6    16     8    1
     7     8     9    1
     8     9    10    1
     9    10    11    1
    10    11     1    1
    11     1     2   ar
    12     2     3   ar
    13     3     4   ar
    14     4    27    1
    15    27    28    2
    16    27    29   am
    17    29    31    1
    18    31    42    1
    19    42    43    1
    20    43    44   ar
    21    44    45   ar
    22    45    46   ar
    23    46    47   ar
    24    47    48   ar
    25    48    49   ar
    26    49    50   ar
    27    50    51   ar
    28    31    32    1
    29    32    33    2
    30    32    34   am
    31    34    36    1
    32    36    37   ar
    33    37    38   ar
    34    38    39   ar
    35    39    40   ar
    36    40    41   ar
    37     4     5   ar
    38     5     6    1
    39     5     7   ar
    40    11    12    1
    41    12    13    1
    42    16    17   ar
    43    17    18   ar
    44    18    19   ar
    45    19    20    1
    46    20    21    1
    47    20    22    1
    48    20    23    1
    49    19    14   ar
    50    13     8    1
    51     7     1   ar
    52    51    43   ar
    53    41    36   ar
    54    51    46   ar
    55    29    30    1
    56    45    52    1
    57    34    35    1
@<TRIPOS>MOLECULE
*****
 52 57 0 0 0
SMALL
GASTEIGER

@<TRIPOS>ATOM
      1 C         -62.5153  -42.8303  -22.3669 C.ar    1  UNL1        0.0502
      2 C         -62.4095  -44.0856  -21.7497 C.ar    1  UNL1        0.0148
      3 C         -62.0353  -45.2087  -22.4912 C.ar    1  UNL1        0.0080
      4 C         -61.7706  -45.1039  -23.8679 C.ar    1  UNL1        0.0808
      5 C         -61.8666  -43.8391  -24.4844 C.ar    1  UNL1        0.1457
      6 F         -61.5625  -43.6691  -25.7954 F       1  UNL1       -0.2040
      7 C         -62.2396  -42.7175  -23.7372 C.ar    1  UNL1        0.0443
      8 N         -63.7554  -39.2065  -20.6375 N.pl3   1  UNL1       -0.2897
      9 C         -62.4328  -39.2807  -21.2702 C.3     1  UNL1        0.1136
     10 C         -61.8837  -40.7045  -21.1739 C.3     1  UNL1        0.1123
     11 N         -62.9013  -41.6686  -21.6086 N.pl3   1  UNL1       -0.3040
     12 C         -64.2254  -41.5962  -20.9798 C.3     1  UNL1        0.1123
     13 C         -64.7723  -40.1716  -21.0772 C.3     1  UNL1        0.1136
     14 C         -63.4900  -35.9657  -18.8787 C.ar    1  UNL1        0.0941
     15 N         -63.1969  -37.1139  -19.5515 N.ar    1  UNL1       -0.2326
     16 C         -64.1450  -38.0047  -19.9470 C.ar    1  UNL1        0.1314
     17 C         -65.4861  -37.7540  -19.6413 C.ar    1  UNL1        0.0343
     18 C         -65.8312  -36.5831  -18.9695 C.ar    1  UNL1        0.0080
     19 C         -64.8452  -35.6516  -18.5961 C.ar    1  UNL1        0.0875
     20 C         -65.2420  -34.3866  -17.8592 C.3     1  UNL1        0.4197
     21 F         -66.5714  -34.0663  -18.0771 F       1  UNL1       -0.1658
     22 F         -65.0543  -34.5655  -16.5011 F       1  UNL1       -0.1658
     23 F         -64.4754  -33.3193  -18.2906 F       1  UNL1       -0.1658
     24 C         -62.3554  -35.0432  -18.5097 C.3     1  UNL1        0.1876
     25 C         -61.6680  -35.1604  -20.7067 C.3     1  UNL1        0.1747
     26 O         -61.2518  -35.2681  -19.3639 O.3     1  UNL1       -0.3447
     27 C         -61.3763  -46.3158  -24.6265 C.2     1  UNL1        0.2483
     28 O         -60.3237  -46.9301  -24.3001 O.2     1  UNL1       -0.2701
     29 N         -62.1929  -46.8229  -25.6954 N.am    1  UNL1       -0.2945
     30 H         -63.1651  -46.4531  -25.7860 H       1  UNL1        0.1501
     31 C         -61.7540  -47.9318  -26.5570 C.3     1  UNL1        0.1535
     32 C         -61.9981  -49.2744  -25.9059 C.2     1  UNL1        0.2443
     33 O         -62.7434  -50.1226  -26.4694 O.2     1  UNL1       -0.2730
     34 N         -61.2768  -49.6246  -24.7138 N.am    1  UNL1       -0.2825
     35 H         -60.4919  -49.0001  -24.4194 H       1  UNL1        0.1549
     36 C         -61.4386  -50.8725  -24.0198 C.ar    1  UNL1        0.0535
     37 C         -60.3867  -51.7981  -23.9193 C.ar    1  UNL1        0.0353
     38 C         -60.5946  -53.0058  -23.2482 C.ar    1  UNL1        0.1002
     39 N         -61.8103  -53.2865  -22.7087 N.ar    1  UNL1       -0.2422
     40 C         -62.8503  -52.4168  -22.8061 C.ar    1  UNL1        0.1002
     41 C         -62.6855  -51.1991  -23.4702 C.ar    1  UNL1        0.0353
     42 C         -62.4296  -47.8658  -27.9428 C.3     1  UNL1        0.0569
     43 C         -62.2669  -46.5276  -28.6080 C.ar    1  UNL1       -0.0017
     44 C         -61.0691  -45.8556  -28.8312 C.ar    1  UNL1        0.0681
     45 N         -61.3024  -44.6491  -29.3958 N.ar    1  UNL1       -0.3523
     46 C         -62.6367  -44.5523  -29.5284 C.ar    1  UNL1        0.0563
     47 C         -63.3581  -43.4793  -30.0500 C.ar    1  UNL1        0.0170
     48 C         -64.7607  -43.5841  -30.0842 C.ar    1  UNL1        0.0015
     49 C         -65.4036  -44.7461  -29.6028 C.ar    1  UNL1        0.0001
     50 C         -64.6503  -45.8140  -29.0831 C.ar    1  UNL1        0.0012
     51 C         -63.2609  -45.6801  -29.0594 C.ar    1  UNL1        0.0131
     52 H         -60.5880  -43.9364  -29.6644 H       1  UNL1        0.1660
@<TRIPOS>BOND
     1    25    26    1
     2    26    24    1
     3    24    14    1
     4    14    15   ar
     5    15    16   ar
     6    16     8    1
     7     8     9    1
     8     9    10    1
     9    10    11    1
    10    11     1    1
    11     1     2   ar
    12     2     3   ar
    13     3     4   ar
    14     4    27    1
    15    27    28    2
    16    27    29   am
    17    29    31    1
    18    31    42    1
    19    42    43    1
    20    43    44   ar
    21    44    45   ar
    22    45    46   ar
    23    46    47   ar
    24    47    48   ar
    25    48    49   ar
    26    49    50   ar
    27    50    51   ar
    28    31    32    1
    29    32    33    2
    30    32    34   am
    31    34    36    1
    32    36    37   ar
    33    37    38   ar
    34    38    39   ar
    35    39    40   ar
    36    40    41   ar
    37     4     5   ar
    38     5     6    1
    39     5     7   ar
    40    11    12    1
    41    12    13    1
    42    16    17   ar
    43    17    18   ar
    44    18    19   ar
    45    19    20    1
    46    20    21    1
    47    20    22    1
    48    20    23    1
    49    19    14   ar
    50    13     8    1
    51     7     1   ar
    52    51    43   ar
    53    41    36   ar
    54    51    46   ar
    55    29    30    1
    56    45    52    1
    57    34    35    1
