@<TRIPOS>MOLECULE
*****
 46 51 0 0 0
SMALL
GASTEIGER

@<TRIPOS>ATOM
      1 O           2.6585   77.2127   24.4845 O.2     1  UNL1       -0.2701
      2 C           3.8263   76.7488   24.3712 C.2     1  UNL1        0.2483
      3 N           4.1817   75.9910   23.2034 N.am    1  UNL1       -0.2945
      4 H           5.0621   75.4277   23.2186 H       1  UNL1        0.1501
      5 C           4.8027   76.9690   25.4617 C.ar    1  UNL1        0.0808
      6 C           4.3481   77.0926   26.7851 C.ar    1  UNL1        0.0080
      7 C           5.2516   77.2982   27.8305 C.ar    1  UNL1        0.0148
      8 C           6.6281   77.3916   27.5733 C.ar    1  UNL1        0.0502
      9 C           7.0828   77.2946   26.2490 C.ar    1  UNL1        0.0443
     10 C           6.1818   77.0864   25.1998 C.ar    1  UNL1        0.1457
     11 F           6.6583   77.0494   23.9296 F       1  UNL1       -0.2040
     12 N           7.5574   77.6190   28.6504 N.pl3   1  UNL1       -0.3040
     13 C           8.9131   78.1083   28.3499 C.3     1  UNL1        0.1122
     14 C           9.6514   78.5290   29.6258 C.3     1  UNL1        0.1122
     15 N           8.7424   79.2848   30.4994 N.pl3   1  UNL1       -0.3040
     16 C           7.4254   78.7221   30.8412 C.3     1  UNL1        0.1122
     17 C           7.1425   77.4404   30.0492 C.3     1  UNL1        0.1122
     18 C           9.0963   80.6006   30.9670 C.ar    1  UNL1        0.0502
     19 C           9.7966   81.4890   30.1314 C.ar    1  UNL1        0.0147
     20 C          10.1274   82.7705   30.5817 C.ar    1  UNL1        0.0036
     21 C           9.7601   83.1784   31.8664 C.ar    1  UNL1        0.0297
     22 C           9.0582   82.3059   32.7024 C.ar    1  UNL1        0.1414
     23 F           8.7020   82.7028   33.9491 F       1  UNL1       -0.2041
     24 C           8.7243   81.0233   32.2554 C.ar    1  UNL1        0.0441
     25 C           3.3096   75.9283   22.0256 C.3     1  UNL1        0.1535
     26 C           3.7514   76.9440   21.0025 C.2     1  UNL1        0.2443
     27 O           2.9327   77.8092   20.5874 O.2     1  UNL1       -0.2730
     28 N           5.1067   76.9346   20.5266 N.am    1  UNL1       -0.2825
     29 H           5.6560   76.0520   20.6343 H       1  UNL1        0.1549
     30 C           5.7429   78.0471   19.8751 C.ar    1  UNL1        0.0535
     31 C           5.2510   78.4944   18.6413 C.ar    1  UNL1        0.0353
     32 C           5.8834   79.5543   17.9872 C.ar    1  UNL1        0.1002
     33 N           6.9810   80.1374   18.5371 N.ar    1  UNL1       -0.2422
     34 C           7.4936   79.7133   19.7224 C.ar    1  UNL1        0.1002
     35 C           6.8905   78.6574   20.4102 C.ar    1  UNL1        0.0353
     36 C           3.3240   74.5115   21.4206 C.3     1  UNL1        0.0569
     37 C           4.7019   74.1126   20.9717 C.ar    1  UNL1       -0.0017
     38 C           5.0937   73.8144   19.6697 C.ar    1  UNL1        0.0681
     39 N           6.3767   73.3872   19.6486 N.ar    1  UNL1       -0.3523
     40 C           6.7947   73.4039   20.9262 C.ar    1  UNL1        0.0563
     41 C           8.0446   73.0215   21.4111 C.ar    1  UNL1        0.0170
     42 C           8.2616   73.0947   22.7993 C.ar    1  UNL1        0.0015
     43 C           7.2351   73.5395   23.6619 C.ar    1  UNL1        0.0001
     44 C           5.9823   73.9161   23.1445 C.ar    1  UNL1        0.0012
     45 C           5.7992   73.8379   21.7638 C.ar    1  UNL1        0.0131
     46 H           6.9213   73.0865   18.8099 H       1  UNL1        0.1660
@<TRIPOS>BOND
     1     1     2    2
     2     2     3   am
     3     3    25    1
     4    25    36    1
     5    36    37    1
     6    37    38   ar
     7    38    39   ar
     8    39    40   ar
     9    40    41   ar
    10    41    42   ar
    11    42    43   ar
    12    43    44   ar
    13    44    45   ar
    14    25    26    1
    15    26    27    2
    16    26    28   am
    17    28    30    1
    18    30    31   ar
    19    31    32   ar
    20    32    33   ar
    21    33    34   ar
    22    34    35   ar
    23     2     5    1
    24     5     6   ar
    25     6     7   ar
    26     7     8   ar
    27     8    12    1
    28    12    13    1
    29    13    14    1
    30    14    15    1
    31    15    18    1
    32    18    19   ar
    33    19    20   ar
    34    20    21   ar
    35    21    22   ar
    36    22    23    1
    37    22    24   ar
    38    15    16    1
    39    16    17    1
    40     8     9   ar
    41     9    10   ar
    42    10    11    1
    43    45    37   ar
    44    35    30   ar
    45    10     5   ar
    46    45    40   ar
    47    17    12    1
    48    24    18   ar
    49     3     4    1
    50    39    46    1
    51    28    29    1
@<TRIPOS>MOLECULE
*****
 46 51 0 0 0
SMALL
GASTEIGER

@<TRIPOS>ATOM
      1 O          13.9102   83.0883   25.9990 O.2     1  UNL1       -0.2701
      2 C          13.3344   82.7757   24.9207 C.2     1  UNL1        0.2483
      3 N          13.4232   83.6520   23.7856 N.am    1  UNL1       -0.2945
      4 H          12.7698   83.5030   22.9835 H       1  UNL1        0.1501
      5 C          12.5502   81.5220   24.8548 C.ar    1  UNL1        0.0808
      6 C          11.1495   81.5841   24.7686 C.ar    1  UNL1        0.0080
      7 C          10.3891   80.4141   24.7027 C.ar    1  UNL1        0.0148
      8 C          11.0133   79.1573   24.7287 C.ar    1  UNL1        0.0502
      9 C          12.4108   79.0921   24.8411 C.ar    1  UNL1        0.0443
     10 C          13.1759   80.2611   24.9050 C.ar    1  UNL1        0.1457
     11 F          14.5192   80.1525   25.0644 F       1  UNL1       -0.2040
     12 N          10.2270   77.9514   24.6762 N.pl3   1  UNL1       -0.3040
     13 C           9.4991   77.6112   23.4424 C.3     1  UNL1        0.1122
     14 C           8.9427   76.1838   23.4969 C.3     1  UNL1        0.1122
     15 N           9.9531   75.2782   24.0623 N.pl3   1  UNL1       -0.3040
     16 C          10.6000   75.6163   25.3410 C.3     1  UNL1        0.1122
     17 C          10.2050   77.0202   25.8134 C.3     1  UNL1        0.1122
     18 C          10.3687   74.1000   23.3450 C.ar    1  UNL1        0.0502
     19 C          11.7298   73.8762   23.0709 C.ar    1  UNL1        0.0147
     20 C          12.1330   72.7256   22.3866 C.ar    1  UNL1        0.0036
     21 C          11.1840   71.7873   21.9734 C.ar    1  UNL1        0.0297
     22 C           9.8296   71.9967   22.2467 C.ar    1  UNL1        0.1414
     23 F           8.9093   71.0853   21.8453 F       1  UNL1       -0.2041
     24 C           9.4221   73.1459   22.9319 C.ar    1  UNL1        0.0441
     25 C          14.3499   84.7886   23.7550 C.3     1  UNL1        0.1535
     26 C          14.8358   85.0197   22.3464 C.2     1  UNL1        0.2443
     27 O          15.9045   84.4744   21.9569 O.2     1  UNL1       -0.2730
     28 N          14.0663   85.8383   21.4513 N.am    1  UNL1       -0.2825
     29 H          13.3850   86.5117   21.8692 H       1  UNL1        0.1549
     30 C          14.2017   85.8202   20.0201 C.ar    1  UNL1        0.0535
     31 C          13.8614   86.9625   19.2829 C.ar    1  UNL1        0.0353
     32 C          13.9604   86.9420   17.8897 C.ar    1  UNL1        0.1002
     33 N          14.3685   85.8135   17.2516 N.ar    1  UNL1       -0.2422
     34 C          14.6864   84.6838   17.9373 C.ar    1  UNL1        0.1002
     35 C          14.6029   84.6622   19.3317 C.ar    1  UNL1        0.0353
     36 C          13.6660   86.0551   24.3045 C.3     1  UNL1        0.0569
     37 C          14.5271   86.7571   25.3168 C.ar    1  UNL1       -0.0017
     38 C          14.2808   86.8601   26.6830 C.ar    1  UNL1        0.0681
     39 N          15.2034   87.6554   27.2707 N.ar    1  UNL1       -0.3523
     40 C          16.0235   88.0627   26.2865 C.ar    1  UNL1        0.0563
     41 C          17.1163   88.9212   26.3985 C.ar    1  UNL1        0.0170
     42 C          17.8263   89.2380   25.2259 C.ar    1  UNL1        0.0015
     43 C          17.4303   88.6990   23.9815 C.ar    1  UNL1        0.0001
     44 C          16.3213   87.8375   23.8982 C.ar    1  UNL1        0.0012
     45 C          15.6409   87.5378   25.0785 C.ar    1  UNL1        0.0131
     46 H          15.2523   87.9144   28.2811 H       1  UNL1        0.1660
@<TRIPOS>BOND
     1     1     2    2
     2     2     3   am
     3     3    25    1
     4    25    36    1
     5    36    37    1
     6    37    38   ar
     7    38    39   ar
     8    39    40   ar
     9    40    41   ar
    10    41    42   ar
    11    42    43   ar
    12    43    44   ar
    13    44    45   ar
    14    25    26    1
    15    26    27    2
    16    26    28   am
    17    28    30    1
    18    30    31   ar
    19    31    32   ar
    20    32    33   ar
    21    33    34   ar
    22    34    35   ar
    23     2     5    1
    24     5     6   ar
    25     6     7   ar
    26     7     8   ar
    27     8    12    1
    28    12    13    1
    29    13    14    1
    30    14    15    1
    31    15    18    1
    32    18    19   ar
    33    19    20   ar
    34    20    21   ar
    35    21    22   ar
    36    22    23    1
    37    22    24   ar
    38    15    16    1
    39    16    17    1
    40     8     9   ar
    41     9    10   ar
    42    10    11    1
    43    45    37   ar
    44    35    30   ar
    45    10     5   ar
    46    45    40   ar
    47    17    12    1
    48    24    18   ar
    49     3     4    1
    50    39    46    1
    51    28    29    1
@<TRIPOS>MOLECULE
*****
 46 51 0 0 0
SMALL
GASTEIGER

@<TRIPOS>ATOM
      1 O           7.2875   77.3262   22.5595 O.2     1  UNL1       -0.2701
      2 C           6.8267   76.5852   23.4707 C.2     1  UNL1        0.2483
      3 N           6.0039   75.4591   23.1252 N.am    1  UNL1       -0.2945
      4 H           5.4493   74.9922   23.8782 H       1  UNL1        0.1501
      5 C           7.1184   76.9090   24.8853 C.ar    1  UNL1        0.0808
      6 C           8.4170   77.2971   25.2543 C.ar    1  UNL1        0.0080
      7 C           8.7147   77.6098   26.5827 C.ar    1  UNL1        0.0148
      8 C           7.7214   77.5342   27.5714 C.ar    1  UNL1        0.0502
      9 C           6.4295   77.1215   27.2101 C.ar    1  UNL1        0.0443
     10 C           6.1267   76.8098   25.8807 C.ar    1  UNL1        0.1457
     11 F           4.8790   76.3663   25.5836 F       1  UNL1       -0.2040
     12 N           8.0335   77.8421   28.9437 N.pl3   1  UNL1       -0.3040
     13 C           9.4379   78.0219   29.3473 C.3     1  UNL1        0.1122
     14 C           9.5434   78.5915   30.7666 C.3     1  UNL1        0.1122
     15 N           8.5535   79.6632   30.9465 N.pl3   1  UNL1       -0.3040
     16 C           7.1425   79.4159   30.6060 C.3     1  UNL1        0.1122
     17 C           6.9617   78.0532   29.9273 C.3     1  UNL1        0.1122
     18 C           8.9598   80.9740   31.3846 C.ar    1  UNL1        0.0502
     19 C           9.5135   81.8900   30.4725 C.ar    1  UNL1        0.0147
     20 C           9.8949   83.1666   30.8963 C.ar    1  UNL1        0.0036
     21 C           9.7241   83.5418   32.2311 C.ar    1  UNL1        0.0297
     22 C           9.1686   82.6416   33.1443 C.ar    1  UNL1        0.1414
     23 F           9.0032   83.0069   34.4396 F       1  UNL1       -0.2041
     24 C           8.7848   81.3639   32.7242 C.ar    1  UNL1        0.0441
     25 C           5.8651   74.9971   21.7400 C.3     1  UNL1        0.1535
     26 C           7.0460   74.1390   21.3620 C.2     1  UNL1        0.2443
     27 O           7.1965   73.7767   20.1631 O.2     1  UNL1       -0.2730
     28 N           8.0035   73.7612   22.3639 N.am    1  UNL1       -0.2825
     29 H           7.7037   73.7984   23.3645 H       1  UNL1        0.1549
     30 C           9.3335   73.2966   22.0774 C.ar    1  UNL1        0.0535
     31 C           9.6063   71.9226   22.1224 C.ar    1  UNL1        0.0353
     32 C          10.9033   71.4660   21.8762 C.ar    1  UNL1        0.1002
     33 N          11.8992   72.3520   21.6113 N.ar    1  UNL1       -0.2422
     34 C          11.6704   73.6915   21.5802 C.ar    1  UNL1        0.1002
     35 C          10.3874   74.1900   21.8190 C.ar    1  UNL1        0.0353
     36 C           4.5503   74.2136   21.5636 C.3     1  UNL1        0.0569
     37 C           3.4192   75.1120   21.1480 C.ar    1  UNL1       -0.0017
     38 C           2.8505   75.1932   19.8801 C.ar    1  UNL1        0.0681
     39 N           1.9322   76.1852   19.8369 N.ar    1  UNL1       -0.3523
     40 C           1.9234   76.7366   21.0629 C.ar    1  UNL1        0.0563
     41 C           1.1551   77.8153   21.4985 C.ar    1  UNL1        0.0170
     42 C           1.3246   78.2496   22.8260 C.ar    1  UNL1        0.0015
     43 C           2.2504   77.6060   23.6771 C.ar    1  UNL1        0.0001
     44 C           3.0145   76.5215   23.2092 C.ar    1  UNL1        0.0012
     45 C           2.8204   76.1105   21.8903 C.ar    1  UNL1        0.0131
     46 H           1.3630   76.4740   19.0106 H       1  UNL1        0.1660
@<TRIPOS>BOND
     1     1     2    2
     2     2     3   am
     3     3    25    1
     4    25    36    1
     5    36    37    1
     6    37    38   ar
     7    38    39   ar
     8    39    40   ar
     9    40    41   ar
    10    41    42   ar
    11    42    43   ar
    12    43    44   ar
    13    44    45   ar
    14    25    26    1
    15    26    27    2
    16    26    28   am
    17    28    30    1
    18    30    31   ar
    19    31    32   ar
    20    32    33   ar
    21    33    34   ar
    22    34    35   ar
    23     2     5    1
    24     5     6   ar
    25     6     7   ar
    26     7     8   ar
    27     8    12    1
    28    12    13    1
    29    13    14    1
    30    14    15    1
    31    15    18    1
    32    18    19   ar
    33    19    20   ar
    34    20    21   ar
    35    21    22   ar
    36    22    23    1
    37    22    24   ar
    38    15    16    1
    39    16    17    1
    40     8     9   ar
    41     9    10   ar
    42    10    11    1
    43    45    37   ar
    44    35    30   ar
    45    10     5   ar
    46    45    40   ar
    47    17    12    1
    48    24    18   ar
    49     3     4    1
    50    39    46    1
    51    28    29    1
@<TRIPOS>MOLECULE
*****
 46 51 0 0 0
SMALL
GASTEIGER

@<TRIPOS>ATOM
      1 O           9.4401   75.6525   28.9814 O.2     1  UNL1       -0.2701
      2 C           8.4418   76.1576   28.3983 C.2     1  UNL1        0.2483
      3 N           7.5666   77.0398   29.1196 N.am    1  UNL1       -0.2945
      4 H           6.6342   77.2701   28.7072 H       1  UNL1        0.1501
      5 C           8.1731   75.8065   26.9857 C.ar    1  UNL1        0.0808
      6 C           8.9292   76.4076   25.9658 C.ar    1  UNL1        0.0080
      7 C           8.6949   76.0896   24.6259 C.ar    1  UNL1        0.0148
      8 C           7.6946   75.1689   24.2775 C.ar    1  UNL1        0.0502
      9 C           6.9201   74.5865   25.2928 C.ar    1  UNL1        0.0443
     10 C           7.1530   74.9004   26.6357 C.ar    1  UNL1        0.1457
     11 F           6.3480   74.3537   27.5816 F       1  UNL1       -0.2040
     12 N           7.4436   74.8533   22.8945 N.pl3   1  UNL1       -0.3040
     13 C           6.6678   73.6496   22.5526 C.3     1  UNL1        0.1122
     14 C           6.2927   73.6295   21.0664 C.3     1  UNL1        0.1122
     15 N           5.8514   74.9675   20.6473 N.pl3   1  UNL1       -0.3040
     16 C           6.6969   76.1374   20.9382 C.3     1  UNL1        0.1122
     17 C           7.8882   75.7594   21.8258 C.3     1  UNL1        0.1122
     18 C           4.5690   75.1559   20.0188 C.ar    1  UNL1        0.0502
     19 C           3.4103   74.5914   20.5814 C.ar    1  UNL1        0.0147
     20 C           2.1644   74.7865   19.9777 C.ar    1  UNL1        0.0036
     21 C           2.0626   75.5483   18.8112 C.ar    1  UNL1        0.0297
     22 C           3.2067   76.1193   18.2475 C.ar    1  UNL1        0.1414
     23 F           3.1068   76.8587   17.1153 F       1  UNL1       -0.2041
     24 C           4.4549   75.9275   18.8489 C.ar    1  UNL1        0.0441
     25 C           7.9143   77.5627   30.4451 C.3     1  UNL1        0.1535
     26 C           8.3472   79.0028   30.3339 C.2     1  UNL1        0.2443
     27 O           7.9379   79.7053   29.3694 O.2     1  UNL1       -0.2730
     28 N           9.2017   79.5709   31.3391 N.am    1  UNL1       -0.2825
     29 H           9.7652   78.9164   31.9278 H       1  UNL1        0.1549
     30 C           9.3629   80.9822   31.5605 C.ar    1  UNL1        0.0535
     31 C           9.9476   81.7725   30.5616 C.ar    1  UNL1        0.0353
     32 C          10.1362   83.1389   30.7819 C.ar    1  UNL1        0.1002
     33 N           9.7700   83.6955   31.9665 N.ar    1  UNL1       -0.2422
     34 C           9.2189   82.9520   32.9619 C.ar    1  UNL1        0.1002
     35 C           9.0112   81.5822   32.7820 C.ar    1  UNL1        0.0353
     36 C           6.7171   77.4319   31.4059 C.3     1  UNL1        0.0569
     37 C           5.4841   76.9484   30.6951 C.ar    1  UNL1       -0.0017
     38 C           4.3977   77.7250   30.3022 C.ar    1  UNL1        0.0681
     39 N           3.4194   76.9442   29.7902 N.ar    1  UNL1       -0.3523
     40 C           3.8746   75.6815   29.8654 C.ar    1  UNL1        0.0563
     41 C           3.2076   74.5189   29.4817 C.ar    1  UNL1        0.0170
     42 C           3.8650   73.2899   29.6743 C.ar    1  UNL1        0.0015
     43 C           5.1576   73.2508   30.2432 C.ar    1  UNL1        0.0001
     44 C           5.8052   74.4403   30.6238 C.ar    1  UNL1        0.0012
     45 C           5.1304   75.6432   30.4154 C.ar    1  UNL1        0.0131
     46 H           2.4918   77.2606   29.4299 H       1  UNL1        0.1660
@<TRIPOS>BOND
     1     1     2    2
     2     2     3   am
     3     3    25    1
     4    25    36    1
     5    36    37    1
     6    37    38   ar
     7    38    39   ar
     8    39    40   ar
     9    40    41   ar
    10    41    42   ar
    11    42    43   ar
    12    43    44   ar
    13    44    45   ar
    14    25    26    1
    15    26    27    2
    16    26    28   am
    17    28    30    1
    18    30    31   ar
    19    31    32   ar
    20    32    33   ar
    21    33    34   ar
    22    34    35   ar
    23     2     5    1
    24     5     6   ar
    25     6     7   ar
    26     7     8   ar
    27     8    12    1
    28    12    13    1
    29    13    14    1
    30    14    15    1
    31    15    18    1
    32    18    19   ar
    33    19    20   ar
    34    20    21   ar
    35    21    22   ar
    36    22    23    1
    37    22    24   ar
    38    15    16    1
    39    16    17    1
    40     8     9   ar
    41     9    10   ar
    42    10    11    1
    43    45    37   ar
    44    35    30   ar
    45    10     5   ar
    46    45    40   ar
    47    17    12    1
    48    24    18   ar
    49     3     4    1
    50    39    46    1
    51    28    29    1
@<TRIPOS>MOLECULE
*****
 46 51 0 0 0
SMALL
GASTEIGER

@<TRIPOS>ATOM
      1 O           7.6306   75.8107   26.5111 O.2     1  UNL1       -0.2701
      2 C           7.1164   76.8394   25.9923 C.2     1  UNL1        0.2483
      3 N           7.2896   78.1182   26.6239 N.am    1  UNL1       -0.2945
      4 H           6.6839   78.9144   26.3208 H       1  UNL1        0.1501
      5 C           6.3158   76.7040   24.7547 C.ar    1  UNL1        0.0808
      6 C           6.9682   76.5859   23.5163 C.ar    1  UNL1        0.0080
      7 C           6.2333   76.4545   22.3356 C.ar    1  UNL1        0.0148
      8 C           4.8302   76.4456   22.3680 C.ar    1  UNL1        0.0502
      9 C           4.1755   76.5897   23.6012 C.ar    1  UNL1        0.0443
     10 C           4.9077   76.7191   24.7858 C.ar    1  UNL1        0.1457
     11 F           4.2355   76.9071   25.9497 F       1  UNL1       -0.2040
     12 N           4.0733   76.3255   21.1482 N.pl3   1  UNL1       -0.3040
     13 C           4.3596   75.2183   20.2209 C.3     1  UNL1        0.1122
     14 C           3.2908   75.1146   19.1268 C.3     1  UNL1        0.1122
     15 N           1.9565   75.2907   19.7178 N.pl3   1  UNL1       -0.3040
     16 C           1.6882   76.4567   20.5758 C.3     1  UNL1        0.1122
     17 C           2.9690   77.2509   20.8566 C.3     1  UNL1        0.1122
     18 C           0.9298   74.2988   19.5248 C.ar    1  UNL1        0.0502
     19 C          -0.1705   74.5656   18.6906 C.ar    1  UNL1        0.0147
     20 C          -1.1593   73.5970   18.4935 C.ar    1  UNL1        0.0036
     21 C          -1.0577   72.3538   19.1227 C.ar    1  UNL1        0.0297
     22 C           0.0350   72.0759   19.9483 C.ar    1  UNL1        0.1414
     23 F           0.1327   70.8689   20.5584 F       1  UNL1       -0.2041
     24 C           1.0269   73.0418   20.1473 C.ar    1  UNL1        0.0441
     25 C           8.2361   78.3157   27.7268 C.3     1  UNL1        0.1535
     26 C           9.2925   79.3146   27.3269 C.2     1  UNL1        0.2443
     27 O           9.8767   79.9949   28.2141 O.2     1  UNL1       -0.2730
     28 N           9.6434   79.4665   25.9423 N.am    1  UNL1       -0.2825
     29 H           8.9548   79.1430   25.2257 H       1  UNL1        0.1549
     30 C          10.8621   80.0718   25.4783 C.ar    1  UNL1        0.0535
     31 C          11.9730   79.2610   25.2085 C.ar    1  UNL1        0.0353
     32 C          13.1702   79.8450   24.7876 C.ar    1  UNL1        0.1002
     33 N          13.2615   81.1947   24.6572 N.ar    1  UNL1       -0.2422
     34 C          12.2080   82.0090   24.9304 C.ar    1  UNL1        0.1002
     35 C          10.9920   81.4657   25.3522 C.ar    1  UNL1        0.0353
     36 C           7.4962   78.7903   28.9921 C.3     1  UNL1        0.0569
     37 C           6.2063   78.0457   29.1941 C.ar    1  UNL1       -0.0017
     38 C           4.9254   78.5902   29.1766 C.ar    1  UNL1        0.0681
     39 N           4.0086   77.6519   29.5052 N.ar    1  UNL1       -0.3523
     40 C           4.7001   76.5230   29.7391 C.ar    1  UNL1        0.0563
     41 C           4.1909   75.2873   30.1359 C.ar    1  UNL1        0.0170
     42 C           5.1039   74.2388   30.3518 C.ar    1  UNL1        0.0015
     43 C           6.4896   74.4476   30.1721 C.ar    1  UNL1        0.0001
     44 C           6.9750   75.7065   29.7740 C.ar    1  UNL1        0.0012
     45 C           6.0452   76.7246   29.5625 C.ar    1  UNL1        0.0131
     46 H           2.9759   77.7869   29.5809 H       1  UNL1        0.1660
@<TRIPOS>BOND
     1     1     2    2
     2     2     3   am
     3     3    25    1
     4    25    36    1
     5    36    37    1
     6    37    38   ar
     7    38    39   ar
     8    39    40   ar
     9    40    41   ar
    10    41    42   ar
    11    42    43   ar
    12    43    44   ar
    13    44    45   ar
    14    25    26    1
    15    26    27    2
    16    26    28   am
    17    28    30    1
    18    30    31   ar
    19    31    32   ar
    20    32    33   ar
    21    33    34   ar
    22    34    35   ar
    23     2     5    1
    24     5     6   ar
    25     6     7   ar
    26     7     8   ar
    27     8    12    1
    28    12    13    1
    29    13    14    1
    30    14    15    1
    31    15    18    1
    32    18    19   ar
    33    19    20   ar
    34    20    21   ar
    35    21    22   ar
    36    22    23    1
    37    22    24   ar
    38    15    16    1
    39    16    17    1
    40     8     9   ar
    41     9    10   ar
    42    10    11    1
    43    45    37   ar
    44    35    30   ar
    45    10     5   ar
    46    45    40   ar
    47    17    12    1
    48    24    18   ar
    49     3     4    1
    50    39    46    1
    51    28    29    1
@<TRIPOS>MOLECULE
*****
 46 51 0 0 0
SMALL
GASTEIGER

@<TRIPOS>ATOM
      1 O           8.9469   74.2985   24.3203 O.2     1  UNL1       -0.2701
      2 C           8.6255   75.4777   24.0073 C.2     1  UNL1        0.2483
      3 N           9.3634   76.5850   24.5494 N.am    1  UNL1       -0.2945
      4 H           8.9591   77.5455   24.4694 H       1  UNL1        0.1501
      5 C           7.4709   75.6999   23.1081 C.ar    1  UNL1        0.0808
      6 C           7.6283   75.5305   21.7226 C.ar    1  UNL1        0.0080
      7 C           6.5521   75.7322   20.8552 C.ar    1  UNL1        0.0148
      8 C           5.2975   76.1145   21.3548 C.ar    1  UNL1        0.0502
      9 C           5.1441   76.3099   22.7362 C.ar    1  UNL1        0.0443
     10 C           6.2185   76.1067   23.6083 C.ar    1  UNL1        0.1457
     11 F           6.0405   76.3559   24.9303 F       1  UNL1       -0.2040
     12 N           4.1923   76.3371   20.4579 N.pl3   1  UNL1       -0.3040
     13 C           4.1508   75.6318   19.1662 C.3     1  UNL1        0.1122
     14 C           2.7897   75.7994   18.4811 C.3     1  UNL1        0.1122
     15 N           1.7134   75.6461   19.4704 N.pl3   1  UNL1       -0.3040
     16 C           1.7513   76.4314   20.7153 C.3     1  UNL1        0.1122
     17 C           3.0700   77.2013   20.8507 C.3     1  UNL1        0.1122
     18 C           0.6598   74.6847   19.2681 C.ar    1  UNL1        0.0502
     19 C          -0.5518   75.0715   18.6681 C.ar    1  UNL1        0.0147
     20 C          -1.5683   74.1343   18.4601 C.ar    1  UNL1        0.0036
     21 C          -1.3842   72.8040   18.8446 C.ar    1  UNL1        0.0297
     22 C          -0.1815   72.4075   19.4355 C.ar    1  UNL1        0.1414
     23 F          -0.0038   71.1160   19.8083 F       1  UNL1       -0.2041
     24 C           0.8384   73.3417   19.6445 C.ar    1  UNL1        0.0441
     25 C          10.6251   76.3951   25.2730 C.3     1  UNL1        0.1535
     26 C          11.7657   76.9877   24.4847 C.2     1  UNL1        0.2443
     27 O          11.5703   77.3790   23.3015 O.2     1  UNL1       -0.2730
     28 N          13.0591   77.1252   25.0942 N.am    1  UNL1       -0.2825
     29 H          13.2735   76.5278   25.9246 H       1  UNL1        0.1549
     30 C          14.0919   78.0011   24.6115 C.ar    1  UNL1        0.0535
     31 C          14.1478   79.3212   25.0790 C.ar    1  UNL1        0.0353
     32 C          15.1290   80.1873   24.5910 C.ar    1  UNL1        0.1002
     33 N          16.0144   79.7561   23.6543 N.ar    1  UNL1       -0.2422
     34 C          15.9734   78.4880   23.1668 C.ar    1  UNL1        0.1002
     35 C          15.0091   77.5891   23.6294 C.ar    1  UNL1        0.0353
     36 C          10.5449   77.0368   26.6714 C.3     1  UNL1        0.0569
     37 C          10.3040   76.0094   27.7416 C.ar    1  UNL1       -0.0017
     38 C          11.2598   75.1816   28.3237 C.ar    1  UNL1        0.0681
     39 N          10.6730   74.3039   29.1689 N.ar    1  UNL1       -0.3523
     40 C           9.3550   74.5640   29.1180 C.ar    1  UNL1        0.0563
     41 C           8.3360   73.9001   29.7996 C.ar    1  UNL1        0.0170
     42 C           7.0126   74.3231   29.5777 C.ar    1  UNL1        0.0015
     43 C           6.7403   75.3851   28.6868 C.ar    1  UNL1        0.0001
     44 C           7.7888   76.0347   28.0102 C.ar    1  UNL1        0.0012
     45 C           9.0903   75.5966   28.2550 C.ar    1  UNL1        0.0131
     46 H          11.1490   73.5626   29.7293 H       1  UNL1        0.1660
@<TRIPOS>BOND
     1     1     2    2
     2     2     3   am
     3     3    25    1
     4    25    36    1
     5    36    37    1
     6    37    38   ar
     7    38    39   ar
     8    39    40   ar
     9    40    41   ar
    10    41    42   ar
    11    42    43   ar
    12    43    44   ar
    13    44    45   ar
    14    25    26    1
    15    26    27    2
    16    26    28   am
    17    28    30    1
    18    30    31   ar
    19    31    32   ar
    20    32    33   ar
    21    33    34   ar
    22    34    35   ar
    23     2     5    1
    24     5     6   ar
    25     6     7   ar
    26     7     8   ar
    27     8    12    1
    28    12    13    1
    29    13    14    1
    30    14    15    1
    31    15    18    1
    32    18    19   ar
    33    19    20   ar
    34    20    21   ar
    35    21    22   ar
    36    22    23    1
    37    22    24   ar
    38    15    16    1
    39    16    17    1
    40     8     9   ar
    41     9    10   ar
    42    10    11    1
    43    45    37   ar
    44    35    30   ar
    45    10     5   ar
    46    45    40   ar
    47    17    12    1
    48    24    18   ar
    49     3     4    1
    50    39    46    1
    51    28    29    1
@<TRIPOS>MOLECULE
*****
 46 51 0 0 0
SMALL
GASTEIGER

@<TRIPOS>ATOM
      1 O          10.0884   78.5843   22.4373 O.2     1  UNL1       -0.2701
      2 C           9.0481   78.1889   23.0314 C.2     1  UNL1        0.2483
      3 N           9.0819   77.9567   24.4490 N.am    1  UNL1       -0.2945
      4 H           8.2988   77.4226   24.8894 H       1  UNL1        0.1501
      5 C           7.8162   77.9415   22.2490 C.ar    1  UNL1        0.0808
      6 C           7.5505   78.7189   21.1096 C.ar    1  UNL1        0.0080
      7 C           6.3956   78.5016   20.3545 C.ar    1  UNL1        0.0148
      8 C           5.4785   77.5067   20.7272 C.ar    1  UNL1        0.0502
      9 C           5.7284   76.7460   21.8799 C.ar    1  UNL1        0.0443
     10 C           6.8846   76.9589   22.6374 C.ar    1  UNL1        0.1457
     11 F           7.0620   76.2364   23.7724 F       1  UNL1       -0.2040
     12 N           4.2802   77.2938   19.9564 N.pl3   1  UNL1       -0.3040
     13 C           4.3148   76.3925   18.7926 C.3     1  UNL1        0.1122
     14 C           2.9037   76.0994   18.2702 C.3     1  UNL1        0.1122
     15 N           1.9967   75.8534   19.4005 N.pl3   1  UNL1       -0.3040
     16 C           1.9334   76.8222   20.5075 C.3     1  UNL1        0.1122
     17 C           3.0076   77.9063   20.3638 C.3     1  UNL1        0.1122
     18 C           1.2220   74.6410   19.4716 C.ar    1  UNL1        0.0502
     19 C           1.6147   73.5938   20.3240 C.ar    1  UNL1        0.0147
     20 C           0.8543   72.4232   20.4021 C.ar    1  UNL1        0.0036
     21 C          -0.3051   72.2882   19.6346 C.ar    1  UNL1        0.0297
     22 C          -0.7081   73.3255   18.7893 C.ar    1  UNL1        0.1414
     23 F          -1.8337   73.1936   18.0449 F       1  UNL1       -0.2041
     24 C           0.0492   74.4987   18.7090 C.ar    1  UNL1        0.0441
     25 C          10.2157   78.3819   25.2767 C.3     1  UNL1        0.1535
     26 C           9.7172   78.9452   26.5836 C.2     1  UNL1        0.2443
     27 O           8.7454   79.7495   26.5869 O.2     1  UNL1       -0.2730
     28 N          10.3356   78.5432   27.8162 N.am    1  UNL1       -0.2825
     29 H          11.3012   78.1457   27.7712 H       1  UNL1        0.1549
     30 C           9.7287   78.6899   29.1112 C.ar    1  UNL1        0.0535
     31 C           8.6405   77.8771   29.4566 C.ar    1  UNL1        0.0353
     32 C           8.0256   78.0355   30.7008 C.ar    1  UNL1        0.1002
     33 N           8.4703   78.9854   31.5651 N.ar    1  UNL1       -0.2422
     34 C           9.5104   79.8022   31.2513 C.ar    1  UNL1        0.1002
     35 C          10.1546   79.6759   30.0180 C.ar    1  UNL1        0.0353
     36 C          11.1713   77.1999   25.5281 C.3     1  UNL1        0.0569
     37 C          12.3014   77.1781   24.5375 C.ar    1  UNL1       -0.0017
     38 C          12.4432   76.3041   23.4634 C.ar    1  UNL1        0.0681
     39 N          13.6332   76.4977   22.8507 N.ar    1  UNL1       -0.3523
     40 C          14.2474   77.4791   23.5341 C.ar    1  UNL1        0.0563
     41 C          15.5137   78.0106   23.2944 C.ar    1  UNL1        0.0170
     42 C          15.9757   79.0226   24.1558 C.ar    1  UNL1        0.0015
     43 C          15.1725   79.4724   25.2274 C.ar    1  UNL1        0.0001
     44 C          13.8996   78.9153   25.4470 C.ar    1  UNL1        0.0012
     45 C          13.4670   77.9178   24.5731 C.ar    1  UNL1        0.0131
     46 H          14.0041   75.9743   22.0268 H       1  UNL1        0.1660
@<TRIPOS>BOND
     1     1     2    2
     2     2     3   am
     3     3    25    1
     4    25    36    1
     5    36    37    1
     6    37    38   ar
     7    38    39   ar
     8    39    40   ar
     9    40    41   ar
    10    41    42   ar
    11    42    43   ar
    12    43    44   ar
    13    44    45   ar
    14    25    26    1
    15    26    27    2
    16    26    28   am
    17    28    30    1
    18    30    31   ar
    19    31    32   ar
    20    32    33   ar
    21    33    34   ar
    22    34    35   ar
    23     2     5    1
    24     5     6   ar
    25     6     7   ar
    26     7     8   ar
    27     8    12    1
    28    12    13    1
    29    13    14    1
    30    14    15    1
    31    15    18    1
    32    18    19   ar
    33    19    20   ar
    34    20    21   ar
    35    21    22   ar
    36    22    23    1
    37    22    24   ar
    38    15    16    1
    39    16    17    1
    40     8     9   ar
    41     9    10   ar
    42    10    11    1
    43    45    37   ar
    44    35    30   ar
    45    10     5   ar
    46    45    40   ar
    47    17    12    1
    48    24    18   ar
    49     3     4    1
    50    39    46    1
    51    28    29    1
@<TRIPOS>MOLECULE
*****
 46 51 0 0 0
SMALL
GASTEIGER

@<TRIPOS>ATOM
      1 O           6.2438   76.2896   22.3054 O.2     1  UNL1       -0.2701
      2 C           6.4401   75.4219   23.2000 C.2     1  UNL1        0.2483
      3 N           6.2221   74.0327   22.9052 N.am    1  UNL1       -0.2945
      4 H           6.1673   73.3534   23.6978 H       1  UNL1        0.1501
      5 C           6.8636   75.8559   24.5503 C.ar    1  UNL1        0.0808
      6 C           8.0632   75.3652   25.0919 C.ar    1  UNL1        0.0080
      7 C           8.4841   75.7630   26.3632 C.ar    1  UNL1        0.0148
      8 C           7.7103   76.6544   27.1223 C.ar    1  UNL1        0.0502
      9 C           6.4983   77.1259   26.5943 C.ar    1  UNL1        0.0443
     10 C           6.0746   76.7320   25.3210 C.ar    1  UNL1        0.1457
     11 F           4.8724   77.1711   24.8697 F       1  UNL1       -0.2040
     12 N           8.1377   77.0519   28.4394 N.pl3   1  UNL1       -0.3040
     13 C           9.5637   77.3176   28.6918 C.3     1  UNL1        0.1122
     14 C           9.7770   77.9693   30.0628 C.3     1  UNL1        0.1122
     15 N           8.7560   79.0031   30.2857 N.pl3   1  UNL1       -0.3040
     16 C           7.3331   78.6732   30.1001 C.3     1  UNL1        0.1122
     17 C           7.1568   77.2682   29.5127 C.3     1  UNL1        0.1122
     18 C           9.1357   80.3533   30.6142 C.ar    1  UNL1        0.0502
     19 C          10.0216   81.0655   29.7862 C.ar    1  UNL1        0.0147
     20 C          10.3786   82.3806   30.0990 C.ar    1  UNL1        0.0036
     21 C           9.8531   82.9975   31.2369 C.ar    1  UNL1        0.0297
     22 C           8.9667   82.3011   32.0628 C.ar    1  UNL1        0.1414
     23 F           8.4572   82.9009   33.1670 F       1  UNL1       -0.2041
     24 C           8.6062   80.9857   31.7530 C.ar    1  UNL1        0.0441
     25 C           6.0015   73.5568   21.5354 C.3     1  UNL1        0.1535
     26 C           4.9728   74.4198   20.8493 C.2     1  UNL1        0.2443
     27 O           3.8368   74.5750   21.3751 O.2     1  UNL1       -0.2730
     28 N           5.3018   75.0783   19.6158 N.am    1  UNL1       -0.2825
     29 H           6.0983   74.6975   19.0563 H       1  UNL1        0.1549
     30 C           4.5810   76.2014   19.0811 C.ar    1  UNL1        0.0535
     31 C           5.0224   77.5006   19.3665 C.ar    1  UNL1        0.0353
     32 C           4.3091   78.5972   18.8767 C.ar    1  UNL1        0.1002
     33 N           3.1826   78.4045   18.1413 N.ar    1  UNL1       -0.2422
     34 C           2.7181   77.1574   17.8645 C.ar    1  UNL1        0.1002
     35 C           3.4025   76.0334   18.3337 C.ar    1  UNL1        0.0353
     36 C           7.3238   73.5616   20.7449 C.3     1  UNL1        0.0569
     37 C           8.4873   73.1547   21.6050 C.ar    1  UNL1       -0.0017
     38 C           8.6725   71.9170   22.2145 C.ar    1  UNL1        0.0681
     39 N           9.7708   71.9384   23.0032 N.ar    1  UNL1       -0.3523
     40 C          10.2747   73.1809   22.9044 C.ar    1  UNL1        0.0563
     41 C          11.3943   73.6929   23.5587 C.ar    1  UNL1        0.0170
     42 C          11.7315   75.0393   23.3288 C.ar    1  UNL1        0.0015
     43 C          10.9488   75.8356   22.4632 C.ar    1  UNL1        0.0001
     44 C           9.8224   75.2927   21.8188 C.ar    1  UNL1        0.0012
     45 C           9.5166   73.9536   22.0623 C.ar    1  UNL1        0.0131
     46 H          10.1374   71.1529   23.5853 H       1  UNL1        0.1660
@<TRIPOS>BOND
     1     1     2    2
     2     2     3   am
     3     3    25    1
     4    25    36    1
     5    36    37    1
     6    37    38   ar
     7    38    39   ar
     8    39    40   ar
     9    40    41   ar
    10    41    42   ar
    11    42    43   ar
    12    43    44   ar
    13    44    45   ar
    14    25    26    1
    15    26    27    2
    16    26    28   am
    17    28    30    1
    18    30    31   ar
    19    31    32   ar
    20    32    33   ar
    21    33    34   ar
    22    34    35   ar
    23     2     5    1
    24     5     6   ar
    25     6     7   ar
    26     7     8   ar
    27     8    12    1
    28    12    13    1
    29    13    14    1
    30    14    15    1
    31    15    18    1
    32    18    19   ar
    33    19    20   ar
    34    20    21   ar
    35    21    22   ar
    36    22    23    1
    37    22    24   ar
    38    15    16    1
    39    16    17    1
    40     8     9   ar
    41     9    10   ar
    42    10    11    1
    43    45    37   ar
    44    35    30   ar
    45    10     5   ar
    46    45    40   ar
    47    17    12    1
    48    24    18   ar
    49     3     4    1
    50    39    46    1
    51    28    29    1
@<TRIPOS>MOLECULE
*****
 46 51 0 0 0
SMALL
GASTEIGER

@<TRIPOS>ATOM
      1 O           6.9030   74.0793   26.7048 O.2     1  UNL1       -0.2701
      2 C           7.0761   75.1294   26.0272 C.2     1  UNL1        0.2483
      3 N           8.0175   76.1185   26.4741 N.am    1  UNL1       -0.2945
      4 H           7.9913   77.0692   26.0404 H       1  UNL1        0.1501
      5 C           6.2808   75.3370   24.7962 C.ar    1  UNL1        0.0808
      6 C           6.6663   74.6989   23.6057 C.ar    1  UNL1        0.0080
      7 C           5.9295   74.8782   22.4325 C.ar    1  UNL1        0.0148
      8 C           4.7956   75.7052   22.4238 C.ar    1  UNL1        0.0502
      9 C           4.4233   76.3647   23.6054 C.ar    1  UNL1        0.0443
     10 C           5.1569   76.1860   24.7827 C.ar    1  UNL1        0.1457
     11 F           4.7925   76.8820   25.8893 F       1  UNL1       -0.2040
     12 N           4.0455   75.9015   21.2096 N.pl3   1  UNL1       -0.3040
     13 C           4.1785   74.9334   20.1083 C.3     1  UNL1        0.1122
     14 C           3.1206   75.1706   19.0244 C.3     1  UNL1        0.1122
     15 N           1.8189   75.4404   19.6516 N.pl3   1  UNL1       -0.3040
     16 C           1.7133   76.4747   20.6942 C.3     1  UNL1        0.1122
     17 C           3.0930   77.0144   21.0881 C.3     1  UNL1        0.1122
     18 C           0.6603   74.6560   19.3084 C.ar    1  UNL1        0.0502
     19 C          -0.5214   75.2831   18.8748 C.ar    1  UNL1        0.0147
     20 C          -1.6406   74.5197   18.5291 C.ar    1  UNL1        0.0036
     21 C          -1.5900   73.1260   18.6091 C.ar    1  UNL1        0.0297
     22 C          -0.4185   72.4925   19.0323 C.ar    1  UNL1        0.1414
     23 F          -0.3705   71.1396   19.1094 F       1  UNL1       -0.2041
     24 C           0.7037   73.2523   19.3781 C.ar    1  UNL1        0.0441
     25 C           8.9584   75.8541   27.5678 C.3     1  UNL1        0.1535
     26 C          10.3574   76.2256   27.1453 C.2     1  UNL1        0.2443
     27 O          11.3457   75.7274   27.7505 O.2     1  UNL1       -0.2730
     28 N          10.5549   77.1240   26.0420 N.am    1  UNL1       -0.2825
     29 H           9.7615   77.7491   25.7733 H       1  UNL1        0.1549
     30 C          11.7860   77.2477   25.3099 C.ar    1  UNL1        0.0535
     31 C          12.8139   78.0499   25.8240 C.ar    1  UNL1        0.0353
     32 C          14.0008   78.2002   25.1031 C.ar    1  UNL1        0.1002
     33 N          14.1508   77.5850   23.9006 N.ar    1  UNL1       -0.2422
     34 C          13.1648   76.8169   23.3663 C.ar    1  UNL1        0.1002
     35 C          11.9626   76.6389   24.0554 C.ar    1  UNL1        0.0353
     36 C           8.5500   76.6376   28.8299 C.3     1  UNL1        0.0569
     37 C           7.4060   75.9780   29.5478 C.ar    1  UNL1       -0.0017
     38 C           7.3822   74.6795   30.0487 C.ar    1  UNL1        0.0681
     39 N           6.1551   74.3825   30.5334 N.ar    1  UNL1       -0.3523
     40 C           5.4020   75.4782   30.3341 C.ar    1  UNL1        0.0563
     41 C           4.0534   75.6445   30.6463 C.ar    1  UNL1        0.0170
     42 C           3.4512   76.8747   30.3246 C.ar    1  UNL1        0.0015
     43 C           4.2006   77.8976   29.7018 C.ar    1  UNL1        0.0001
     44 C           5.5594   77.7003   29.3958 C.ar    1  UNL1        0.0012
     45 C           6.1298   76.4724   29.7317 C.ar    1  UNL1        0.0131
     46 H           5.8528   73.4771   30.9567 H       1  UNL1        0.1660
@<TRIPOS>BOND
     1     1     2    2
     2     2     3   am
     3     3    25    1
     4    25    36    1
     5    36    37    1
     6    37    38   ar
     7    38    39   ar
     8    39    40   ar
     9    40    41   ar
    10    41    42   ar
    11    42    43   ar
    12    43    44   ar
    13    44    45   ar
    14    25    26    1
    15    26    27    2
    16    26    28   am
    17    28    30    1
    18    30    31   ar
    19    31    32   ar
    20    32    33   ar
    21    33    34   ar
    22    34    35   ar
    23     2     5    1
    24     5     6   ar
    25     6     7   ar
    26     7     8   ar
    27     8    12    1
    28    12    13    1
    29    13    14    1
    30    14    15    1
    31    15    18    1
    32    18    19   ar
    33    19    20   ar
    34    20    21   ar
    35    21    22   ar
    36    22    23    1
    37    22    24   ar
    38    15    16    1
    39    16    17    1
    40     8     9   ar
    41     9    10   ar
    42    10    11    1
    43    45    37   ar
    44    35    30   ar
    45    10     5   ar
    46    45    40   ar
    47    17    12    1
    48    24    18   ar
    49     3     4    1
    50    39    46    1
    51    28    29    1
