@<TRIPOS>MOLECULE
*****
 37 42 0 0 0
SMALL
GASTEIGER

@<TRIPOS>ATOM
      1 C          48.1095   15.2095  -23.9882 C.ar    1  UNL1        0.1095
      2 N          46.9302   15.7999  -24.3071 N.ar    1  UNL1       -0.1677
      3 N          47.1844   16.9298  -24.9523 N.ar    1  UNL1       -0.2319
      4 C          46.1641   17.8773  -25.3803 C.3     1  UNL1        0.1554
      5 C          48.5134   17.0830  -25.0292 C.ar    1  UNL1        0.1654
      6 N          49.1772   18.1415  -25.5517 N.ar    1  UNL1       -0.2050
      7 C          50.5403   18.1231  -25.5276 C.ar    1  UNL1        0.2014
      8 N          51.2096   17.0450  -25.0152 N.ar    1  UNL1       -0.2089
      9 C          50.5517   15.9694  -24.4869 C.ar    1  UNL1        0.1379
     10 C          49.1492   16.0150  -24.4644 C.ar    1  UNL1        0.0865
     11 C          47.9567   12.6835  -23.5121 C.ar    1  UNL1        0.0810
     12 C          48.1812   14.0021  -23.1397 C.ar    1  UNL1        0.0577
     13 C          48.3852   13.9464  -21.7718 C.ar    1  UNL1        0.1231
     14 N          48.3146   12.6670  -21.3553 N.ar    1  UNL1       -0.1676
     15 N          48.0531   11.9112  -22.4097 N.ar    1  UNL1       -0.2487
     16 C          47.8826   10.4641  -22.3378 C.3     1  UNL1        0.1537
     17 C          46.1896   12.2364  -25.2829 C.ar    1  UNL1        0.0358
     18 C          45.8904   11.8653  -26.6065 C.ar    1  UNL1       -0.0014
     19 C          46.9001   11.4516  -27.4860 C.ar    1  UNL1       -0.0218
     20 C          46.5553   11.0096  -28.8776 C.3     1  UNL1        0.0310
     21 C          48.2231   11.3916  -27.0358 C.ar    1  UNL1       -0.0042
     22 C          48.5400   11.7756  -25.7333 C.ar    1  UNL1        0.0013
     23 C          47.5378   12.1917  -24.8433 C.ar    1  UNL1        0.0201
     24 C          44.0387   13.6441  -24.8531 C.3     1  UNL1        0.0773
     25 C          45.0680   12.6552  -24.4067 C.2     1  UNL1        0.1735
     26 O          44.9839   12.1808  -23.2418 O.2     1  UNL1       -0.2913
     27 N          51.2988   14.8118  -24.0965 N.pl3   1  UNL1       -0.2917
     28 C          51.5037   14.4588  -22.7053 C.3     1  UNL1        0.0937
     29 C          52.2098   13.1160  -22.7410 C.3     1  UNL1        0.0391
     30 C          51.7925   12.4736  -24.0733 C.3     1  UNL1        0.0790
     31 C          51.5038   13.6778  -24.9842 C.3     1  UNL1        0.1081
     32 N          52.8412   11.5765  -24.6363 N.3     1  UNL1       -0.2723
     33 C          53.1280   11.8353  -26.0699 C.3     1  UNL1        0.0721
     34 C          51.9952   11.3669  -26.9991 C.3     1  UNL1        0.0174
     35 C          51.6770    9.8893  -26.7676 C.3     1  UNL1        0.0029
     36 C          51.4113    9.6140  -25.2874 C.3     1  UNL1        0.0174
     37 C          52.5723   10.1323  -24.4243 C.3     1  UNL1        0.0721
@<TRIPOS>BOND
     1    24    25    1
     2    25    26    2
     3    25    17    1
     4    17    18   ar
     5    18    19   ar
     6    19    20    1
     7    19    21   ar
     8    21    22   ar
     9    22    23   ar
    10    23    11    1
    11    11    12   ar
    12    12     1    1
    13     1     2   ar
    14     2     3   ar
    15     3     4    1
    16     3     5   ar
    17     5     6   ar
    18     6     7   ar
    19     7     8   ar
    20     8     9   ar
    21     9    27    1
    22    27    28    1
    23    28    29    1
    24    29    30    1
    25    30    32    1
    26    32    33    1
    27    33    34    1
    28    34    35    1
    29    35    36    1
    30    36    37    1
    31    30    31    1
    32     9    10   ar
    33    12    13   ar
    34    13    14   ar
    35    14    15   ar
    36    15    16    1
    37    23    17   ar
    38    15    11   ar
    39    10     1   ar
    40    10     5   ar
    41    31    27    1
    42    37    32    1
@<TRIPOS>MOLECULE
*****
 37 42 0 0 0
SMALL
GASTEIGER

@<TRIPOS>ATOM
      1 C          48.6365   11.5767  -22.2351 C.ar    1  UNL1        0.1095
      2 N          48.7520   10.4674  -21.4622 N.ar    1  UNL1       -0.1677
      3 N          49.4965   10.7641  -20.4062 N.ar    1  UNL1       -0.2319
      4 C          49.9068    9.7994  -19.3948 C.3     1  UNL1        0.1554
      5 C          49.8801   12.0441  -20.5054 C.ar    1  UNL1        0.1654
      6 N          50.7058   12.7093  -19.6628 N.ar    1  UNL1       -0.2050
      7 C          50.9932   14.0133  -19.9382 C.ar    1  UNL1        0.2014
      8 N          50.4323   14.6324  -21.0220 N.ar    1  UNL1       -0.2089
      9 C          49.5957   13.9732  -21.8790 C.ar    1  UNL1        0.1379
     10 C          49.3442   12.6165  -21.6231 C.ar    1  UNL1        0.0865
     11 C          48.5944   11.5105  -24.8089 C.ar    1  UNL1        0.0810
     12 C          47.9861   11.5477  -23.5614 C.ar    1  UNL1        0.0577
     13 C          46.6342   11.6575  -23.8376 C.ar    1  UNL1        0.1231
     14 N          46.4433   11.6576  -25.1713 N.ar    1  UNL1       -0.1676
     15 N          47.6300   11.5715  -25.7508 N.ar    1  UNL1       -0.2487
     16 C          47.8186   11.5676  -27.1974 C.3     1  UNL1        0.1537
     17 C          50.8339   10.3706  -25.1880 C.ar    1  UNL1        0.0358
     18 C          52.1790   10.4798  -25.5851 C.ar    1  UNL1       -0.0014
     19 C          52.7448   11.7270  -25.8827 C.ar    1  UNL1       -0.0218
     20 C          54.1949   11.8296  -26.2536 C.3     1  UNL1        0.0310
     21 C          51.9642   12.8821  -25.7675 C.ar    1  UNL1       -0.0042
     22 C          50.6237   12.7897  -25.3952 C.ar    1  UNL1        0.0013
     23 C          50.0457   11.5466  -25.0949 C.ar    1  UNL1        0.0201
     24 C          50.2623    8.4817  -23.4856 C.3     1  UNL1        0.0773
     25 C          50.3062    9.0184  -24.8808 C.2     1  UNL1        0.1735
     26 O          49.8974    8.2864  -25.8222 O.2     1  UNL1       -0.2913
     27 N          48.9277   14.7071  -22.9114 N.pl3   1  UNL1       -0.2917
     28 C          47.6455   15.3487  -22.6959 C.3     1  UNL1        0.0937
     29 C          47.3719   16.1182  -23.9750 C.3     1  UNL1        0.0391
     30 C          48.7559   16.4161  -24.5731 C.3     1  UNL1        0.0790
     31 C          49.6325   15.2642  -24.0555 C.3     1  UNL1        0.1081
     32 N          48.7388   16.4897  -26.0616 N.3     1  UNL1       -0.2723
     33 C          50.0955   16.5087  -26.6646 C.3     1  UNL1        0.0721
     34 C          50.8285   17.8427  -26.4426 C.3     1  UNL1        0.0174
     35 C          49.9911   19.0156  -26.9538 C.3     1  UNL1        0.0029
     36 C          48.5834   18.9813  -26.3582 C.3     1  UNL1        0.0174
     37 C          47.9285   17.6118  -26.5976 C.3     1  UNL1        0.0721
@<TRIPOS>BOND
     1    24    25    1
     2    25    26    2
     3    25    17    1
     4    17    18   ar
     5    18    19   ar
     6    19    20    1
     7    19    21   ar
     8    21    22   ar
     9    22    23   ar
    10    23    11    1
    11    11    12   ar
    12    12     1    1
    13     1     2   ar
    14     2     3   ar
    15     3     4    1
    16     3     5   ar
    17     5     6   ar
    18     6     7   ar
    19     7     8   ar
    20     8     9   ar
    21     9    27    1
    22    27    28    1
    23    28    29    1
    24    29    30    1
    25    30    32    1
    26    32    33    1
    27    33    34    1
    28    34    35    1
    29    35    36    1
    30    36    37    1
    31    30    31    1
    32     9    10   ar
    33    12    13   ar
    34    13    14   ar
    35    14    15   ar
    36    15    16    1
    37    23    17   ar
    38    15    11   ar
    39    10     1   ar
    40    10     5   ar
    41    31    27    1
    42    37    32    1
@<TRIPOS>MOLECULE
*****
 37 42 0 0 0
SMALL
GASTEIGER

@<TRIPOS>ATOM
      1 C          48.4522   12.4345  -25.1831 C.ar    1  UNL1        0.1095
      2 N          47.7507   12.2909  -26.3356 N.ar    1  UNL1       -0.1677
      3 N          47.3284   13.4858  -26.7246 N.ar    1  UNL1       -0.2319
      4 C          46.4706   13.7168  -27.8791 C.3     1  UNL1        0.1554
      5 C          47.7301   14.3908  -25.8218 C.ar    1  UNL1        0.1654
      6 N          47.4431   15.7144  -25.8197 N.ar    1  UNL1       -0.2050
      7 C          47.9335   16.4784  -24.8024 C.ar    1  UNL1        0.2014
      8 N          48.7193   15.9184  -23.8321 N.ar    1  UNL1       -0.2089
      9 C          49.0184   14.5845  -23.8239 C.ar    1  UNL1        0.1379
     10 C          48.4681   13.7910  -24.8423 C.ar    1  UNL1        0.0865
     11 C          49.9174   10.3570  -24.7735 C.ar    1  UNL1        0.0810
     12 C          48.9411   11.2746  -24.4094 C.ar    1  UNL1        0.0577
     13 C          48.4520   10.8012  -23.2042 C.ar    1  UNL1        0.1231
     14 N          49.1160    9.6822  -22.8545 N.ar    1  UNL1       -0.1676
     15 N          49.9963    9.4187  -23.8068 N.ar    1  UNL1       -0.2487
     16 C          50.8845    8.2617  -23.7812 C.3     1  UNL1        0.1537
     17 C          51.7911   11.1136  -26.3145 C.ar    1  UNL1        0.0358
     18 C          52.5134   10.9153  -27.5053 C.ar    1  UNL1       -0.0014
     19 C          52.1254    9.9367  -28.4305 C.ar    1  UNL1       -0.0218
     20 C          52.8767    9.7752  -29.7191 C.3     1  UNL1        0.0310
     21 C          50.9932    9.1565  -28.1731 C.ar    1  UNL1       -0.0042
     22 C          50.2780    9.3259  -26.9882 C.ar    1  UNL1        0.0013
     23 C          50.6568   10.3023  -26.0539 C.ar    1  UNL1        0.0201
     24 C          53.3173   11.9235  -24.3632 C.3     1  UNL1        0.0773
     25 C          52.2560   12.1739  -25.3866 C.2     1  UNL1        0.1735
     26 O          51.7316   13.3188  -25.4447 O.2     1  UNL1       -0.2913
     27 N          49.9585   14.0816  -22.8679 N.pl3   1  UNL1       -0.2917
     28 C          51.2303   14.7322  -22.6205 C.3     1  UNL1        0.0937
     29 C          51.8412   13.9710  -21.4585 C.3     1  UNL1        0.0391
     30 C          50.6493   13.3774  -20.6911 C.3     1  UNL1        0.0790
     31 C          49.5671   13.2110  -21.7702 C.3     1  UNL1        0.1081
     32 N          50.9791   12.0897  -20.0169 N.3     1  UNL1       -0.2723
     33 C          49.7796   11.3039  -19.6321 C.3     1  UNL1        0.0721
     34 C          49.0179   11.9198  -18.4461 C.3     1  UNL1        0.0174
     35 C          49.9454   12.1165  -17.2464 C.3     1  UNL1        0.0029
     36 C          51.1964   12.8991  -17.6467 C.3     1  UNL1        0.0174
     37 C          51.8853   12.2380  -18.8508 C.3     1  UNL1        0.0721
@<TRIPOS>BOND
     1    24    25    1
     2    25    26    2
     3    25    17    1
     4    17    18   ar
     5    18    19   ar
     6    19    20    1
     7    19    21   ar
     8    21    22   ar
     9    22    23   ar
    10    23    11    1
    11    11    12   ar
    12    12     1    1
    13     1     2   ar
    14     2     3   ar
    15     3     4    1
    16     3     5   ar
    17     5     6   ar
    18     6     7   ar
    19     7     8   ar
    20     8     9   ar
    21     9    27    1
    22    27    28    1
    23    28    29    1
    24    29    30    1
    25    30    32    1
    26    32    33    1
    27    33    34    1
    28    34    35    1
    29    35    36    1
    30    36    37    1
    31    30    31    1
    32     9    10   ar
    33    12    13   ar
    34    13    14   ar
    35    14    15   ar
    36    15    16    1
    37    23    17   ar
    38    15    11   ar
    39    10     1   ar
    40    10     5   ar
    41    31    27    1
    42    37    32    1
@<TRIPOS>MOLECULE
*****
 37 42 0 0 0
SMALL
GASTEIGER

@<TRIPOS>ATOM
      1 C          46.7227   12.2661  -27.1933 C.ar    1  UNL1        0.1095
      2 N          47.0649   10.9610  -27.3369 N.ar    1  UNL1       -0.1677
      3 N          46.9902   10.6438  -28.6219 N.ar    1  UNL1       -0.2319
      4 C          47.2064    9.3034  -29.1498 C.3     1  UNL1        0.1554
      5 C          46.5803   11.7238  -29.3010 C.ar    1  UNL1        0.1654
      6 N          46.3138   11.7931  -30.6270 N.ar    1  UNL1       -0.2050
      7 C          45.8909   12.9844  -31.1378 C.ar    1  UNL1        0.2014
      8 N          45.7722   14.0819  -30.3292 N.ar    1  UNL1       -0.2089
      9 C          46.0402   14.0260  -28.9897 C.ar    1  UNL1        0.1379
     10 C          46.4236   12.7856  -28.4571 C.ar    1  UNL1        0.0865
     11 C          47.5551   13.1664  -24.9290 C.ar    1  UNL1        0.0810
     12 C          46.5671   12.8977  -25.8667 C.ar    1  UNL1        0.0577
     13 C          45.3866   13.2576  -25.2400 C.ar    1  UNL1        0.1231
     14 N          45.6554   13.7393  -24.0107 N.ar    1  UNL1       -0.1676
     15 N          46.9648   13.6787  -23.8289 N.ar    1  UNL1       -0.2487
     16 C          47.6244   14.0964  -22.5964 C.3     1  UNL1        0.1537
     17 C          49.5322   11.6328  -24.4848 C.ar    1  UNL1        0.0358
     18 C          50.8833   11.3238  -24.7254 C.ar    1  UNL1       -0.0014
     19 C          51.6955   12.1785  -25.4832 C.ar    1  UNL1       -0.0218
     20 C          53.1473   11.8587  -25.6851 C.3     1  UNL1        0.0310
     21 C          51.1581   13.3646  -25.9943 C.ar    1  UNL1       -0.0042
     22 C          49.8156   13.6760  -25.7826 C.ar    1  UNL1        0.0013
     23 C          48.9923   12.8281  -25.0257 C.ar    1  UNL1        0.0201
     24 C          49.3753    9.5879  -22.8766 C.3     1  UNL1        0.0773
     25 C          48.7362   10.6850  -23.6668 C.2     1  UNL1        0.1735
     26 O          47.4801   10.7904  -23.6468 O.2     1  UNL1       -0.2913
     27 N          46.0366   15.2347  -28.2220 N.pl3   1  UNL1       -0.2917
     28 C          44.8357   15.7426  -27.5880 C.3     1  UNL1        0.0937
     29 C          45.2964   16.9392  -26.7763 C.3     1  UNL1        0.0391
     30 C          46.7755   16.6687  -26.4585 C.3     1  UNL1        0.0790
     31 C          47.2441   15.7863  -27.6269 C.3     1  UNL1        0.1081
     32 N          47.5784   17.9182  -26.3354 N.3     1  UNL1       -0.2723
     33 C          48.7641   17.9453  -27.2287 C.3     1  UNL1        0.0721
     34 C          49.8781   16.9885  -26.7709 C.3     1  UNL1        0.0174
     35 C          50.2821   17.2757  -25.3244 C.3     1  UNL1        0.0029
     36 C          49.0591   17.2789  -24.4069 C.3     1  UNL1        0.0174
     37 C          47.9834   18.2364  -24.9433 C.3     1  UNL1        0.0721
@<TRIPOS>BOND
     1    24    25    1
     2    25    26    2
     3    25    17    1
     4    17    18   ar
     5    18    19   ar
     6    19    20    1
     7    19    21   ar
     8    21    22   ar
     9    22    23   ar
    10    23    11    1
    11    11    12   ar
    12    12     1    1
    13     1     2   ar
    14     2     3   ar
    15     3     4    1
    16     3     5   ar
    17     5     6   ar
    18     6     7   ar
    19     7     8   ar
    20     8     9   ar
    21     9    27    1
    22    27    28    1
    23    28    29    1
    24    29    30    1
    25    30    32    1
    26    32    33    1
    27    33    34    1
    28    34    35    1
    29    35    36    1
    30    36    37    1
    31    30    31    1
    32     9    10   ar
    33    12    13   ar
    34    13    14   ar
    35    14    15   ar
    36    15    16    1
    37    23    17   ar
    38    15    11   ar
    39    10     1   ar
    40    10     5   ar
    41    31    27    1
    42    37    32    1
@<TRIPOS>MOLECULE
*****
 37 42 0 0 0
SMALL
GASTEIGER

@<TRIPOS>ATOM
      1 C          48.2779   12.6335  -20.6345 C.ar    1  UNL1        0.1095
      2 N          48.2205   11.8877  -19.5023 N.ar    1  UNL1       -0.1677
      3 N          49.3343   12.0836  -18.8106 N.ar    1  UNL1       -0.2319
      4 C          49.6667   11.3852  -17.5763 C.3     1  UNL1        0.1554
      5 C          50.1161   12.9273  -19.4980 C.ar    1  UNL1        0.1654
      6 N          51.3666   13.3260  -19.1641 N.ar    1  UNL1       -0.2050
      7 C          52.0146   14.1843  -20.0022 C.ar    1  UNL1        0.2014
      8 N          51.3967   14.6486  -21.1315 N.ar    1  UNL1       -0.2089
      9 C          50.1341   14.2559  -21.4788 C.ar    1  UNL1        0.1379
     10 C          49.4904   13.3310  -20.6423 C.ar    1  UNL1        0.0865
     11 C          47.3911   11.9884  -22.9642 C.ar    1  UNL1        0.0810
     12 C          47.2541   12.5345  -21.6951 C.ar    1  UNL1        0.0577
     13 C          45.9740   13.0608  -21.6800 C.ar    1  UNL1        0.1231
     14 N          45.3713   12.8190  -22.8605 N.ar    1  UNL1       -0.1676
     15 N          46.2327   12.1745  -23.6311 N.ar    1  UNL1       -0.2487
     16 C          45.9355   11.7647  -24.9993 C.3     1  UNL1        0.1537
     17 C          49.2048   10.2146  -23.1139 C.ar    1  UNL1        0.0358
     18 C          50.3010    9.6819  -23.8164 C.ar    1  UNL1       -0.0014
     19 C          50.8202   10.3315  -24.9445 C.ar    1  UNL1       -0.0218
     20 C          52.0223    9.7760  -25.6496 C.3     1  UNL1        0.0310
     21 C          50.2496   11.5363  -25.3685 C.ar    1  UNL1       -0.0042
     22 C          49.1497   12.0675  -24.6961 C.ar    1  UNL1        0.0013
     23 C          48.6207   11.4262  -23.5653 C.ar    1  UNL1        0.0201
     24 C          49.6044    9.1612  -20.7637 C.3     1  UNL1        0.0773
     25 C          48.7150    9.4762  -21.9240 C.2     1  UNL1        0.1735
     26 O          47.5177    9.0830  -21.8908 O.2     1  UNL1       -0.2913
     27 N          49.4854   14.8815  -22.5915 N.pl3   1  UNL1       -0.2917
     28 C          48.2345   15.6010  -22.4507 C.3     1  UNL1        0.0937
     29 C          47.9782   16.2134  -23.8154 C.3     1  UNL1        0.0391
     30 C          49.3661   16.3719  -24.4560 C.3     1  UNL1        0.0790
     31 C          50.1991   15.2576  -23.8020 C.3     1  UNL1        0.1081
     32 N          49.3338   16.2568  -25.9416 N.3     1  UNL1       -0.2723
     33 C          50.6274   16.5979  -26.5857 C.3     1  UNL1        0.0721
     34 C          50.9356   18.1043  -26.5444 C.3     1  UNL1        0.0174
     35 C          49.7928   18.9110  -27.1619 C.3     1  UNL1        0.0029
     36 C          48.4550   18.5396  -26.5218 C.3     1  UNL1        0.0174
     37 C          48.2319   17.0202  -26.5787 C.3     1  UNL1        0.0721
@<TRIPOS>BOND
     1    24    25    1
     2    25    26    2
     3    25    17    1
     4    17    18   ar
     5    18    19   ar
     6    19    20    1
     7    19    21   ar
     8    21    22   ar
     9    22    23   ar
    10    23    11    1
    11    11    12   ar
    12    12     1    1
    13     1     2   ar
    14     2     3   ar
    15     3     4    1
    16     3     5   ar
    17     5     6   ar
    18     6     7   ar
    19     7     8   ar
    20     8     9   ar
    21     9    27    1
    22    27    28    1
    23    28    29    1
    24    29    30    1
    25    30    32    1
    26    32    33    1
    27    33    34    1
    28    34    35    1
    29    35    36    1
    30    36    37    1
    31    30    31    1
    32     9    10   ar
    33    12    13   ar
    34    13    14   ar
    35    14    15   ar
    36    15    16    1
    37    23    17   ar
    38    15    11   ar
    39    10     1   ar
    40    10     5   ar
    41    31    27    1
    42    37    32    1
@<TRIPOS>MOLECULE
*****
 37 42 0 0 0
SMALL
GASTEIGER

@<TRIPOS>ATOM
      1 C          50.7187   12.6848  -24.7383 C.ar    1  UNL1        0.1095
      2 N          51.4347   12.8893  -25.8726 N.ar    1  UNL1       -0.1677
      3 N          51.9183   11.7250  -26.2824 N.ar    1  UNL1       -0.2319
      4 C          52.8075   11.5625  -27.4247 C.3     1  UNL1        0.1554
      5 C          51.5412   10.7800  -25.4105 C.ar    1  UNL1        0.1654
      6 N          51.8881    9.4711  -25.4352 N.ar    1  UNL1       -0.2050
      7 C          51.4138    8.6600  -24.4471 C.ar    1  UNL1        0.2014
      8 N          50.5851    9.1590  -23.4793 N.ar    1  UNL1       -0.2089
      9 C          50.2254   10.4775  -23.4442 C.ar    1  UNL1        0.1379
     10 C          50.7582   11.3207  -24.4314 C.ar    1  UNL1        0.0865
     11 C          49.0237   14.5499  -24.2102 C.ar    1  UNL1        0.0810
     12 C          50.1629   13.8014  -23.9463 C.ar    1  UNL1        0.0577
     13 C          50.7219   14.4015  -22.8312 C.ar    1  UNL1        0.1231
     14 N          49.9477   15.4306  -22.4351 N.ar    1  UNL1       -0.1676
     15 N          48.9270   15.5161  -23.2730 N.ar    1  UNL1       -0.2487
     16 C          47.8870   16.5340  -23.1701 C.3     1  UNL1        0.1537
     17 C          48.3013   15.2187  -26.5531 C.ar    1  UNL1        0.0358
     18 C          47.4900   14.9615  -27.6732 C.ar    1  UNL1       -0.0014
     19 C          46.5216   13.9487  -27.6459 C.ar    1  UNL1       -0.0218
     20 C          45.6302   13.7237  -28.8315 C.3     1  UNL1        0.0310
     21 C          46.3486   13.1931  -26.4814 C.ar    1  UNL1       -0.0042
     22 C          47.1581   13.4211  -25.3693 C.ar    1  UNL1        0.0013
     23 C          48.1314   14.4322  -25.3846 C.ar    1  UNL1        0.0201
     24 C          48.8948   17.7474  -26.7672 C.3     1  UNL1        0.0773
     25 C          49.2990   16.3122  -26.6524 C.2     1  UNL1        0.1735
     26 O          50.5274   16.0288  -26.6591 O.2     1  UNL1       -0.2913
     27 N          49.2454   10.9129  -22.4953 N.pl3   1  UNL1       -0.2917
     28 C          47.8615   10.4862  -22.5643 C.3     1  UNL1        0.0937
     29 C          47.2131   11.0531  -21.3148 C.3     1  UNL1        0.0391
     30 C          48.3545   11.1989  -20.2961 C.3     1  UNL1        0.0790
     31 C          49.6016   11.4012  -21.1720 C.3     1  UNL1        0.1081
     32 N          48.1410   12.3273  -19.3461 N.3     1  UNL1       -0.2723
     33 C          49.2001   13.3653  -19.4191 C.3     1  UNL1        0.0721
     34 C          50.5371   12.8969  -18.8198 C.3     1  UNL1        0.0174
     35 C          50.3493   12.4137  -17.3813 C.3     1  UNL1        0.0029
     36 C          49.2381   11.3668  -17.2982 C.3     1  UNL1        0.0174
     37 C          47.9462   11.8980  -17.9387 C.3     1  UNL1        0.0721
@<TRIPOS>BOND
     1    24    25    1
     2    25    26    2
     3    25    17    1
     4    17    18   ar
     5    18    19   ar
     6    19    20    1
     7    19    21   ar
     8    21    22   ar
     9    22    23   ar
    10    23    11    1
    11    11    12   ar
    12    12     1    1
    13     1     2   ar
    14     2     3   ar
    15     3     4    1
    16     3     5   ar
    17     5     6   ar
    18     6     7   ar
    19     7     8   ar
    20     8     9   ar
    21     9    27    1
    22    27    28    1
    23    28    29    1
    24    29    30    1
    25    30    32    1
    26    32    33    1
    27    33    34    1
    28    34    35    1
    29    35    36    1
    30    36    37    1
    31    30    31    1
    32     9    10   ar
    33    12    13   ar
    34    13    14   ar
    35    14    15   ar
    36    15    16    1
    37    23    17   ar
    38    15    11   ar
    39    10     1   ar
    40    10     5   ar
    41    31    27    1
    42    37    32    1
@<TRIPOS>MOLECULE
*****
 37 42 0 0 0
SMALL
GASTEIGER

@<TRIPOS>ATOM
      1 C          50.5350   11.8031  -24.1909 C.ar    1  UNL1        0.1095
      2 N          50.9633   11.8190  -25.4784 N.ar    1  UNL1       -0.1677
      3 N          51.0419   10.5689  -25.9128 N.ar    1  UNL1       -0.2319
      4 C          51.5455   10.1869  -27.2252 C.3     1  UNL1        0.1554
      5 C          50.6926    9.7504  -24.9111 C.ar    1  UNL1        0.1654
      6 N          50.7082    8.3963  -24.9294 N.ar    1  UNL1       -0.2050
      7 C          50.3286    7.7321  -23.8008 C.ar    1  UNL1        0.2014
      8 N          49.9150    8.4247  -22.6954 N.ar    1  UNL1       -0.2089
      9 C          49.8922    9.7913  -22.6646 C.ar    1  UNL1        0.1379
     10 C          50.3345   10.4724  -23.8091 C.ar    1  UNL1        0.0865
     11 C          49.3611   13.7973  -23.0617 C.ar    1  UNL1        0.0810
     12 C          50.4756   13.0273  -23.3660 C.ar    1  UNL1        0.0577
     13 C          51.5379   13.7197  -22.8108 C.ar    1  UNL1        0.1231
     14 N          51.0822   14.8238  -22.1875 N.ar    1  UNL1       -0.1676
     15 N          49.7690   14.8657  -22.3452 N.ar    1  UNL1       -0.2487
     16 C          48.9313   15.9392  -21.8214 C.3     1  UNL1        0.1537
     17 C          47.5100   14.1358  -24.7696 C.ar    1  UNL1        0.0358
     18 C          46.2214   13.7949  -25.2195 C.ar    1  UNL1       -0.0014
     19 C          45.4005   12.9367  -24.4754 C.ar    1  UNL1       -0.0218
     20 C          44.0098   12.6263  -24.9449 C.3     1  UNL1        0.0310
     21 C          45.8637   12.4244  -23.2589 C.ar    1  UNL1       -0.0042
     22 C          47.1460   12.7356  -22.8084 C.ar    1  UNL1        0.0013
     23 C          47.9774   13.5936  -23.5447 C.ar    1  UNL1        0.0201
     24 C          47.9843   16.5080  -25.7392 C.3     1  UNL1        0.0773
     25 C          48.3186   15.0565  -25.6060 C.2     1  UNL1        0.1735
     26 O          49.3090   14.6044  -26.2416 O.2     1  UNL1       -0.2913
     27 N          49.3171   10.4586  -21.5356 N.pl3   1  UNL1       -0.2917
     28 C          48.0514   10.0486  -20.9594 C.3     1  UNL1        0.0937
     29 C          47.8857   10.9114  -19.7220 C.3     1  UNL1        0.0391
     30 C          49.3137   11.2830  -19.2924 C.3     1  UNL1        0.0790
     31 C          50.1107   11.2480  -20.6066 C.3     1  UNL1        0.1081
     32 N          49.3882   12.6113  -18.6205 N.3     1  UNL1       -0.2723
     33 C          50.7393   13.2242  -18.6785 C.3     1  UNL1        0.0721
     34 C          51.7541   12.5194  -17.7621 C.3     1  UNL1        0.0174
     35 C          51.2431   12.4680  -16.3219 C.3     1  UNL1        0.0029
     36 C          49.8392   11.8654  -16.2624 C.3     1  UNL1        0.0174
     37 C          48.8927   12.6045  -17.2214 C.3     1  UNL1        0.0721
@<TRIPOS>BOND
     1    24    25    1
     2    25    26    2
     3    25    17    1
     4    17    18   ar
     5    18    19   ar
     6    19    20    1
     7    19    21   ar
     8    21    22   ar
     9    22    23   ar
    10    23    11    1
    11    11    12   ar
    12    12     1    1
    13     1     2   ar
    14     2     3   ar
    15     3     4    1
    16     3     5   ar
    17     5     6   ar
    18     6     7   ar
    19     7     8   ar
    20     8     9   ar
    21     9    27    1
    22    27    28    1
    23    28    29    1
    24    29    30    1
    25    30    32    1
    26    32    33    1
    27    33    34    1
    28    34    35    1
    29    35    36    1
    30    36    37    1
    31    30    31    1
    32     9    10   ar
    33    12    13   ar
    34    13    14   ar
    35    14    15   ar
    36    15    16    1
    37    23    17   ar
    38    15    11   ar
    39    10     1   ar
    40    10     5   ar
    41    31    27    1
    42    37    32    1
@<TRIPOS>MOLECULE
*****
 37 42 0 0 0
SMALL
GASTEIGER

@<TRIPOS>ATOM
      1 C          49.3420   10.9070  -25.9412 C.ar    1  UNL1        0.1095
      2 N          49.3198    9.9655  -26.9181 N.ar    1  UNL1       -0.1677
      3 N          50.5242    9.8993  -27.4683 N.ar    1  UNL1       -0.2319
      4 C          50.8597    9.0576  -28.6088 C.3     1  UNL1        0.1554
      5 C          51.3118   10.8048  -26.8721 C.ar    1  UNL1        0.1654
      6 N          52.5946   11.0976  -27.1925 N.ar    1  UNL1       -0.2050
      7 C          53.2328   12.0661  -26.4758 C.ar    1  UNL1        0.2014
      8 N          52.5950   12.6970  -25.4424 N.ar    1  UNL1       -0.2089
      9 C          51.3012   12.4092  -25.1073 C.ar    1  UNL1        0.1379
     10 C          50.6297   11.4502  -25.8811 C.ar    1  UNL1        0.0865
     11 C          46.9184   11.7602  -25.7718 C.ar    1  UNL1        0.0810
     12 C          48.1198   11.3282  -25.2261 C.ar    1  UNL1        0.0577
     13 C          47.9545   11.4791  -23.8601 C.ar    1  UNL1        0.1231
     14 N          46.7175   11.9470  -23.6028 N.ar    1  UNL1       -0.1676
     15 N          46.0993   12.1169  -24.7605 N.ar    1  UNL1       -0.2487
     16 C          44.7406   12.6354  -24.8765 C.3     1  UNL1        0.1537
     17 C          46.5638   13.2305  -27.8140 C.ar    1  UNL1        0.0358
     18 C          46.3838   13.3196  -29.2064 C.ar    1  UNL1       -0.0014
     19 C          46.2439   12.1671  -29.9915 C.ar    1  UNL1       -0.0218
     20 C          46.0003   12.2833  -31.4673 C.3     1  UNL1        0.0310
     21 C          46.2676   10.9098  -29.3787 C.ar    1  UNL1       -0.0042
     22 C          46.4658   10.8027  -28.0027 C.ar    1  UNL1        0.0013
     23 C          46.6073   11.9494  -27.2060 C.ar    1  UNL1        0.0201
     24 C          45.6433   15.5552  -27.0784 C.3     1  UNL1        0.0773
     25 C          46.6960   14.4934  -27.0468 C.2     1  UNL1        0.1735
     26 O          47.7336   14.6925  -26.3591 O.2     1  UNL1       -0.2913
     27 N          50.7335   12.9962  -23.9310 N.pl3   1  UNL1       -0.2917
     28 C          49.7987   14.1027  -23.9950 C.3     1  UNL1        0.0937
     29 C          49.3455   14.3170  -22.5626 C.3     1  UNL1        0.0391
     30 C          49.5159   12.9531  -21.8750 C.3     1  UNL1        0.0790
     31 C          50.6551   12.2868  -22.6634 C.3     1  UNL1        0.1081
     32 N          49.8273   13.0728  -20.4224 N.3     1  UNL1       -0.2723
     33 C          50.4434   11.8488  -19.8507 C.3     1  UNL1        0.0721
     34 C          49.4440   10.6881  -19.7093 C.3     1  UNL1        0.0174
     35 C          48.2256   11.1155  -18.8902 C.3     1  UNL1        0.0029
     36 C          47.6072   12.3931  -19.4584 C.3     1  UNL1        0.0174
     37 C          48.6705   13.4944  -19.5935 C.3     1  UNL1        0.0721
@<TRIPOS>BOND
     1    24    25    1
     2    25    26    2
     3    25    17    1
     4    17    18   ar
     5    18    19   ar
     6    19    20    1
     7    19    21   ar
     8    21    22   ar
     9    22    23   ar
    10    23    11    1
    11    11    12   ar
    12    12     1    1
    13     1     2   ar
    14     2     3   ar
    15     3     4    1
    16     3     5   ar
    17     5     6   ar
    18     6     7   ar
    19     7     8   ar
    20     8     9   ar
    21     9    27    1
    22    27    28    1
    23    28    29    1
    24    29    30    1
    25    30    32    1
    26    32    33    1
    27    33    34    1
    28    34    35    1
    29    35    36    1
    30    36    37    1
    31    30    31    1
    32     9    10   ar
    33    12    13   ar
    34    13    14   ar
    35    14    15   ar
    36    15    16    1
    37    23    17   ar
    38    15    11   ar
    39    10     1   ar
    40    10     5   ar
    41    31    27    1
    42    37    32    1
@<TRIPOS>MOLECULE
*****
 37 42 0 0 0
SMALL
GASTEIGER

@<TRIPOS>ATOM
      1 C          46.9093   11.7173  -26.4495 C.ar    1  UNL1        0.1095
      2 N          46.3581   11.4439  -27.6589 N.ar    1  UNL1       -0.1677
      3 N          47.2314   10.7480  -28.3734 N.ar    1  UNL1       -0.2319
      4 C          47.0228   10.3450  -29.7576 C.3     1  UNL1        0.1554
      5 C          48.3456   10.5932  -27.6454 C.ar    1  UNL1        0.1654
      6 N          49.4962    9.9997  -28.0429 N.ar    1  UNL1       -0.2050
      7 C          50.5339    9.9496  -27.1598 C.ar    1  UNL1        0.2014
      8 N          50.3950   10.4605  -25.8979 N.ar    1  UNL1       -0.2089
      9 C          49.2385   11.0600  -25.4834 C.ar    1  UNL1        0.1379
     10 C          48.1908   11.1579  -26.4120 C.ar    1  UNL1        0.0865
     11 C          46.5688   13.9152  -25.1518 C.ar    1  UNL1        0.0810
     12 C          46.2501   12.6008  -25.4657 C.ar    1  UNL1        0.0577
     13 C          45.2430   12.2661  -24.5771 C.ar    1  UNL1        0.1231
     14 N          44.9571   13.3266  -23.7967 N.ar    1  UNL1       -0.1676
     15 N          45.7624   14.3166  -24.1470 N.ar    1  UNL1       -0.2487
     16 C          45.7562   15.6239  -23.4995 C.3     1  UNL1        0.1537
     17 C          47.5856   15.4293  -26.9215 C.ar    1  UNL1        0.0358
     18 C          48.6456   16.2677  -27.3120 C.ar    1  UNL1       -0.0014
     19 C          49.7908   16.4022  -26.5153 C.ar    1  UNL1       -0.0218
     20 C          50.9333   17.2599  -26.9735 C.3     1  UNL1        0.0310
     21 C          49.8877   15.6792  -25.3217 C.ar    1  UNL1       -0.0042
     22 C          48.8375   14.8598  -24.9096 C.ar    1  UNL1        0.0013
     23 C          47.6856   14.7171  -25.6985 C.ar    1  UNL1        0.0201
     24 C          45.2811   16.3105  -27.7614 C.3     1  UNL1        0.0773
     25 C          46.4090   15.3302  -27.8198 C.2     1  UNL1        0.1735
     26 O          46.3425   14.3822  -28.6481 O.2     1  UNL1       -0.2913
     27 N          49.1011   11.4476  -24.1118 N.pl3   1  UNL1       -0.2917
     28 C          48.4154   10.6179  -23.1405 C.3     1  UNL1        0.0937
     29 C          48.6205   11.3194  -21.8105 C.3     1  UNL1        0.0391
     30 C          49.9229   12.1194  -21.9705 C.3     1  UNL1        0.0790
     31 C          49.9897   12.4098  -23.4787 C.3     1  UNL1        0.1081
     32 N          49.9403   13.3654  -21.1529 N.3     1  UNL1       -0.2723
     33 C          50.9810   14.3343  -21.5805 C.3     1  UNL1        0.0721
     34 C          52.4049   13.8797  -21.2174 C.3     1  UNL1        0.0174
     35 C          52.5180   13.5873  -19.7207 C.3     1  UNL1        0.0029
     36 C          51.4285   12.6134  -19.2713 C.3     1  UNL1        0.0174
     37 C          50.0411   13.1230  -19.6920 C.3     1  UNL1        0.0721
@<TRIPOS>BOND
     1    24    25    1
     2    25    26    2
     3    25    17    1
     4    17    18   ar
     5    18    19   ar
     6    19    20    1
     7    19    21   ar
     8    21    22   ar
     9    22    23   ar
    10    23    11    1
    11    11    12   ar
    12    12     1    1
    13     1     2   ar
    14     2     3   ar
    15     3     4    1
    16     3     5   ar
    17     5     6   ar
    18     6     7   ar
    19     7     8   ar
    20     8     9   ar
    21     9    27    1
    22    27    28    1
    23    28    29    1
    24    29    30    1
    25    30    32    1
    26    32    33    1
    27    33    34    1
    28    34    35    1
    29    35    36    1
    30    36    37    1
    31    30    31    1
    32     9    10   ar
    33    12    13   ar
    34    13    14   ar
    35    14    15   ar
    36    15    16    1
    37    23    17   ar
    38    15    11   ar
    39    10     1   ar
    40    10     5   ar
    41    31    27    1
    42    37    32    1
