@<TRIPOS>MOLECULE
*****
 52 57 0 0 0
SMALL
GASTEIGER

@<TRIPOS>ATOM
      1 C         -63.2582  -50.1564  -24.5464 C.ar    1  UNL1        0.0502
      2 C         -64.3501  -50.9425  -24.9421 C.ar    1  UNL1        0.0148
      3 C         -64.5888  -52.1785  -24.3365 C.ar    1  UNL1        0.0080
      4 C         -63.7452  -52.6475  -23.3161 C.ar    1  UNL1        0.0808
      5 C         -62.6416  -51.8650  -22.9259 C.ar    1  UNL1        0.1457
      6 F         -61.7630  -52.3122  -21.9933 F       1  UNL1       -0.2040
      7 C         -62.4058  -50.6285  -23.5354 C.ar    1  UNL1        0.0443
      8 N         -62.1153  -46.6787  -26.6003 N.pl3   1  UNL1       -0.3041
      9 C         -61.3871  -47.0577  -25.3837 C.3     1  UNL1        0.1122
     10 C         -62.3129  -47.8245  -24.4389 C.3     1  UNL1        0.1122
     11 N         -63.0201  -48.8815  -25.1722 N.pl3   1  UNL1       -0.3040
     12 C         -63.7475  -48.5026  -26.3897 C.3     1  UNL1        0.1122
     13 C         -62.8215  -47.7357  -27.3341 C.3     1  UNL1        0.1122
     14 C         -61.4310  -42.9030  -28.4584 C.ar    1  UNL1        0.0112
     15 C         -61.6037  -43.0019  -27.0674 C.ar    1  UNL1       -0.0006
     16 C         -61.8290  -44.2341  -26.4583 C.ar    1  UNL1        0.0143
     17 C         -61.8799  -45.4028  -27.2250 C.ar    1  UNL1        0.0479
     18 C         -61.7028  -45.3217  -28.6129 C.ar    1  UNL1        0.0181
     19 C         -61.4722  -44.0849  -29.2514 C.ar    1  UNL1        0.0710
     20 C         -61.2664  -44.0501  -30.7551 C.3     1  UNL1        0.4184
     21 F         -60.9058  -42.7892  -31.1994 F       1  UNL1       -0.1659
     22 F         -62.4404  -44.4052  -31.3946 F       1  UNL1       -0.1659
     23 F         -60.2606  -44.9291  -31.1126 F       1  UNL1       -0.1659
     24 C         -61.1977  -41.5188  -29.0334 C.3     1  UNL1        0.1686
     25 C         -63.3550  -40.9848  -29.6917 C.3     1  UNL1        0.1746
     26 O         -62.3106  -40.6780  -28.7938 O.3     1  UNL1       -0.3463
     27 C         -64.0271  -53.9532  -22.6824 C.2     1  UNL1        0.2483
     28 O         -63.0718  -54.7464  -22.4589 O.2     1  UNL1       -0.2701
     29 N         -65.3753  -54.3440  -22.3701 N.am    1  UNL1       -0.2945
     30 H         -66.1576  -53.7474  -22.7230 H       1  UNL1        0.1501
     31 C         -65.7121  -55.6766  -21.8549 C.3     1  UNL1        0.1535
     32 C         -66.7061  -55.5597  -20.7299 C.2     1  UNL1        0.2443
     33 O         -66.6532  -56.3680  -19.7625 O.2     1  UNL1       -0.2730
     34 N         -67.6431  -54.4708  -20.7149 N.am    1  UNL1       -0.2825
     35 H         -67.4488  -53.6527  -21.3361 H       1  UNL1        0.1549
     36 C         -68.7666  -54.3874  -19.8215 C.ar    1  UNL1        0.0535
     37 C         -69.9266  -53.7173  -20.2338 C.ar    1  UNL1        0.0353
     38 C         -71.0293  -53.6528  -19.3787 C.ar    1  UNL1        0.1002
     39 N         -70.9825  -54.2514  -18.1593 N.ar    1  UNL1       -0.2422
     40 C         -69.8795  -54.9252  -17.7391 C.ar    1  UNL1        0.1002
     41 C         -68.7543  -55.0129  -18.5628 C.ar    1  UNL1        0.0353
     42 C         -66.2906  -56.5540  -22.9774 C.3     1  UNL1        0.0569
     43 C         -67.2831  -55.7923  -23.8073 C.ar    1  UNL1       -0.0017
     44 C         -67.0044  -55.0306  -24.9387 C.ar    1  UNL1        0.0681
     45 N         -68.1508  -54.5897  -25.5051 N.ar    1  UNL1       -0.3523
     46 C         -69.1499  -55.0766  -24.7487 C.ar    1  UNL1        0.0563
     47 C         -70.5196  -54.9198  -24.9555 C.ar    1  UNL1        0.0170
     48 C         -71.3970  -55.5502  -24.0541 C.ar    1  UNL1        0.0015
     49 C         -70.8915  -56.3195  -22.9824 C.ar    1  UNL1        0.0001
     50 C         -69.5039  -56.4638  -22.8009 C.ar    1  UNL1        0.0012
     51 C         -68.6598  -55.8197  -23.7054 C.ar    1  UNL1        0.0131
     52 H         -68.2381  -54.0114  -26.3700 H       1  UNL1        0.1660
@<TRIPOS>BOND
     1    25    26    1
     2    26    24    1
     3    24    14    1
     4    14    15   ar
     5    15    16   ar
     6    16    17   ar
     7    17     8    1
     8     8     9    1
     9     9    10    1
    10    10    11    1
    11    11     1    1
    12     1     2   ar
    13     2     3   ar
    14     3     4   ar
    15     4    27    1
    16    27    28    2
    17    27    29   am
    18    29    31    1
    19    31    42    1
    20    42    43    1
    21    43    44   ar
    22    44    45   ar
    23    45    46   ar
    24    46    47   ar
    25    47    48   ar
    26    48    49   ar
    27    49    50   ar
    28    50    51   ar
    29    31    32    1
    30    32    33    2
    31    32    34   am
    32    34    36    1
    33    36    37   ar
    34    37    38   ar
    35    38    39   ar
    36    39    40   ar
    37    40    41   ar
    38     4     5   ar
    39     5     6    1
    40     5     7   ar
    41    11    12    1
    42    12    13    1
    43    17    18   ar
    44    18    19   ar
    45    19    20    1
    46    20    21    1
    47    20    22    1
    48    20    23    1
    49    19    14   ar
    50    13     8    1
    51     7     1   ar
    52    51    43   ar
    53    41    36   ar
    54    51    46   ar
    55    29    30    1
    56    45    52    1
    57    34    35    1
@<TRIPOS>MOLECULE
*****
 52 57 0 0 0
SMALL
GASTEIGER

@<TRIPOS>ATOM
      1 C         -61.6856  -42.3702  -24.4875 C.ar    1  UNL1        0.0502
      2 C         -62.9332  -42.0295  -23.9452 C.ar    1  UNL1        0.0148
      3 C         -63.0661  -41.7804  -22.5771 C.ar    1  UNL1        0.0080
      4 C         -61.9510  -41.8577  -21.7264 C.ar    1  UNL1        0.0808
      5 C         -60.7001  -42.2114  -22.2673 C.ar    1  UNL1        0.1457
      6 F         -59.6126  -42.3649  -21.4702 F       1  UNL1       -0.2040
      7 C         -60.5716  -42.4607  -23.6375 C.ar    1  UNL1        0.0443
      8 N         -61.6561  -42.6767  -28.6737 N.pl3   1  UNL1       -0.3041
      9 C         -62.8158  -43.1851  -27.9317 C.3     1  UNL1        0.1122
     10 C         -62.3825  -43.6505  -26.5412 C.3     1  UNL1        0.1122
     11 N         -61.5548  -42.6219  -25.8993 N.pl3   1  UNL1       -0.3040
     12 C         -60.3955  -42.1127  -26.6419 C.3     1  UNL1        0.1122
     13 C         -60.8291  -41.6475  -28.0323 C.3     1  UNL1        0.1122
     14 C         -61.2622  -43.4430  -32.8491 C.ar    1  UNL1        0.0112
     15 C         -62.3754  -42.7496  -32.3447 C.ar    1  UNL1       -0.0006
     16 C         -62.5071  -42.4994  -30.9807 C.ar    1  UNL1        0.0143
     17 C         -61.5232  -42.9305  -30.0849 C.ar    1  UNL1        0.0479
     18 C         -60.4035  -43.6175  -30.5731 C.ar    1  UNL1        0.0181
     19 C         -60.2483  -43.8811  -31.9505 C.ar    1  UNL1        0.0710
     20 C         -59.0083  -44.6114  -32.4338 C.3     1  UNL1        0.4184
     21 F         -57.8504  -43.9035  -32.1590 F       1  UNL1       -0.1659
     22 F         -59.0788  -44.7935  -33.8033 F       1  UNL1       -0.1659
     23 F         -58.9122  -45.8405  -31.8078 F       1  UNL1       -0.1659
     24 C         -61.2079  -43.6749  -34.3472 C.3     1  UNL1        0.1686
     25 C         -63.4273  -43.6454  -35.0148 C.3     1  UNL1        0.1746
     26 O         -62.2114  -42.9294  -35.0107 O.3     1  UNL1       -0.3463
     27 C         -62.1159  -41.5770  -20.2842 C.2     1  UNL1        0.2483
     28 O         -61.3520  -42.1455  -19.4566 O.2     1  UNL1       -0.2701
     29 N         -63.1643  -40.7100  -19.8184 N.am    1  UNL1       -0.2945
     30 H         -63.8863  -40.3936  -20.5047 H       1  UNL1        0.1501
     31 C         -63.4406  -40.5006  -18.3919 C.3     1  UNL1        0.1535
     32 C         -64.1547  -39.1903  -18.1907 C.2     1  UNL1        0.2443
     33 O         -65.0780  -39.1066  -17.3349 O.2     1  UNL1       -0.2730
     34 N         -63.7155  -38.0211  -18.9007 N.am    1  UNL1       -0.2825
     35 H         -62.7654  -38.0441  -19.3361 H       1  UNL1        0.1549
     36 C         -64.4522  -36.7876  -18.9546 C.ar    1  UNL1        0.0535
     37 C         -63.8999  -35.6297  -18.3899 C.ar    1  UNL1        0.0353
     38 C         -64.6012  -34.4236  -18.4595 C.ar    1  UNL1        0.1002
     39 N         -65.8060  -34.3705  -19.0865 N.ar    1  UNL1       -0.2422
     40 C         -66.3585  -35.4716  -19.6607 C.ar    1  UNL1        0.1002
     41 C         -65.6909  -36.6981  -19.6129 C.ar    1  UNL1        0.0353
     42 C         -64.2932  -41.6537  -17.8371 C.3     1  UNL1        0.0569
     43 C         -64.9330  -42.4398  -18.9446 C.ar    1  UNL1       -0.0017
     44 C         -65.0134  -43.8267  -19.0356 C.ar    1  UNL1        0.0681
     45 N         -65.7664  -44.1871  -20.0997 N.ar    1  UNL1       -0.3523
     46 C         -66.1717  -43.0407  -20.6731 C.ar    1  UNL1        0.0563
     47 C         -67.0008  -42.8993  -21.7849 C.ar    1  UNL1        0.0170
     48 C         -67.3303  -41.5951  -22.1977 C.ar    1  UNL1        0.0015
     49 C         -66.8344  -40.4747  -21.4944 C.ar    1  UNL1        0.0001
     50 C         -66.0028  -40.6479  -20.3730 C.ar    1  UNL1        0.0012
     51 C         -65.6868  -41.9525  -19.9937 C.ar    1  UNL1        0.0131
     52 H         -66.0043  -45.1596  -20.3960 H       1  UNL1        0.1660
@<TRIPOS>BOND
     1    25    26    1
     2    26    24    1
     3    24    14    1
     4    14    15   ar
     5    15    16   ar
     6    16    17   ar
     7    17     8    1
     8     8     9    1
     9     9    10    1
    10    10    11    1
    11    11     1    1
    12     1     2   ar
    13     2     3   ar
    14     3     4   ar
    15     4    27    1
    16    27    28    2
    17    27    29   am
    18    29    31    1
    19    31    42    1
    20    42    43    1
    21    43    44   ar
    22    44    45   ar
    23    45    46   ar
    24    46    47   ar
    25    47    48   ar
    26    48    49   ar
    27    49    50   ar
    28    50    51   ar
    29    31    32    1
    30    32    33    2
    31    32    34   am
    32    34    36    1
    33    36    37   ar
    34    37    38   ar
    35    38    39   ar
    36    39    40   ar
    37    40    41   ar
    38     4     5   ar
    39     5     6    1
    40     5     7   ar
    41    11    12    1
    42    12    13    1
    43    17    18   ar
    44    18    19   ar
    45    19    20    1
    46    20    21    1
    47    20    22    1
    48    20    23    1
    49    19    14   ar
    50    13     8    1
    51     7     1   ar
    52    51    43   ar
    53    41    36   ar
    54    51    46   ar
    55    29    30    1
    56    45    52    1
    57    34    35    1
@<TRIPOS>MOLECULE
*****
 52 57 0 0 0
SMALL
GASTEIGER

@<TRIPOS>ATOM
      1 C         -63.2083  -51.2249  -24.0049 C.ar    1  UNL1        0.0502
      2 C         -62.3846  -51.9005  -23.0927 C.ar    1  UNL1        0.0148
      3 C         -62.8260  -53.0727  -22.4742 C.ar    1  UNL1        0.0080
      4 C         -64.0964  -53.5973  -22.7639 C.ar    1  UNL1        0.0808
      5 C         -64.9292  -52.9138  -23.6704 C.ar    1  UNL1        0.1457
      6 F         -66.1893  -53.3482  -23.9253 F       1  UNL1       -0.2040
      7 C         -64.4837  -51.7401  -24.2868 C.ar    1  UNL1        0.0443
      8 N         -62.1376  -47.4370  -25.4623 N.pl3   1  UNL1       -0.3041
      9 C         -63.4929  -47.9394  -25.7163 C.3     1  UNL1        0.1122
     10 C         -63.4783  -49.4667  -25.7877 C.3     1  UNL1        0.1122
     11 N         -62.7457  -50.0191  -24.6418 N.pl3   1  UNL1       -0.3040
     12 C         -61.3905  -49.5157  -24.3871 C.3     1  UNL1        0.1122
     13 C         -61.4053  -47.9885  -24.3159 C.3     1  UNL1        0.1122
     14 C         -60.7519  -43.8704  -27.3427 C.ar    1  UNL1        0.0112
     15 C         -60.7440  -45.0972  -28.0279 C.ar    1  UNL1       -0.0006
     16 C         -61.1948  -46.2640  -27.4151 C.ar    1  UNL1        0.0143
     17 C         -61.6731  -46.2329  -26.1010 C.ar    1  UNL1        0.0479
     18 C         -61.6937  -45.0158  -25.4065 C.ar    1  UNL1        0.0181
     19 C         -61.2434  -43.8213  -26.0072 C.ar    1  UNL1        0.0710
     20 C         -61.3039  -42.5237  -25.2214 C.3     1  UNL1        0.4184
     21 F         -61.7134  -42.7284  -23.9146 F       1  UNL1       -0.1659
     22 F         -62.2046  -41.6595  -25.8175 F       1  UNL1       -0.1659
     23 F         -60.0527  -41.9363  -25.1865 F       1  UNL1       -0.1659
     24 C         -60.2358  -42.6543  -28.0882 C.3     1  UNL1        0.1686
     25 C         -61.6132  -41.1588  -29.2010 C.3     1  UNL1        0.1746
     26 O         -60.9908  -42.4236  -29.2628 O.3     1  UNL1       -0.3463
     27 C         -64.5347  -54.8463  -22.1054 C.2     1  UNL1        0.2483
     28 O         -63.6784  -55.7343  -21.8411 O.2     1  UNL1       -0.2701
     29 N         -65.9240  -55.0767  -21.8145 N.am    1  UNL1       -0.2945
     30 H         -66.6277  -54.4066  -22.1994 H       1  UNL1        0.1501
     31 C         -66.4174  -56.3496  -21.2750 C.3     1  UNL1        0.1535
     32 C         -67.4852  -56.0948  -20.2443 C.2     1  UNL1        0.2443
     33 O         -67.6937  -56.9461  -19.3368 O.2     1  UNL1       -0.2730
     34 N         -68.1902  -54.8430  -20.2406 N.am    1  UNL1       -0.2825
     35 H         -67.7759  -54.0492  -20.7802 H       1  UNL1        0.1549
     36 C         -69.3658  -54.5832  -19.4546 C.ar    1  UNL1        0.0535
     37 C         -70.3281  -53.6823  -19.9311 C.ar    1  UNL1        0.0353
     38 C         -71.4829  -53.4434  -19.1823 C.ar    1  UNL1        0.1002
     39 N         -71.6794  -54.0943  -18.0054 N.ar    1  UNL1       -0.2422
     40 C         -70.7742  -54.9881  -17.5268 C.ar    1  UNL1        0.1002
     41 C         -69.6051  -55.2555  -18.2436 C.ar    1  UNL1        0.0353
     42 C         -66.9780  -57.2285  -22.4053 C.3     1  UNL1        0.0569
     43 C         -67.7747  -56.4150  -23.3837 C.ar    1  UNL1       -0.0017
     44 C         -67.2983  -55.8257  -24.5516 C.ar    1  UNL1        0.0681
     45 N         -68.3164  -55.2769  -25.2527 N.ar    1  UNL1       -0.3523
     46 C         -69.4316  -55.5254  -24.5442 C.ar    1  UNL1        0.0563
     47 C         -70.7404  -55.1846  -24.8820 C.ar    1  UNL1        0.0170
     48 C         -71.7691  -55.5777  -24.0061 C.ar    1  UNL1        0.0015
     49 C         -71.4703  -56.2997  -22.8291 C.ar    1  UNL1        0.0001
     50 C         -70.1401  -56.6335  -22.5159 C.ar    1  UNL1        0.0012
     51 C         -69.1418  -56.2222  -23.3991 C.ar    1  UNL1        0.0131
     52 H         -68.2486  -54.7846  -26.1710 H       1  UNL1        0.1660
@<TRIPOS>BOND
     1    25    26    1
     2    26    24    1
     3    24    14    1
     4    14    15   ar
     5    15    16   ar
     6    16    17   ar
     7    17     8    1
     8     8     9    1
     9     9    10    1
    10    10    11    1
    11    11     1    1
    12     1     2   ar
    13     2     3   ar
    14     3     4   ar
    15     4    27    1
    16    27    28    2
    17    27    29   am
    18    29    31    1
    19    31    42    1
    20    42    43    1
    21    43    44   ar
    22    44    45   ar
    23    45    46   ar
    24    46    47   ar
    25    47    48   ar
    26    48    49   ar
    27    49    50   ar
    28    50    51   ar
    29    31    32    1
    30    32    33    2
    31    32    34   am
    32    34    36    1
    33    36    37   ar
    34    37    38   ar
    35    38    39   ar
    36    39    40   ar
    37    40    41   ar
    38     4     5   ar
    39     5     6    1
    40     5     7   ar
    41    11    12    1
    42    12    13    1
    43    17    18   ar
    44    18    19   ar
    45    19    20    1
    46    20    21    1
    47    20    22    1
    48    20    23    1
    49    19    14   ar
    50    13     8    1
    51     7     1   ar
    52    51    43   ar
    53    41    36   ar
    54    51    46   ar
    55    29    30    1
    56    45    52    1
    57    34    35    1
@<TRIPOS>MOLECULE
*****
 52 57 0 0 0
SMALL
GASTEIGER

@<TRIPOS>ATOM
      1 C         -62.5356  -42.9982  -23.1769 C.ar    1  UNL1        0.0502
      2 C         -62.4870  -44.2243  -22.4977 C.ar    1  UNL1        0.0148
      3 C         -62.2559  -45.4117  -23.1963 C.ar    1  UNL1        0.0080
      4 C         -62.0591  -45.3944  -24.5870 C.ar    1  UNL1        0.0808
      5 C         -62.1195  -44.1657  -25.2720 C.ar    1  UNL1        0.1457
      6 F         -62.0039  -44.1128  -26.6231 F       1  UNL1       -0.2040
      7 C         -62.3518  -42.9793  -24.5688 C.ar    1  UNL1        0.0443
      8 N         -63.5042  -39.7541  -20.6957 N.pl3   1  UNL1       -0.3041
      9 C         -64.5328  -40.2961  -21.5914 C.3     1  UNL1        0.1122
     10 C         -63.8776  -40.8945  -22.8366 C.3     1  UNL1        0.1122
     11 N         -62.7704  -41.7774  -22.4501 N.pl3   1  UNL1       -0.3040
     12 C         -61.7422  -41.2357  -21.5534 C.3     1  UNL1        0.1122
     13 C         -62.3976  -40.6373  -20.3084 C.3     1  UNL1        0.1122
     14 C         -64.1962  -36.1282  -18.5626 C.ar    1  UNL1        0.0112
     15 C         -64.9847  -37.2668  -18.3250 C.ar    1  UNL1       -0.0006
     16 C         -64.7615  -38.4520  -19.0218 C.ar    1  UNL1        0.0143
     17 C         -63.7371  -38.5319  -19.9708 C.ar    1  UNL1        0.0479
     18 C         -62.9375  -37.4069  -20.2144 C.ar    1  UNL1        0.0181
     19 C         -63.1444  -36.1963  -19.5199 C.ar    1  UNL1        0.0710
     20 C         -62.2395  -35.0109  -19.8039 C.3     1  UNL1        0.4184
     21 F         -61.0287  -35.4027  -20.3494 F       1  UNL1       -0.1659
     22 F         -61.9750  -34.3340  -18.6270 F       1  UNL1       -0.1659
     23 F         -62.8521  -34.1561  -20.7018 F       1  UNL1       -0.1659
     24 C         -64.5171  -34.8807  -17.7614 C.3     1  UNL1        0.1686
     25 C         -66.4613  -34.6568  -19.0034 C.3     1  UNL1        0.1746
     26 O         -65.3186  -33.9893  -18.5136 O.3     1  UNL1       -0.3463
     27 C         -61.8036  -46.6635  -25.3010 C.2     1  UNL1        0.2483
     28 O         -60.6872  -47.2338  -25.1594 O.2     1  UNL1       -0.2701
     29 N         -62.7888  -47.2201  -26.1883 N.am    1  UNL1       -0.2945
     30 H         -63.6279  -46.6419  -26.4210 H       1  UNL1        0.1501
     31 C         -62.5305  -48.4094  -27.0090 C.3     1  UNL1        0.1535
     32 C         -62.5451  -49.6446  -26.1480 C.2     1  UNL1        0.2443
     33 O         -63.4349  -50.5210  -26.3272 O.2     1  UNL1       -0.2730
     34 N         -61.4908  -49.8651  -25.1973 N.am    1  UNL1       -0.2825
     35 H         -60.6148  -49.3044  -25.3029 H       1  UNL1        0.1549
     36 C         -61.5219  -50.8825  -24.1819 C.ar    1  UNL1        0.0535
     37 C         -60.3172  -51.4183  -23.7060 C.ar    1  UNL1        0.0353
     38 C         -60.3406  -52.3906  -22.7034 C.ar    1  UNL1        0.1002
     39 N         -61.5257  -52.8028  -22.1807 N.ar    1  UNL1       -0.2422
     40 C         -62.7091  -52.2881  -22.6074 C.ar    1  UNL1        0.1002
     41 C         -62.7307  -51.3145  -23.6092 C.ar    1  UNL1        0.0353
     42 C         -63.5857  -48.5320  -28.1207 C.3     1  UNL1        0.0569
     43 C         -63.8065  -47.2165  -28.8096 C.ar    1  UNL1       -0.0017
     44 C         -63.2547  -45.9903  -28.4486 C.ar    1  UNL1        0.0681
     45 N         -63.5674  -45.0443  -29.3632 N.ar    1  UNL1       -0.3523
     46 C         -64.3005  -45.6651  -30.3037 C.ar    1  UNL1        0.0563
     47 C         -64.8251  -45.1088  -31.4694 C.ar    1  UNL1        0.0170
     48 C         -65.5366  -45.9554  -32.3395 C.ar    1  UNL1        0.0015
     49 C         -65.7004  -47.3243  -32.0314 C.ar    1  UNL1        0.0001
     50 C         -65.1562  -47.8591  -30.8495 C.ar    1  UNL1        0.0012
     51 C         -64.4640  -46.9931  -30.0030 C.ar    1  UNL1        0.0131
     52 H         -63.2739  -44.0423  -29.3510 H       1  UNL1        0.1660
@<TRIPOS>BOND
     1    25    26    1
     2    26    24    1
     3    24    14    1
     4    14    15   ar
     5    15    16   ar
     6    16    17   ar
     7    17     8    1
     8     8     9    1
     9     9    10    1
    10    10    11    1
    11    11     1    1
    12     1     2   ar
    13     2     3   ar
    14     3     4   ar
    15     4    27    1
    16    27    28    2
    17    27    29   am
    18    29    31    1
    19    31    42    1
    20    42    43    1
    21    43    44   ar
    22    44    45   ar
    23    45    46   ar
    24    46    47   ar
    25    47    48   ar
    26    48    49   ar
    27    49    50   ar
    28    50    51   ar
    29    31    32    1
    30    32    33    2
    31    32    34   am
    32    34    36    1
    33    36    37   ar
    34    37    38   ar
    35    38    39   ar
    36    39    40   ar
    37    40    41   ar
    38     4     5   ar
    39     5     6    1
    40     5     7   ar
    41    11    12    1
    42    12    13    1
    43    17    18   ar
    44    18    19   ar
    45    19    20    1
    46    20    21    1
    47    20    22    1
    48    20    23    1
    49    19    14   ar
    50    13     8    1
    51     7     1   ar
    52    51    43   ar
    53    41    36   ar
    54    51    46   ar
    55    29    30    1
    56    45    52    1
    57    34    35    1
@<TRIPOS>MOLECULE
*****
 52 57 0 0 0
SMALL
GASTEIGER

@<TRIPOS>ATOM
      1 C         -62.5201  -42.9361  -23.1625 C.ar    1  UNL1        0.0502
      2 C         -62.2748  -44.1313  -22.4710 C.ar    1  UNL1        0.0148
      3 C         -62.0281  -45.3154  -23.1700 C.ar    1  UNL1        0.0080
      4 C         -62.0122  -45.3246  -24.5745 C.ar    1  UNL1        0.0808
      5 C         -62.2701  -44.1280  -25.2702 C.ar    1  UNL1        0.1457
      6 F         -62.3326  -44.1076  -26.6257 F       1  UNL1       -0.2040
      7 C         -62.5174  -42.9449  -24.5666 C.ar    1  UNL1        0.0443
      8 N         -63.5164  -39.7058  -20.6741 N.pl3   1  UNL1       -0.3041
      9 C         -64.5503  -40.2782  -21.5444 C.3     1  UNL1        0.1122
     10 C         -63.9078  -40.8657  -22.8014 C.3     1  UNL1        0.1122
     11 N         -62.7700  -41.7182  -22.4358 N.pl3   1  UNL1       -0.3040
     12 C         -61.7364  -41.1460  -21.5645 C.3     1  UNL1        0.1122
     13 C         -62.3793  -40.5586  -20.3078 C.3     1  UNL1        0.1122
     14 C         -64.2530  -36.0883  -18.5416 C.ar    1  UNL1        0.0112
     15 C         -65.0468  -37.2275  -18.3258 C.ar    1  UNL1       -0.0006
     16 C         -64.8091  -38.4100  -19.0225 C.ar    1  UNL1        0.0143
     17 C         -63.7644  -38.4865  -19.9495 C.ar    1  UNL1        0.0479
     18 C         -62.9594  -37.3609  -20.1711 C.ar    1  UNL1        0.0181
     19 C         -63.1807  -36.1531  -19.4762 C.ar    1  UNL1        0.0710
     20 C         -62.2695  -34.9669  -19.7358 C.3     1  UNL1        0.4184
     21 F         -61.0479  -35.3569  -20.2582 F       1  UNL1       -0.1659
     22 F         -62.0287  -34.2960  -18.5503 F       1  UNL1       -0.1659
     23 F         -62.8629  -34.1073  -20.6418 F       1  UNL1       -0.1659
     24 C         -64.5906  -34.8440  -17.7424 C.3     1  UNL1        0.1686
     25 C         -66.5462  -34.6580  -18.9727 C.3     1  UNL1        0.1746
     26 O         -65.4122  -33.9692  -18.4925 O.3     1  UNL1       -0.3463
     27 C         -61.7358  -46.5884  -25.2902 C.2     1  UNL1        0.2483
     28 O         -60.6037  -47.1307  -25.1641 O.2     1  UNL1       -0.2701
     29 N         -62.7199  -47.1708  -26.1620 N.am    1  UNL1       -0.2945
     30 H         -63.5764  -46.6141  -26.3833 H       1  UNL1        0.1501
     31 C         -62.4444  -48.3550  -26.9846 C.3     1  UNL1        0.1535
     32 C         -62.5235  -49.6000  -26.1412 C.2     1  UNL1        0.2443
     33 O         -63.4725  -50.4131  -26.3146 O.2     1  UNL1       -0.2730
     34 N         -61.4675  -49.9040  -25.2158 N.am    1  UNL1       -0.2825
     35 H         -60.5587  -49.4006  -25.3315 H       1  UNL1        0.1549
     36 C         -61.5457  -50.9330  -24.2146 C.ar    1  UNL1        0.0535
     37 C         -60.3668  -51.5273  -23.7436 C.ar    1  UNL1        0.0353
     38 C         -60.4353  -52.5114  -22.7546 C.ar    1  UNL1        0.1002
     39 N         -61.6386  -52.8786  -22.2402 N.ar    1  UNL1       -0.2422
     40 C         -62.7973  -52.3069  -22.6622 C.ar    1  UNL1        0.1002
     41 C         -62.7737  -51.3196  -23.6505 C.ar    1  UNL1        0.0353
     42 C         -63.4467  -48.4441  -28.1473 C.3     1  UNL1        0.0569
     43 C         -63.4767  -47.1691  -28.9394 C.ar    1  UNL1       -0.0017
     44 C         -64.6023  -46.5645  -29.4921 C.ar    1  UNL1        0.0681
     45 N         -64.2786  -45.3661  -30.0292 N.ar    1  UNL1       -0.3523
     46 C         -62.9623  -45.2039  -29.8093 C.ar    1  UNL1        0.0563
     47 C         -62.1782  -44.1031  -30.1508 C.ar    1  UNL1        0.0170
     48 C         -60.8182  -44.1274  -29.7904 C.ar    1  UNL1        0.0015
     49 C         -60.2805  -45.2359  -29.0992 C.ar    1  UNL1        0.0001
     50 C         -61.0969  -46.3313  -28.7638 C.ar    1  UNL1        0.0012
     51 C         -62.4385  -46.2818  -29.1424 C.ar    1  UNL1        0.0131
     52 H         -64.9282  -44.6943  -30.4951 H       1  UNL1        0.1660
@<TRIPOS>BOND
     1    25    26    1
     2    26    24    1
     3    24    14    1
     4    14    15   ar
     5    15    16   ar
     6    16    17   ar
     7    17     8    1
     8     8     9    1
     9     9    10    1
    10    10    11    1
    11    11     1    1
    12     1     2   ar
    13     2     3   ar
    14     3     4   ar
    15     4    27    1
    16    27    28    2
    17    27    29   am
    18    29    31    1
    19    31    42    1
    20    42    43    1
    21    43    44   ar
    22    44    45   ar
    23    45    46   ar
    24    46    47   ar
    25    47    48   ar
    26    48    49   ar
    27    49    50   ar
    28    50    51   ar
    29    31    32    1
    30    32    33    2
    31    32    34   am
    32    34    36    1
    33    36    37   ar
    34    37    38   ar
    35    38    39   ar
    36    39    40   ar
    37    40    41   ar
    38     4     5   ar
    39     5     6    1
    40     5     7   ar
    41    11    12    1
    42    12    13    1
    43    17    18   ar
    44    18    19   ar
    45    19    20    1
    46    20    21    1
    47    20    22    1
    48    20    23    1
    49    19    14   ar
    50    13     8    1
    51     7     1   ar
    52    51    43   ar
    53    41    36   ar
    54    51    46   ar
    55    29    30    1
    56    45    52    1
    57    34    35    1
@<TRIPOS>MOLECULE
*****
 52 57 0 0 0
SMALL
GASTEIGER

@<TRIPOS>ATOM
      1 C         -61.6251  -43.9518  -21.9416 C.ar    1  UNL1        0.0502
      2 C         -62.4828  -44.6756  -22.7827 C.ar    1  UNL1        0.0148
      3 C         -62.1486  -45.9693  -23.1902 C.ar    1  UNL1        0.0080
      4 C         -60.9543  -46.5678  -22.7560 C.ar    1  UNL1        0.0808
      5 C         -60.0866  -45.8380  -21.9213 C.ar    1  UNL1        0.1457
      6 F         -58.8914  -46.3525  -21.5357 F       1  UNL1       -0.2040
      7 C         -60.4246  -44.5428  -21.5162 C.ar    1  UNL1        0.0443
      8 N         -63.0936  -40.3047  -20.4715 N.pl3   1  UNL1       -0.3041
      9 C         -63.7393  -40.9113  -21.6416 C.3     1  UNL1        0.1122
     10 C         -62.7220  -41.7378  -22.4290 C.3     1  UNL1        0.1122
     11 N         -61.9775  -42.6200  -21.5221 N.pl3   1  UNL1       -0.3040
     12 C         -61.3326  -42.0134  -20.3512 C.3     1  UNL1        0.1122
     13 C         -62.3501  -41.1870  -19.5642 C.3     1  UNL1        0.1122
     14 C         -64.1297  -36.3544  -19.2474 C.ar    1  UNL1        0.0112
     15 C         -64.9311  -37.4531  -18.8933 C.ar    1  UNL1       -0.0006
     16 C         -64.5955  -38.7444  -19.2934 C.ar    1  UNL1        0.0143
     17 C         -63.4433  -38.9720  -20.0532 C.ar    1  UNL1        0.0479
     18 C         -62.6300  -37.8874  -20.4087 C.ar    1  UNL1        0.0181
     19 C         -62.9494  -36.5712  -20.0138 C.ar    1  UNL1        0.0710
     20 C         -62.0267  -35.4313  -20.4063 C.3     1  UNL1        0.4184
     21 F         -62.6725  -34.4878  -21.1874 F       1  UNL1       -0.1659
     22 F         -60.9593  -35.9253  -21.1342 F       1  UNL1       -0.1659
     23 F         -61.5581  -34.7937  -19.2723 F       1  UNL1       -0.1659
     24 C         -64.5779  -34.9852  -18.7726 C.3     1  UNL1        0.1686
     25 C         -66.8628  -34.6228  -18.9145 C.3     1  UNL1        0.1746
     26 O         -65.6270  -34.4881  -19.5821 O.3     1  UNL1       -0.3463
     27 C         -60.6301  -47.9430  -23.1915 C.2     1  UNL1        0.2483
     28 O         -59.4691  -48.1951  -23.6159 O.2     1  UNL1       -0.2701
     29 N         -61.6334  -48.9731  -23.1844 N.am    1  UNL1       -0.2945
     30 H         -62.6239  -48.6977  -22.9958 H       1  UNL1        0.1501
     31 C         -61.3892  -50.3171  -23.7217 C.3     1  UNL1        0.1535
     32 C         -62.3112  -51.3111  -23.0664 C.2     1  UNL1        0.2443
     33 O         -62.2127  -51.5331  -21.8283 O.2     1  UNL1       -0.2730
     34 N         -63.3601  -51.9251  -23.8323 N.am    1  UNL1       -0.2825
     35 H         -63.6201  -51.4837  -24.7436 H       1  UNL1        0.1549
     36 C         -64.1461  -53.0385  -23.3739 C.ar    1  UNL1        0.0535
     37 C         -65.4792  -53.1586  -23.7899 C.ar    1  UNL1        0.0353
     38 C         -66.2405  -54.2503  -23.3659 C.ar    1  UNL1        0.1002
     39 N         -65.6855  -55.1997  -22.5672 N.ar    1  UNL1       -0.2422
     40 C         -64.3901  -55.1214  -22.1632 C.ar    1  UNL1        0.1002
     41 C         -63.5938  -54.0454  -22.5635 C.ar    1  UNL1        0.0353
     42 C         -61.5996  -50.3310  -25.2448 C.3     1  UNL1        0.0569
     43 C         -62.4869  -49.2018  -25.6823 C.ar    1  UNL1       -0.0017
     44 C         -63.8130  -48.9993  -25.3101 C.ar    1  UNL1        0.0681
     45 N         -64.2629  -47.8176  -25.7901 N.ar    1  UNL1       -0.3523
     46 C         -63.2293  -47.2674  -26.4507 C.ar    1  UNL1        0.0563
     47 C         -63.1981  -46.0286  -27.0893 C.ar    1  UNL1        0.0170
     48 C         -61.9909  -45.6301  -27.6924 C.ar    1  UNL1        0.0015
     49 C         -60.8536  -46.4663  -27.6389 C.ar    1  UNL1        0.0001
     50 C         -60.9132  -47.7097  -26.9836 C.ar    1  UNL1        0.0012
     51 C         -62.1262  -48.0808  -26.4032 C.ar    1  UNL1        0.0131
     52 H         -65.2129  -47.4074  -25.6502 H       1  UNL1        0.1660
@<TRIPOS>BOND
     1    25    26    1
     2    26    24    1
     3    24    14    1
     4    14    15   ar
     5    15    16   ar
     6    16    17   ar
     7    17     8    1
     8     8     9    1
     9     9    10    1
    10    10    11    1
    11    11     1    1
    12     1     2   ar
    13     2     3   ar
    14     3     4   ar
    15     4    27    1
    16    27    28    2
    17    27    29   am
    18    29    31    1
    19    31    42    1
    20    42    43    1
    21    43    44   ar
    22    44    45   ar
    23    45    46   ar
    24    46    47   ar
    25    47    48   ar
    26    48    49   ar
    27    49    50   ar
    28    50    51   ar
    29    31    32    1
    30    32    33    2
    31    32    34   am
    32    34    36    1
    33    36    37   ar
    34    37    38   ar
    35    38    39   ar
    36    39    40   ar
    37    40    41   ar
    38     4     5   ar
    39     5     6    1
    40     5     7   ar
    41    11    12    1
    42    12    13    1
    43    17    18   ar
    44    18    19   ar
    45    19    20    1
    46    20    21    1
    47    20    22    1
    48    20    23    1
    49    19    14   ar
    50    13     8    1
    51     7     1   ar
    52    51    43   ar
    53    41    36   ar
    54    51    46   ar
    55    29    30    1
    56    45    52    1
    57    34    35    1
@<TRIPOS>MOLECULE
*****
 52 57 0 0 0
SMALL
GASTEIGER

@<TRIPOS>ATOM
      1 C         -62.5276  -42.9811  -23.4036 C.ar    1  UNL1        0.0502
      2 C         -62.4936  -42.9187  -24.8043 C.ar    1  UNL1        0.0148
      3 C         -62.2668  -44.0723  -25.5588 C.ar    1  UNL1        0.0080
      4 C         -62.0795  -45.3126  -24.9268 C.ar    1  UNL1        0.0808
      5 C         -62.1014  -45.3749  -23.5203 C.ar    1  UNL1        0.1457
      6 F         -61.8562  -46.5398  -22.8687 F       1  UNL1       -0.2040
      7 C         -62.3280  -44.2174  -22.7687 C.ar    1  UNL1        0.0443
      8 N         -63.5037  -39.8342  -20.8030 N.pl3   1  UNL1       -0.3041
      9 C         -64.5320  -40.3470  -21.7161 C.3     1  UNL1        0.1122
     10 C         -63.8771  -40.8966  -22.9837 C.3     1  UNL1        0.1122
     11 N         -62.7656  -41.7888  -22.6320 N.pl3   1  UNL1       -0.3040
     12 C         -61.7377  -41.2762  -21.7179 C.3     1  UNL1        0.1122
     13 C         -62.3929  -40.7266  -20.4505 C.3     1  UNL1        0.1122
     14 C         -64.2059  -36.2919  -18.5367 C.ar    1  UNL1        0.0112
     15 C         -64.9665  -37.4526  -18.3157 C.ar    1  UNL1       -0.0006
     16 C         -64.7400  -38.6105  -19.0559 C.ar    1  UNL1        0.0143
     17 C         -63.7398  -38.6404  -20.0332 C.ar    1  UNL1        0.0479
     18 C         -62.9680  -37.4930  -20.2610 C.ar    1  UNL1        0.0181
     19 C         -63.1787  -36.3093  -19.5227 C.ar    1  UNL1        0.0710
     20 C         -62.3038  -35.0982  -19.7916 C.3     1  UNL1        0.4184
     21 F         -62.0395  -34.3832  -18.6356 F       1  UNL1       -0.1659
     22 F         -62.9422  -34.2497  -20.6781 F       1  UNL1       -0.1659
     23 F         -61.0940  -35.5012  -20.3265 F       1  UNL1       -0.1659
     24 C         -64.5284  -35.0770  -17.6876 C.3     1  UNL1        0.1686
     25 C         -66.4296  -34.6532  -18.9439 C.3     1  UNL1        0.1746
     26 O         -65.2302  -34.1060  -18.4409 O.3     1  UNL1       -0.3463
     27 C         -61.8540  -46.5207  -25.7486 C.2     1  UNL1        0.2483
     28 O         -60.9973  -47.3675  -25.3736 O.2     1  UNL1       -0.2701
     29 N         -62.5592  -46.7103  -26.9874 N.am    1  UNL1       -0.2945
     30 H         -63.1287  -45.9166  -27.3590 H       1  UNL1        0.1501
     31 C         -62.2777  -47.8309  -27.8929 C.3     1  UNL1        0.1535
     32 C         -63.5325  -48.2348  -28.6209 C.2     1  UNL1        0.2443
     33 O         -64.2009  -49.2240  -28.2127 O.2     1  UNL1       -0.2730
     34 N         -64.0142  -47.4343  -29.7122 N.am    1  UNL1       -0.2825
     35 H         -63.6354  -46.4648  -29.8092 H       1  UNL1        0.1549
     36 C         -65.0615  -47.8419  -30.6090 C.ar    1  UNL1        0.0535
     37 C         -65.2587  -47.1367  -31.8042 C.ar    1  UNL1        0.0353
     38 C         -66.2599  -47.5422  -32.6898 C.ar    1  UNL1        0.1002
     39 N         -67.0280  -48.6257  -32.4008 N.ar    1  UNL1       -0.2422
     40 C         -66.8480  -49.3416  -31.2595 C.ar    1  UNL1        0.1002
     41 C         -65.8586  -48.9694  -30.3460 C.ar    1  UNL1        0.0353
     42 C         -61.1867  -47.4411  -28.9039 C.3     1  UNL1        0.0569
     43 C         -60.8848  -45.9719  -28.8400 C.ar    1  UNL1       -0.0017
     44 C         -59.7548  -45.3828  -28.2793 C.ar    1  UNL1        0.0681
     45 N         -59.7532  -44.0502  -28.5104 N.ar    1  UNL1       -0.3523
     46 C         -60.8649  -43.7955  -29.2222 C.ar    1  UNL1        0.0563
     47 C         -61.2809  -42.5645  -29.7273 C.ar    1  UNL1        0.0170
     48 C         -62.4679  -42.5309  -30.4822 C.ar    1  UNL1        0.0015
     49 C         -63.2005  -43.7156  -30.7176 C.ar    1  UNL1        0.0001
     50 C         -62.7542  -44.9447  -30.1987 C.ar    1  UNL1        0.0012
     51 C         -61.5791  -44.9444  -29.4471 C.ar    1  UNL1        0.0131
     52 H         -59.0209  -43.3662  -28.2170 H       1  UNL1        0.1660
@<TRIPOS>BOND
     1    25    26    1
     2    26    24    1
     3    24    14    1
     4    14    15   ar
     5    15    16   ar
     6    16    17   ar
     7    17     8    1
     8     8     9    1
     9     9    10    1
    10    10    11    1
    11    11     1    1
    12     1     2   ar
    13     2     3   ar
    14     3     4   ar
    15     4    27    1
    16    27    28    2
    17    27    29   am
    18    29    31    1
    19    31    42    1
    20    42    43    1
    21    43    44   ar
    22    44    45   ar
    23    45    46   ar
    24    46    47   ar
    25    47    48   ar
    26    48    49   ar
    27    49    50   ar
    28    50    51   ar
    29    31    32    1
    30    32    33    2
    31    32    34   am
    32    34    36    1
    33    36    37   ar
    34    37    38   ar
    35    38    39   ar
    36    39    40   ar
    37    40    41   ar
    38     4     5   ar
    39     5     6    1
    40     5     7   ar
    41    11    12    1
    42    12    13    1
    43    17    18   ar
    44    18    19   ar
    45    19    20    1
    46    20    21    1
    47    20    22    1
    48    20    23    1
    49    19    14   ar
    50    13     8    1
    51     7     1   ar
    52    51    43   ar
    53    41    36   ar
    54    51    46   ar
    55    29    30    1
    56    45    52    1
    57    34    35    1
@<TRIPOS>MOLECULE
*****
 52 57 0 0 0
SMALL
GASTEIGER

@<TRIPOS>ATOM
      1 C         -63.4469  -50.4755  -24.6817 C.ar    1  UNL1        0.0502
      2 C         -64.5443  -51.2700  -25.0440 C.ar    1  UNL1        0.0148
      3 C         -64.8042  -52.4667  -24.3719 C.ar    1  UNL1        0.0080
      4 C         -63.9768  -52.8868  -23.3174 C.ar    1  UNL1        0.0808
      5 C         -62.8678  -52.0963  -22.9604 C.ar    1  UNL1        0.1457
      6 F         -62.0042  -52.4999  -21.9945 F       1  UNL1       -0.2040
      7 C         -62.6107  -50.8993  -23.6364 C.ar    1  UNL1        0.0443
      8 N         -62.2778  -47.1524  -26.9642 N.pl3   1  UNL1       -0.3041
      9 C         -61.4691  -47.5361  -25.8011 C.3     1  UNL1        0.1122
     10 C         -62.3530  -48.2080  -24.7498 C.3     1  UNL1        0.1122
     11 N         -63.1868  -49.2411  -25.3763 N.pl3   1  UNL1       -0.3040
     12 C         -63.9949  -48.8575  -26.5402 C.3     1  UNL1        0.1122
     13 C         -63.1108  -48.1856  -27.5913 C.3     1  UNL1        0.1122
     14 C         -61.5299  -43.4899  -29.0145 C.ar    1  UNL1        0.0112
     15 C         -60.8006  -43.8347  -27.8639 C.ar    1  UNL1       -0.0006
     16 C         -61.0442  -45.0300  -27.1915 C.ar    1  UNL1        0.0143
     17 C         -62.0204  -45.9168  -27.6575 C.ar    1  UNL1        0.0479
     18 C         -62.7517  -45.5905  -28.8076 C.ar    1  UNL1        0.0181
     19 C         -62.5214  -44.3863  -29.5056 C.ar    1  UNL1        0.0710
     20 C         -63.3251  -44.0860  -30.7580 C.3     1  UNL1        0.4184
     21 F         -62.5108  -43.8781  -31.8584 F       1  UNL1       -0.1659
     22 F         -64.0779  -42.9416  -30.5655 F       1  UNL1       -0.1659
     23 F         -64.1627  -45.1480  -31.0452 F       1  UNL1       -0.1659
     24 C         -61.2001  -42.1652  -29.6758 C.3     1  UNL1        0.1686
     25 C         -61.4922  -39.8683  -29.5709 C.3     1  UNL1        0.1746
     26 O         -61.9694  -41.1165  -29.1179 O.3     1  UNL1       -0.3463
     27 C         -64.2811  -54.1510  -22.6138 C.2     1  UNL1        0.2483
     28 O         -63.3322  -54.9141  -22.2841 O.2     1  UNL1       -0.2701
     29 N         -65.6409  -54.5386  -22.3517 N.am    1  UNL1       -0.2945
     30 H         -66.4079  -53.9778  -22.7873 H       1  UNL1        0.1501
     31 C         -65.9930  -55.8383  -21.7673 C.3     1  UNL1        0.1535
     32 C         -66.8440  -55.6401  -20.5410 C.2     1  UNL1        0.2443
     33 O         -66.3258  -55.7516  -19.3960 O.2     1  UNL1       -0.2730
     34 N         -68.2132  -55.2283  -20.6807 N.am    1  UNL1       -0.2825
     35 H         -68.5108  -54.8309  -21.6006 H       1  UNL1        0.1549
     36 C         -69.1671  -55.2257  -19.6048 C.ar    1  UNL1        0.0535
     37 C         -69.2730  -56.3504  -18.7750 C.ar    1  UNL1        0.0353
     38 C         -70.1820  -56.3446  -17.7143 C.ar    1  UNL1        0.1002
     39 N         -70.9480  -55.2468  -17.4788 N.ar    1  UNL1       -0.2422
     40 C         -70.8542  -54.1340  -18.2536 C.ar    1  UNL1        0.1002
     41 C         -69.9586  -54.0983  -19.3254 C.ar    1  UNL1        0.0353
     42 C         -66.7452  -56.7008  -22.7944 C.3     1  UNL1        0.0569
     43 C         -67.6041  -55.8560  -23.6901 C.ar    1  UNL1       -0.0017
     44 C         -68.0601  -54.5676  -23.4249 C.ar    1  UNL1        0.0681
     45 N         -68.7019  -54.0627  -24.5031 N.ar    1  UNL1       -0.3523
     46 C         -68.6441  -55.0157  -25.4496 C.ar    1  UNL1        0.0563
     47 C         -69.1388  -54.9448  -26.7510 C.ar    1  UNL1        0.0170
     48 C         -68.9354  -56.0537  -27.5930 C.ar    1  UNL1        0.0015
     49 C         -68.2446  -57.1927  -27.1225 C.ar    1  UNL1        0.0001
     50 C         -67.7526  -57.2344  -25.8053 C.ar    1  UNL1        0.0012
     51 C         -67.9777  -56.1236  -24.9921 C.ar    1  UNL1        0.0131
     52 H         -69.1301  -53.1142  -24.5877 H       1  UNL1        0.1660
@<TRIPOS>BOND
     1    25    26    1
     2    26    24    1
     3    24    14    1
     4    14    15   ar
     5    15    16   ar
     6    16    17   ar
     7    17     8    1
     8     8     9    1
     9     9    10    1
    10    10    11    1
    11    11     1    1
    12     1     2   ar
    13     2     3   ar
    14     3     4   ar
    15     4    27    1
    16    27    28    2
    17    27    29   am
    18    29    31    1
    19    31    42    1
    20    42    43    1
    21    43    44   ar
    22    44    45   ar
    23    45    46   ar
    24    46    47   ar
    25    47    48   ar
    26    48    49   ar
    27    49    50   ar
    28    50    51   ar
    29    31    32    1
    30    32    33    2
    31    32    34   am
    32    34    36    1
    33    36    37   ar
    34    37    38   ar
    35    38    39   ar
    36    39    40   ar
    37    40    41   ar
    38     4     5   ar
    39     5     6    1
    40     5     7   ar
    41    11    12    1
    42    12    13    1
    43    17    18   ar
    44    18    19   ar
    45    19    20    1
    46    20    21    1
    47    20    22    1
    48    20    23    1
    49    19    14   ar
    50    13     8    1
    51     7     1   ar
    52    51    43   ar
    53    41    36   ar
    54    51    46   ar
    55    29    30    1
    56    45    52    1
    57    34    35    1
@<TRIPOS>MOLECULE
*****
 52 57 0 0 0
SMALL
GASTEIGER

@<TRIPOS>ATOM
      1 C         -62.7199  -42.7688  -24.3503 C.ar    1  UNL1        0.0502
      2 C         -62.9535  -42.6161  -25.7247 C.ar    1  UNL1        0.0148
      3 C         -62.8389  -43.7086  -26.5877 C.ar    1  UNL1        0.0080
      4 C         -62.4980  -44.9774  -26.0909 C.ar    1  UNL1        0.0808
      5 C         -62.2516  -45.1298  -24.7130 C.ar    1  UNL1        0.1457
      6 F         -61.8524  -46.3222  -24.2025 F       1  UNL1       -0.2040
      7 C         -62.3666  -44.0333  -23.8526 C.ar    1  UNL1        0.0443
      8 N         -63.3558  -39.8210  -21.4305 N.pl3   1  UNL1       -0.3041
      9 C         -64.4674  -40.2025  -22.3095 C.3     1  UNL1        0.1122
     10 C         -63.9271  -40.6684  -23.6619 C.3     1  UNL1        0.1122
     11 N         -62.8435  -41.6393  -23.4657 N.pl3   1  UNL1       -0.3040
     12 C         -61.7322  -41.2580  -22.5856 C.3     1  UNL1        0.1122
     13 C         -62.2729  -40.7921  -21.2335 C.3     1  UNL1        0.1122
     14 C         -63.7202  -36.4633  -18.8286 C.ar    1  UNL1        0.0112
     15 C         -64.4965  -37.6176  -18.6300 C.ar    1  UNL1       -0.0006
     16 C         -64.3803  -38.7152  -19.4797 C.ar    1  UNL1        0.0143
     17 C         -63.4775  -38.6899  -20.5477 C.ar    1  UNL1        0.0479
     18 C         -62.6912  -37.5485  -20.7552 C.ar    1  UNL1        0.0181
     19 C         -62.7909  -36.4255  -19.9069 C.ar    1  UNL1        0.0710
     20 C         -61.9037  -35.2199  -20.1599 C.3     1  UNL1        0.4184
     21 F         -60.7500  -35.5608  -20.8456 F       1  UNL1       -0.1659
     22 F         -61.5290  -34.6557  -18.9539 F       1  UNL1       -0.1659
     23 F         -62.5856  -34.2846  -20.9164 F       1  UNL1       -0.1659
     24 C         -63.9198  -35.3155  -17.8572 C.3     1  UNL1        0.1686
     25 C         -65.8082  -34.5577  -18.9671 C.3     1  UNL1        0.1746
     26 O         -65.2923  -34.9951  -17.7287 O.3     1  UNL1       -0.3463
     27 C         -62.3958  -46.1201  -27.0235 C.2     1  UNL1        0.2483
     28 O         -61.3017  -46.7415  -27.1157 O.2     1  UNL1       -0.2701
     29 N         -63.5072  -46.4917  -27.8568 N.am    1  UNL1       -0.2945
     30 H         -64.3367  -45.8565  -27.8875 H       1  UNL1        0.1501
     31 C         -63.4107  -47.5382  -28.8816 C.3     1  UNL1        0.1535
     32 C         -63.6815  -48.8872  -28.2698 C.2     1  UNL1        0.2443
     33 O         -64.1461  -49.8164  -28.9859 O.2     1  UNL1       -0.2730
     34 N         -63.3174  -49.1376  -26.9028 N.am    1  UNL1       -0.2825
     35 H         -62.6487  -48.4753  -26.4479 H       1  UNL1        0.1549
     36 C         -63.7267  -50.2988  -26.1602 C.ar    1  UNL1        0.0535
     37 C         -64.0447  -51.4789  -26.8465 C.ar    1  UNL1        0.0353
     38 C         -64.4209  -52.6167  -26.1287 C.ar    1  UNL1        0.1002
     39 N         -64.4622  -52.5835  -24.7706 N.ar    1  UNL1       -0.2422
     40 C         -64.1405  -51.4603  -24.0761 C.ar    1  UNL1        0.1002
     41 C         -63.7601  -50.3000  -24.7550 C.ar    1  UNL1        0.0353
     42 C         -64.4097  -47.2675  -30.0188 C.3     1  UNL1        0.0569
     43 C         -64.7392  -45.8062  -30.1178 C.ar    1  UNL1       -0.0017
     44 C         -65.9466  -45.2048  -29.7733 C.ar    1  UNL1        0.0681
     45 N         -65.8489  -43.8594  -29.8716 N.ar    1  UNL1       -0.3523
     46 C         -64.5879  -43.6063  -30.2627 C.ar    1  UNL1        0.0563
     47 C         -64.0010  -42.3582  -30.4663 C.ar    1  UNL1        0.0170
     48 C         -62.6455  -42.3225  -30.8423 C.ar    1  UNL1        0.0015
     49 C         -61.9141  -43.5210  -30.9983 C.ar    1  UNL1        0.0001
     50 C         -62.5316  -44.7664  -30.7820 C.ar    1  UNL1        0.0012
     51 C         -63.8784  -44.7695  -30.4190 C.ar    1  UNL1        0.0131
     52 H         -66.5962  -43.1616  -29.6595 H       1  UNL1        0.1660
@<TRIPOS>BOND
     1    25    26    1
     2    26    24    1
     3    24    14    1
     4    14    15   ar
     5    15    16   ar
     6    16    17   ar
     7    17     8    1
     8     8     9    1
     9     9    10    1
    10    10    11    1
    11    11     1    1
    12     1     2   ar
    13     2     3   ar
    14     3     4   ar
    15     4    27    1
    16    27    28    2
    17    27    29   am
    18    29    31    1
    19    31    42    1
    20    42    43    1
    21    43    44   ar
    22    44    45   ar
    23    45    46   ar
    24    46    47   ar
    25    47    48   ar
    26    48    49   ar
    27    49    50   ar
    28    50    51   ar
    29    31    32    1
    30    32    33    2
    31    32    34   am
    32    34    36    1
    33    36    37   ar
    34    37    38   ar
    35    38    39   ar
    36    39    40   ar
    37    40    41   ar
    38     4     5   ar
    39     5     6    1
    40     5     7   ar
    41    11    12    1
    42    12    13    1
    43    17    18   ar
    44    18    19   ar
    45    19    20    1
    46    20    21    1
    47    20    22    1
    48    20    23    1
    49    19    14   ar
    50    13     8    1
    51     7     1   ar
    52    51    43   ar
    53    41    36   ar
    54    51    46   ar
    55    29    30    1
    56    45    52    1
    57    34    35    1
