@<TRIPOS>MOLECULE
*****
 39 43 0 0 0
SMALL
GASTEIGER

@<TRIPOS>ATOM
      1 C          -8.1722   -5.9203   30.3335 C.ar    1  UNL1        0.1317
      2 C          -8.3024   -4.5736   29.9539 C.ar    1  UNL1        0.0286
      3 C          -9.5731   -3.9754   29.8904 C.ar    1  UNL1        0.0777
      4 C         -10.7129   -4.7337   30.1926 C.ar    1  UNL1        0.2963
      5 N         -10.5518   -6.0438   30.5284 N.ar    1  UNL1       -0.1314
      6 C         -11.4556   -6.9951   30.8457 C.ar    1  UNL1        0.2244
      7 C         -10.7279   -8.1546   31.1260 C.ar    1  UNL1        0.1211
      8 N          -9.4051   -7.9303   30.9660 N.ar    1  UNL1       -0.2945
      9 C          -9.3442   -6.6335   30.6068 C.ar    1  UNL1        0.3119
     10 H          -8.6616   -8.5648   31.0841 H       1  UNL1        0.1718
     11 N          -6.0991   -8.8677   31.2867 N.3     1  UNL1       -0.2647
     12 C          -5.3890   -7.7599   31.9597 C.3     1  UNL1        0.0941
     13 C          -6.0690   -6.4209   31.6344 C.3     1  UNL1        0.1084
     14 N          -6.8821   -6.5438   30.4196 N.pl3   1  UNL1       -0.2988
     15 C          -6.3736   -7.3554   29.3116 C.3     1  UNL1        0.1084
     16 C          -5.9515   -8.7514   29.8192 C.3     1  UNL1        0.0941
     17 C          -5.6167  -10.1779   31.7636 C.3     1  UNL1        0.1199
     18 C          -8.2477  -11.8055   33.5649 C.ar    1  UNL1        0.1165
     19 N          -7.1255  -11.0523   33.5730 N.ar    1  UNL1       -0.2344
     20 C          -6.7727  -10.9841   32.2733 C.ar    1  UNL1        0.0878
     21 C          -7.6918  -11.6753   31.5089 C.ar    1  UNL1        0.0499
     22 C          -7.7286  -11.7736   30.0173 C.3     1  UNL1        0.0511
     23 N          -8.6243  -12.1859   32.3275 N.ar    1  UNL1       -0.3443
     24 H          -9.4692  -12.7388   32.0625 H       1  UNL1        0.1668
     25 C          -8.1735  -12.8154   35.8318 C.3     1  UNL1        0.0084
     26 C          -9.0401  -12.1069   34.7981 C.3     1  UNL1        0.0637
     27 C         -11.2486   -9.4496   31.5741 C.ar    1  UNL1        0.0212
     28 C         -11.6326   -9.6295   32.9046 C.ar    1  UNL1        0.0013
     29 C         -12.1055  -10.8694   33.3411 C.ar    1  UNL1       -0.0042
     30 C         -12.1870  -11.9704   32.4547 C.ar    1  UNL1       -0.0228
     31 C         -11.7861  -11.7657   31.1148 C.ar    1  UNL1       -0.0042
     32 C         -11.3174  -10.5232   30.6836 C.ar    1  UNL1        0.0013
     33 C         -12.6962  -13.3587   32.8937 C.3     1  UNL1        0.0189
     34 C         -14.2246  -13.4314   32.6889 C.3     1  UNL1        0.0044
     35 C         -12.0131  -14.4539   32.0458 C.3     1  UNL1        0.0044
     36 C         -12.4037  -13.6695   34.3813 C.3     1  UNL1        0.0044
     37 C         -12.9498   -6.7609   30.9885 C.3     1  UNL1        0.0889
     38 C         -13.2724   -6.1951   32.3733 C.3     1  UNL1        0.0111
     39 C         -13.7820   -8.0156   30.6962 C.3     1  UNL1        0.0111
@<TRIPOS>BOND
     1    25    26    1
     2    26    18    1
     3    18    19   ar
     4    19    20   ar
     5    20    17    1
     6    17    11    1
     7    11    12    1
     8    12    13    1
     9    13    14    1
    10    14     1    1
    11     1     2   ar
    12     2     3   ar
    13     3     4   ar
    14     4     5   ar
    15     5     6   ar
    16     6    37    1
    17    37    38    1
    18    37    39    1
    19     6     7   ar
    20     7    27    1
    21    27    28   ar
    22    28    29   ar
    23    29    30   ar
    24    30    33    1
    25    33    34    1
    26    33    35    1
    27    33    36    1
    28    30    31   ar
    29    31    32   ar
    30     7     8   ar
    31     8     9   ar
    32    14    15    1
    33    15    16    1
    34    20    21   ar
    35    21    22    1
    36    21    23   ar
    37    23    18   ar
    38    16    11    1
    39     9     1   ar
    40     9     5   ar
    41    32    27   ar
    42    23    24    1
    43     8    10    1
@<TRIPOS>MOLECULE
*****
 39 43 0 0 0
SMALL
GASTEIGER

@<TRIPOS>ATOM
      1 C          -7.0841  -12.1750   29.3611 C.ar    1  UNL1        0.1317
      2 C          -8.2416  -11.9478   30.1248 C.ar    1  UNL1        0.0286
      3 C          -9.3899  -12.7328   29.9208 C.ar    1  UNL1        0.0777
      4 C          -9.3805  -13.7344   28.9398 C.ar    1  UNL1        0.2963
      5 N          -8.2513  -13.9074   28.1983 N.ar    1  UNL1       -0.1314
      6 C          -7.9721  -14.7675   27.1960 C.ar    1  UNL1        0.2244
      7 C          -6.6503  -14.5184   26.8173 C.ar    1  UNL1        0.1211
      8 N          -6.1306  -13.5133   27.5556 N.ar    1  UNL1       -0.2945
      9 C          -7.1370  -13.1753   28.3848 C.ar    1  UNL1        0.3119
     10 H          -5.2294  -13.1208   27.5006 H       1  UNL1        0.1718
     11 N          -5.5110   -8.8961   30.1783 N.3     1  UNL1       -0.2647
     12 C          -4.8091   -9.2738   28.9338 C.3     1  UNL1        0.0941
     13 C          -5.2844  -10.6550   28.4570 C.3     1  UNL1        0.1084
     14 N          -5.8970  -11.3944   29.5661 N.pl3   1  UNL1       -0.2988
     15 C          -5.3018  -11.2833   30.8997 C.3     1  UNL1        0.1084
     16 C          -5.1151   -9.7988   31.2815 C.3     1  UNL1        0.0941
     17 C          -5.2513   -7.4869   30.5302 C.3     1  UNL1        0.1199
     18 C          -8.3836   -5.7579   30.4094 C.ar    1  UNL1        0.1165
     19 N          -7.2681   -6.1893   29.7799 N.ar    1  UNL1       -0.2344
     20 C          -6.5517   -6.7779   30.7588 C.ar    1  UNL1        0.0878
     21 C          -7.2510   -6.7089   31.9476 C.ar    1  UNL1        0.0499
     22 C          -6.8615   -7.3171   33.2568 C.3     1  UNL1        0.0511
     23 N          -8.4092   -6.0705   31.7206 N.ar    1  UNL1       -0.3443
     24 H          -9.1734   -5.8772   32.4049 H       1  UNL1        0.1668
     25 C         -10.8311   -5.3407   30.4227 C.3     1  UNL1        0.0084
     26 C          -9.5150   -5.0829   29.6996 C.3     1  UNL1        0.0637
     27 C          -5.8618  -15.2289   25.8060 C.ar    1  UNL1        0.0212
     28 C          -5.9577  -14.8685   24.4603 C.ar    1  UNL1        0.0013
     29 C          -5.2269  -15.5597   23.4909 C.ar    1  UNL1       -0.0042
     30 C          -4.3929  -16.6472   23.8462 C.ar    1  UNL1       -0.0228
     31 C          -4.3176  -16.9977   25.2135 C.ar    1  UNL1       -0.0042
     32 C          -5.0478  -16.3010   26.1783 C.ar    1  UNL1        0.0013
     33 C          -3.5734  -17.4433   22.8097 C.3     1  UNL1        0.0189
     34 C          -4.3294  -18.7390   22.4457 C.3     1  UNL1        0.0044
     35 C          -3.3769  -16.5902   21.5375 C.3     1  UNL1        0.0044
     36 C          -2.1700  -17.8440   23.3246 C.3     1  UNL1        0.0044
     37 C          -8.9035  -15.8635   26.7069 C.3     1  UNL1        0.0889
     38 C          -8.4514  -17.2257   27.2377 C.3     1  UNL1        0.0111
     39 C          -9.0504  -15.8859   25.1803 C.3     1  UNL1        0.0111
@<TRIPOS>BOND
     1    25    26    1
     2    26    18    1
     3    18    19   ar
     4    19    20   ar
     5    20    17    1
     6    17    11    1
     7    11    12    1
     8    12    13    1
     9    13    14    1
    10    14     1    1
    11     1     2   ar
    12     2     3   ar
    13     3     4   ar
    14     4     5   ar
    15     5     6   ar
    16     6    37    1
    17    37    38    1
    18    37    39    1
    19     6     7   ar
    20     7    27    1
    21    27    28   ar
    22    28    29   ar
    23    29    30   ar
    24    30    33    1
    25    33    34    1
    26    33    35    1
    27    33    36    1
    28    30    31   ar
    29    31    32   ar
    30     7     8   ar
    31     8     9   ar
    32    14    15    1
    33    15    16    1
    34    20    21   ar
    35    21    22    1
    36    21    23   ar
    37    23    18   ar
    38    16    11    1
    39     9     1   ar
    40     9     5   ar
    41    32    27   ar
    42    23    24    1
    43     8    10    1
@<TRIPOS>MOLECULE
*****
 39 43 0 0 0
SMALL
GASTEIGER

@<TRIPOS>ATOM
      1 C          -8.2906  -12.3048   29.6179 C.ar    1  UNL1        0.1317
      2 C          -7.2301  -11.5059   30.0779 C.ar    1  UNL1        0.0286
      3 C          -5.9333  -11.6868   29.5657 C.ar    1  UNL1        0.0777
      4 C          -5.6994  -12.6799   28.6041 C.ar    1  UNL1        0.2963
      5 N          -6.7447  -13.4552   28.2027 N.ar    1  UNL1       -0.1314
      6 C          -6.8042  -14.4755   27.3208 C.ar    1  UNL1        0.2244
      7 C          -8.1386  -14.8885   27.2828 C.ar    1  UNL1        0.1211
      8 N          -8.8835  -14.1529   28.1370 N.ar    1  UNL1       -0.2945
      9 C          -7.9963  -13.2915   28.6710 C.ar    1  UNL1        0.3119
     10 H          -9.8470  -14.2287   28.3246 H       1  UNL1        0.1718
     11 N         -10.7671  -10.1996   31.4423 N.3     1  UNL1       -0.2647
     12 C         -10.8964  -11.4988   32.1349 C.3     1  UNL1        0.0941
     13 C          -9.9789  -12.5418   31.4780 C.3     1  UNL1        0.1084
     14 N          -9.6242  -12.1240   30.1172 N.pl3   1  UNL1       -0.2988
     15 C         -10.6449  -11.4743   29.2920 C.3     1  UNL1        0.1084
     16 C         -11.2913  -10.3026   30.0626 C.3     1  UNL1        0.0941
     17 C         -11.4523   -9.1271   32.1887 C.3     1  UNL1        0.1199
     18 C         -10.2902   -6.2187   30.4547 C.ar    1  UNL1        0.1165
     19 N         -10.0198   -7.3889   31.0745 N.ar    1  UNL1       -0.2344
     20 C         -11.2255   -7.8137   31.5034 C.ar    1  UNL1        0.0878
     21 C         -12.1962   -6.9092   31.1208 C.ar    1  UNL1        0.0499
     22 C         -13.6734   -7.0405   31.3117 C.3     1  UNL1        0.0511
     23 N         -11.6021   -5.9081   30.4534 N.ar    1  UNL1       -0.3443
     24 H         -12.0584   -5.0802   30.0106 H       1  UNL1        0.1668
     25 C          -7.8952   -5.5644   30.4439 C.3     1  UNL1        0.0084
     26 C          -9.2473   -5.3996   29.7612 C.3     1  UNL1        0.0637
     27 C          -8.7275  -15.9304   26.4361 C.ar    1  UNL1        0.0212
     28 C          -8.9284  -17.2161   26.9425 C.ar    1  UNL1        0.0013
     29 C          -9.4660  -18.2181   26.1309 C.ar    1  UNL1       -0.0042
     30 C          -9.7989  -17.9596   24.7793 C.ar    1  UNL1       -0.0228
     31 C          -9.5800  -16.6525   24.2877 C.ar    1  UNL1       -0.0042
     32 C          -9.0455  -15.6543   25.1045 C.ar    1  UNL1        0.0013
     33 C         -10.3882  -19.0360   23.8448 C.3     1  UNL1        0.0189
     34 C         -10.2486  -20.4224   24.5091 C.3     1  UNL1        0.0044
     35 C         -11.8819  -18.7391   23.5881 C.3     1  UNL1        0.0044
     36 C          -9.6813  -19.0980   22.4694 C.3     1  UNL1        0.0044
     37 C          -5.6441  -14.9514   26.4631 C.3     1  UNL1        0.0889
     38 C          -5.9422  -14.7137   24.9811 C.3     1  UNL1        0.0111
     39 C          -5.2693  -16.4157   26.7238 C.3     1  UNL1        0.0111
@<TRIPOS>BOND
     1    25    26    1
     2    26    18    1
     3    18    19   ar
     4    19    20   ar
     5    20    17    1
     6    17    11    1
     7    11    12    1
     8    12    13    1
     9    13    14    1
    10    14     1    1
    11     1     2   ar
    12     2     3   ar
    13     3     4   ar
    14     4     5   ar
    15     5     6   ar
    16     6    37    1
    17    37    38    1
    18    37    39    1
    19     6     7   ar
    20     7    27    1
    21    27    28   ar
    22    28    29   ar
    23    29    30   ar
    24    30    33    1
    25    33    34    1
    26    33    35    1
    27    33    36    1
    28    30    31   ar
    29    31    32   ar
    30     7     8   ar
    31     8     9   ar
    32    14    15    1
    33    15    16    1
    34    20    21   ar
    35    21    22    1
    36    21    23   ar
    37    23    18   ar
    38    16    11    1
    39     9     1   ar
    40     9     5   ar
    41    32    27   ar
    42    23    24    1
    43     8    10    1
@<TRIPOS>MOLECULE
*****
 39 43 0 0 0
SMALL
GASTEIGER

@<TRIPOS>ATOM
      1 C          -8.0539  -12.0587   29.3859 C.ar    1  UNL1        0.1317
      2 C          -6.9616  -11.3103   29.8564 C.ar    1  UNL1        0.0286
      3 C          -5.6567  -11.6206   29.4352 C.ar    1  UNL1        0.0777
      4 C          -5.4479  -12.6917   28.5549 C.ar    1  UNL1        0.2963
      5 N          -6.5265  -13.4137   28.1423 N.ar    1  UNL1       -0.1314
      6 C          -6.6164  -14.4848   27.3256 C.ar    1  UNL1        0.2244
      7 C          -7.9746  -14.8002   27.2345 C.ar    1  UNL1        0.1211
      8 N          -8.7060  -13.9552   27.9937 N.ar    1  UNL1       -0.2945
      9 C          -7.7854  -13.1268   28.5235 C.ar    1  UNL1        0.3119
     10 H          -9.6813  -13.9468   28.1279 H       1  UNL1        0.1718
     11 N         -10.5458  -11.6023   32.1202 N.3     1  UNL1       -0.2647
     12 C         -11.2484  -12.5351   31.2144 C.3     1  UNL1        0.0941
     13 C         -10.3917  -12.8084   29.9685 C.3     1  UNL1        0.1084
     14 N          -9.3949  -11.7466   29.7921 N.pl3   1  UNL1       -0.2988
     15 C          -9.7801  -10.3642   30.0845 C.3     1  UNL1        0.1084
     16 C         -10.4218  -10.2715   31.4860 C.3     1  UNL1        0.0941
     17 C         -11.2326  -11.5047   33.4224 C.3     1  UNL1        0.1199
     18 C         -12.6542  -14.7373   34.0096 C.ar    1  UNL1        0.1165
     19 N         -12.7093  -13.5376   33.3896 N.ar    1  UNL1       -0.2344
     20 C         -11.6432  -12.8721   33.8780 C.ar    1  UNL1        0.0878
     21 C         -10.9586  -13.6827   34.7618 C.ar    1  UNL1        0.0499
     22 C          -9.6713  -13.3710   35.4559 C.3     1  UNL1        0.0511
     23 N         -11.5964  -14.8609   34.8363 N.ar    1  UNL1       -0.3443
     24 H         -11.3216  -15.6985   35.3954 H       1  UNL1        0.1668
     25 C         -13.2398  -16.5820   32.4544 C.3     1  UNL1        0.0084
     26 C         -13.6200  -15.8466   33.7335 C.3     1  UNL1        0.0637
     27 C          -8.5951  -15.8514   26.4226 C.ar    1  UNL1        0.0212
     28 C          -8.9469  -15.5976   25.0953 C.ar    1  UNL1        0.0013
     29 C          -9.5613  -16.5889   24.3262 C.ar    1  UNL1       -0.0042
     30 C          -9.8573  -17.8589   24.8776 C.ar    1  UNL1       -0.0228
     31 C          -9.4980  -18.0897   26.2250 C.ar    1  UNL1       -0.0042
     32 C          -8.8811  -17.0961   26.9877 C.ar    1  UNL1        0.0013
     33 C         -10.5403  -18.9808   24.0687 C.3     1  UNL1        0.0189
     34 C         -10.1977  -20.3476   24.6993 C.3     1  UNL1        0.0044
     35 C         -12.0710  -18.7767   24.0886 C.3     1  UNL1        0.0044
     36 C         -10.0934  -19.0188   22.5874 C.3     1  UNL1        0.0044
     37 C          -5.4513  -15.1022   26.5710 C.3     1  UNL1        0.0889
     38 C          -5.5893  -14.8426   25.0693 C.3     1  UNL1        0.0111
     39 C          -5.2778  -16.5985   26.8599 C.3     1  UNL1        0.0111
@<TRIPOS>BOND
     1    25    26    1
     2    26    18    1
     3    18    19   ar
     4    19    20   ar
     5    20    17    1
     6    17    11    1
     7    11    12    1
     8    12    13    1
     9    13    14    1
    10    14     1    1
    11     1     2   ar
    12     2     3   ar
    13     3     4   ar
    14     4     5   ar
    15     5     6   ar
    16     6    37    1
    17    37    38    1
    18    37    39    1
    19     6     7   ar
    20     7    27    1
    21    27    28   ar
    22    28    29   ar
    23    29    30   ar
    24    30    33    1
    25    33    34    1
    26    33    35    1
    27    33    36    1
    28    30    31   ar
    29    31    32   ar
    30     7     8   ar
    31     8     9   ar
    32    14    15    1
    33    15    16    1
    34    20    21   ar
    35    21    22    1
    36    21    23   ar
    37    23    18   ar
    38    16    11    1
    39     9     1   ar
    40     9     5   ar
    41    32    27   ar
    42    23    24    1
    43     8    10    1
@<TRIPOS>MOLECULE
*****
 39 43 0 0 0
SMALL
GASTEIGER

@<TRIPOS>ATOM
      1 C          -8.4963   -5.9354   30.7059 C.ar    1  UNL1        0.1317
      2 C          -8.8369   -4.6518   30.2466 C.ar    1  UNL1        0.0286
      3 C         -10.1824   -4.2452   30.2140 C.ar    1  UNL1        0.0777
      4 C         -11.1857   -5.1330   30.6273 C.ar    1  UNL1        0.2963
      5 N         -10.8218   -6.3793   31.0387 N.ar    1  UNL1       -0.1314
      6 C         -11.5631   -7.4231   31.4669 C.ar    1  UNL1        0.2244
      7 C         -10.6634   -8.4447   31.7821 C.ar    1  UNL1        0.1211
      8 N          -9.3955   -8.0481   31.5354 N.ar    1  UNL1       -0.2945
      9 C          -9.5391   -6.7852   31.0892 C.ar    1  UNL1        0.3119
     10 H          -8.5635   -8.5609   31.6537 H       1  UNL1        0.1718
     11 N          -6.0126   -8.7111   30.8478 N.3     1  UNL1       -0.2647
     12 C          -5.5849   -7.8560   31.9748 C.3     1  UNL1        0.0941
     13 C          -6.4670   -6.6001   32.0500 C.3     1  UNL1        0.1084
     14 N          -7.1270   -6.3624   30.7616 N.pl3   1  UNL1       -0.2988
     15 C          -6.3767   -6.6153   29.5295 C.3     1  UNL1        0.1084
     16 C          -5.7533   -8.0276   29.5616 C.3     1  UNL1        0.0941
     17 C          -5.3432  -10.0252   30.8918 C.3     1  UNL1        0.1199
     18 C          -7.9163  -12.2757   29.8285 C.ar    1  UNL1        0.1165
     19 N          -7.4571  -11.3736   30.7241 N.ar    1  UNL1       -0.2344
     20 C          -6.2277  -11.0611   30.2668 C.ar    1  UNL1        0.0878
     21 C          -5.9771  -11.7599   29.1024 C.ar    1  UNL1        0.0499
     22 C          -4.7743  -11.6397   28.2224 C.3     1  UNL1        0.0511
     23 N          -7.0481  -12.5196   28.8262 N.ar    1  UNL1       -0.3443
     24 H          -7.1880  -13.1464   28.0032 H       1  UNL1        0.1668
     25 C         -10.3400  -11.8386   29.5144 C.3     1  UNL1        0.0084
     26 C          -9.2872  -12.8717   29.8964 C.3     1  UNL1        0.0637
     27 C         -10.9705   -9.7643   32.3420 C.ar    1  UNL1        0.0212
     28 C          -9.9972  -10.4686   33.0539 C.ar    1  UNL1        0.0013
     29 C         -10.2783  -11.7371   33.5673 C.ar    1  UNL1       -0.0042
     30 C         -11.5417  -12.3420   33.3617 C.ar    1  UNL1       -0.0228
     31 C         -12.5080  -11.6126   32.6321 C.ar    1  UNL1       -0.0042
     32 C         -12.2224  -10.3437   32.1243 C.ar    1  UNL1        0.0013
     33 C         -11.8942  -13.7424   33.9038 C.3     1  UNL1        0.0189
     34 C         -12.0321  -14.7281   32.7238 C.3     1  UNL1        0.0044
     35 C         -10.7750  -14.2294   34.8500 C.3     1  UNL1        0.0044
     36 C         -13.2219  -13.7686   34.6986 C.3     1  UNL1        0.0044
     37 C         -13.0675   -7.3926   31.6759 C.3     1  UNL1        0.0889
     38 C         -13.7875   -7.1614   30.3455 C.3     1  UNL1        0.0111
     39 C         -13.5042   -6.3644   32.7269 C.3     1  UNL1        0.0111
@<TRIPOS>BOND
     1    25    26    1
     2    26    18    1
     3    18    19   ar
     4    19    20   ar
     5    20    17    1
     6    17    11    1
     7    11    12    1
     8    12    13    1
     9    13    14    1
    10    14     1    1
    11     1     2   ar
    12     2     3   ar
    13     3     4   ar
    14     4     5   ar
    15     5     6   ar
    16     6    37    1
    17    37    38    1
    18    37    39    1
    19     6     7   ar
    20     7    27    1
    21    27    28   ar
    22    28    29   ar
    23    29    30   ar
    24    30    33    1
    25    33    34    1
    26    33    35    1
    27    33    36    1
    28    30    31   ar
    29    31    32   ar
    30     7     8   ar
    31     8     9   ar
    32    14    15    1
    33    15    16    1
    34    20    21   ar
    35    21    22    1
    36    21    23   ar
    37    23    18   ar
    38    16    11    1
    39     9     1   ar
    40     9     5   ar
    41    32    27   ar
    42    23    24    1
    43     8    10    1
@<TRIPOS>MOLECULE
*****
 39 43 0 0 0
SMALL
GASTEIGER

@<TRIPOS>ATOM
      1 C          -5.5088   -9.0810   29.7144 C.ar    1  UNL1        0.1317
      2 C          -4.5143   -9.1751   28.7261 C.ar    1  UNL1        0.0286
      3 C          -4.4139  -10.3297   27.9302 C.ar    1  UNL1        0.0777
      4 C          -5.3016  -11.3949   28.1377 C.ar    1  UNL1        0.2963
      5 N          -6.2341  -11.2812   29.1238 N.ar    1  UNL1       -0.1314
      6 C          -7.1863  -12.1397   29.5465 C.ar    1  UNL1        0.2244
      7 C          -7.8748  -11.4918   30.5754 C.ar    1  UNL1        0.1211
      8 N          -7.3472  -10.2679   30.7971 N.ar    1  UNL1       -0.2945
      9 C          -6.3556  -10.1806   29.8895 C.ar    1  UNL1        0.3119
     10 H          -7.6223   -9.5982   31.4642 H       1  UNL1        0.1718
     11 N          -7.6778   -6.4396   31.2017 N.3     1  UNL1       -0.2647
     12 C          -6.6139   -5.6400   30.5591 C.3     1  UNL1        0.0941
     13 C          -5.5651   -6.5673   29.9255 C.3     1  UNL1        0.1084
     14 N          -5.6370   -7.9039   30.5258 N.pl3   1  UNL1       -0.2988
     15 C          -5.8903   -8.0166   31.9640 C.3     1  UNL1        0.1084
     16 C          -7.1295   -7.1835   32.3571 C.3     1  UNL1        0.0941
     17 C          -8.8108   -5.5880   31.6116 C.3     1  UNL1        0.1199
     18 C         -11.7654   -7.4894   30.9255 C.ar    1  UNL1        0.1165
     19 N         -10.5682   -7.3829   31.5436 N.ar    1  UNL1       -0.2344
     20 C         -10.0942   -6.1913   31.1270 C.ar    1  UNL1        0.0878
     21 C         -11.0151   -5.5965   30.2873 C.ar    1  UNL1        0.0499
     22 C         -10.9287   -4.2333   29.6789 C.3     1  UNL1        0.0511
     23 N         -12.0708   -6.4162   30.1688 N.ar    1  UNL1       -0.3443
     24 H         -12.9472   -6.2500   29.6265 H       1  UNL1        0.1668
     25 C         -12.2315   -9.4982   32.3080 C.3     1  UNL1        0.0084
     26 C         -12.6954   -8.6428   31.1357 C.3     1  UNL1        0.0637
     27 C          -9.0353  -11.9854   31.3230 C.ar    1  UNL1        0.0212
     28 C          -9.0155  -12.0025   32.7191 C.ar    1  UNL1        0.0013
     29 C         -10.1096  -12.4956   33.4343 C.ar    1  UNL1       -0.0042
     30 C         -11.2480  -13.0044   32.7639 C.ar    1  UNL1       -0.0228
     31 C         -11.2417  -12.9830   31.3505 C.ar    1  UNL1       -0.0042
     32 C         -10.1467  -12.4859   30.6412 C.ar    1  UNL1        0.0013
     33 C         -12.4754  -13.5647   33.5116 C.3     1  UNL1        0.0189
     34 C         -13.4845  -12.4243   33.7651 C.3     1  UNL1        0.0044
     35 C         -13.1468  -14.6624   32.6576 C.3     1  UNL1        0.0044
     36 C         -12.1174  -14.1916   34.8805 C.3     1  UNL1        0.0044
     37 C          -7.4945  -13.4810   28.9031 C.3     1  UNL1        0.0889
     38 C          -6.4833  -13.7879   27.7964 C.3     1  UNL1        0.0111
     39 C          -8.9330  -13.5764   28.3798 C.3     1  UNL1        0.0111
@<TRIPOS>BOND
     1    25    26    1
     2    26    18    1
     3    18    19   ar
     4    19    20   ar
     5    20    17    1
     6    17    11    1
     7    11    12    1
     8    12    13    1
     9    13    14    1
    10    14     1    1
    11     1     2   ar
    12     2     3   ar
    13     3     4   ar
    14     4     5   ar
    15     5     6   ar
    16     6    37    1
    17    37    38    1
    18    37    39    1
    19     6     7   ar
    20     7    27    1
    21    27    28   ar
    22    28    29   ar
    23    29    30   ar
    24    30    33    1
    25    33    34    1
    26    33    35    1
    27    33    36    1
    28    30    31   ar
    29    31    32   ar
    30     7     8   ar
    31     8     9   ar
    32    14    15    1
    33    15    16    1
    34    20    21   ar
    35    21    22    1
    36    21    23   ar
    37    23    18   ar
    38    16    11    1
    39     9     1   ar
    40     9     5   ar
    41    32    27   ar
    42    23    24    1
    43     8    10    1
@<TRIPOS>MOLECULE
*****
 39 43 0 0 0
SMALL
GASTEIGER

@<TRIPOS>ATOM
      1 C          -7.8644   -7.0380   30.4455 C.ar    1  UNL1        0.1317
      2 C          -7.9217   -5.6680   30.1384 C.ar    1  UNL1        0.0286
      3 C          -9.1247   -4.9571   30.2938 C.ar    1  UNL1        0.0777
      4 C         -10.2727   -5.6256   30.7420 C.ar    1  UNL1        0.2963
      5 N         -10.1881   -6.9597   31.0023 N.ar    1  UNL1       -0.1314
      6 C         -11.1199   -7.8418   31.4221 C.ar    1  UNL1        0.2244
      7 C         -10.4718   -9.0736   31.5451 C.ar    1  UNL1        0.1211
      8 N          -9.1731   -8.9598   31.1901 N.ar    1  UNL1       -0.2945
      9 C          -9.0441   -7.6572   30.8718 C.ar    1  UNL1        0.3119
     10 H          -8.4841   -9.6626   31.1690 H       1  UNL1        0.1718
     11 N          -6.0916  -10.3167   30.4187 N.3     1  UNL1       -0.2647
     12 C          -5.2805   -9.5348   31.3753 C.3     1  UNL1        0.0941
     13 C          -5.8258   -8.1023   31.4837 C.3     1  UNL1        0.1084
     14 N          -6.6413   -7.7768   30.3086 N.pl3   1  UNL1       -0.2988
     15 C          -6.2088   -8.2612   28.9958 C.3     1  UNL1        0.1084
     16 C          -5.9266   -9.7784   29.0506 C.3     1  UNL1        0.0941
     17 C          -5.7409  -11.7490   30.4684 C.3     1  UNL1        0.1199
     18 C          -7.2189  -13.8846   28.0045 C.ar    1  UNL1        0.1165
     19 N          -6.1117  -13.3772   28.5906 N.ar    1  UNL1       -0.2344
     20 C          -6.5970  -12.5100   29.5019 C.ar    1  UNL1        0.0878
     21 C          -7.9773  -12.5241   29.4631 C.ar    1  UNL1        0.0499
     22 C          -8.9102  -11.7832   30.3667 C.3     1  UNL1        0.0511
     23 N          -8.3650  -13.3980   28.5215 N.ar    1  UNL1       -0.3443
     24 H          -9.3412  -13.6604   28.2609 H       1  UNL1        0.1668
     25 C          -8.1639  -16.0603   27.2715 C.3     1  UNL1        0.0084
     26 C          -7.1739  -14.9471   26.9517 C.3     1  UNL1        0.0637
     27 C         -11.0396  -10.3380   32.0225 C.ar    1  UNL1        0.0212
     28 C         -10.5045  -10.9670   33.1486 C.ar    1  UNL1        0.0013
     29 C         -11.0267  -12.1847   33.5916 C.ar    1  UNL1       -0.0042
     30 C         -12.0905  -12.8146   32.9017 C.ar    1  UNL1       -0.0228
     31 C         -12.6107  -12.1621   31.7608 C.ar    1  UNL1       -0.0042
     32 C         -12.0869  -10.9436   31.3247 C.ar    1  UNL1        0.0013
     33 C         -12.6940  -14.1615   33.3501 C.3     1  UNL1        0.0189
     34 C         -14.2229  -14.1327   33.1388 C.3     1  UNL1        0.0044
     35 C         -12.0829  -15.3077   32.5148 C.3     1  UNL1        0.0044
     36 C         -12.4293  -14.4780   34.8417 C.3     1  UNL1        0.0044
     37 C         -12.5463   -7.4835   31.8029 C.3     1  UNL1        0.0889
     38 C         -13.4468   -7.4871   30.5657 C.3     1  UNL1        0.0111
     39 C         -12.6471   -6.1514   32.5564 C.3     1  UNL1        0.0111
@<TRIPOS>BOND
     1    25    26    1
     2    26    18    1
     3    18    19   ar
     4    19    20   ar
     5    20    17    1
     6    17    11    1
     7    11    12    1
     8    12    13    1
     9    13    14    1
    10    14     1    1
    11     1     2   ar
    12     2     3   ar
    13     3     4   ar
    14     4     5   ar
    15     5     6   ar
    16     6    37    1
    17    37    38    1
    18    37    39    1
    19     6     7   ar
    20     7    27    1
    21    27    28   ar
    22    28    29   ar
    23    29    30   ar
    24    30    33    1
    25    33    34    1
    26    33    35    1
    27    33    36    1
    28    30    31   ar
    29    31    32   ar
    30     7     8   ar
    31     8     9   ar
    32    14    15    1
    33    15    16    1
    34    20    21   ar
    35    21    22    1
    36    21    23   ar
    37    23    18   ar
    38    16    11    1
    39     9     1   ar
    40     9     5   ar
    41    32    27   ar
    42    23    24    1
    43     8    10    1
@<TRIPOS>MOLECULE
*****
 39 43 0 0 0
SMALL
GASTEIGER

@<TRIPOS>ATOM
      1 C         -11.6310   -8.7631   31.3464 C.ar    1  UNL1        0.1317
      2 C         -12.5708   -8.5206   32.3625 C.ar    1  UNL1        0.0286
      3 C         -13.0719   -9.5850   33.1323 C.ar    1  UNL1        0.0777
      4 C         -12.6413  -10.8933   32.8709 C.ar    1  UNL1        0.2963
      5 N         -11.7519  -11.0951   31.8594 N.ar    1  UNL1       -0.1314
      6 C         -11.1897  -12.2274   31.3860 C.ar    1  UNL1        0.2244
      7 C         -10.3321  -11.8415   30.3526 C.ar    1  UNL1        0.1211
      8 N         -10.3782  -10.5025   30.1779 N.ar    1  UNL1       -0.2945
      9 C         -11.2504  -10.0896   31.1178 C.ar    1  UNL1        0.3119
     10 H          -9.8899   -9.9574   29.5193 H       1  UNL1        0.1718
     11 N          -8.6952   -6.7242   30.2894 N.3     1  UNL1       -0.2647
     12 C          -9.6645   -5.6840   30.6929 C.3     1  UNL1        0.0941
     13 C         -10.9917   -6.3332   31.1151 C.3     1  UNL1        0.1084
     14 N         -11.0961   -7.6874   30.5608 N.pl3   1  UNL1       -0.2988
     15 C         -10.5994   -7.9329   29.2050 C.3     1  UNL1        0.1084
     16 C          -9.1570   -7.4017   29.0580 C.3     1  UNL1        0.0941
     17 C          -7.3472   -6.1536   30.1043 C.3     1  UNL1        0.1199
     18 C          -5.0138   -8.8221   29.6041 C.ar    1  UNL1        0.1165
     19 N          -6.0263   -8.0592   29.1355 N.ar    1  UNL1       -0.2344
     20 C          -6.3249   -7.2476   30.1700 C.ar    1  UNL1        0.0878
     21 C          -5.4812   -7.5199   31.2287 C.ar    1  UNL1        0.0499
     22 C          -5.4097   -6.7912   32.5324 C.3     1  UNL1        0.0511
     23 N          -4.6512   -8.5093   30.8644 N.ar    1  UNL1       -0.3443
     24 H          -3.8787   -8.9305   31.4262 H       1  UNL1        0.1668
     25 C          -4.9117   -9.9103   27.3749 C.3     1  UNL1        0.0084
     26 C          -4.3083   -9.8469   28.7725 C.3     1  UNL1        0.0637
     27 C          -9.4488  -12.6996   29.5573 C.ar    1  UNL1        0.0212
     28 C          -8.0858  -12.4101   29.4647 C.ar    1  UNL1        0.0013
     29 C          -7.2456  -13.2110   28.6873 C.ar    1  UNL1       -0.0042
     30 C          -7.7570  -14.3157   27.9645 C.ar    1  UNL1       -0.0228
     31 C          -9.1408  -14.5845   28.0684 C.ar    1  UNL1       -0.0042
     32 C          -9.9751  -13.7824   28.8495 C.ar    1  UNL1        0.0013
     33 C          -6.8686  -15.2230   27.0888 C.3     1  UNL1        0.0189
     34 C          -6.4811  -16.4853   27.8885 C.3     1  UNL1        0.0044
     35 C          -7.6436  -15.6388   25.8193 C.3     1  UNL1        0.0044
     36 C          -5.5607  -14.5330   26.6324 C.3     1  UNL1        0.0044
     37 C         -11.3824  -13.6097   31.9861 C.3     1  UNL1        0.0889
     38 C         -12.8006  -14.1170   31.7157 C.3     1  UNL1        0.0111
     39 C         -11.0521  -13.6628   33.4830 C.3     1  UNL1        0.0111
@<TRIPOS>BOND
     1    25    26    1
     2    26    18    1
     3    18    19   ar
     4    19    20   ar
     5    20    17    1
     6    17    11    1
     7    11    12    1
     8    12    13    1
     9    13    14    1
    10    14     1    1
    11     1     2   ar
    12     2     3   ar
    13     3     4   ar
    14     4     5   ar
    15     5     6   ar
    16     6    37    1
    17    37    38    1
    18    37    39    1
    19     6     7   ar
    20     7    27    1
    21    27    28   ar
    22    28    29   ar
    23    29    30   ar
    24    30    33    1
    25    33    34    1
    26    33    35    1
    27    33    36    1
    28    30    31   ar
    29    31    32   ar
    30     7     8   ar
    31     8     9   ar
    32    14    15    1
    33    15    16    1
    34    20    21   ar
    35    21    22    1
    36    21    23   ar
    37    23    18   ar
    38    16    11    1
    39     9     1   ar
    40     9     5   ar
    41    32    27   ar
    42    23    24    1
    43     8    10    1
