@<TRIPOS>MOLECULE
*****
 35 39 0 0 0
SMALL
GASTEIGER

@<TRIPOS>ATOM
      1 C          48.6796   11.3512  -24.4301 C.2     1  UNL1        0.2491
      2 O          48.6160   10.3606  -25.2083 O.2     1  UNL1       -0.2699
      3 N          48.8980   11.1307  -23.0248 N.am    1  UNL1       -0.2760
      4 C          49.8897   10.1334  -22.5999 C.3     1  UNL1        0.0954
      5 C          49.7223    9.7693  -21.1174 C.3     1  UNL1        0.0399
      6 C          49.6818   11.0142  -20.1824 C.3     1  UNL1        0.0645
      7 C          48.8806   12.1982  -20.8218 C.3     1  UNL1        0.0399
      8 C          48.0362   11.7747  -22.0258 C.3     1  UNL1        0.0954
      9 C          48.9966   10.5818  -18.8375 C.3     1  UNL1        0.0477
     10 C          49.2902   11.5661  -17.7463 C.ar    1  UNL1        0.0220
     11 C          48.6694   11.7841  -16.5386 C.ar    1  UNL1        0.0923
     12 N          49.4301   12.6582  -15.8323 N.ar    1  UNL1       -0.2534
     13 N          50.5197   12.9676  -16.5302 N.ar    1  UNL1       -0.1651
     14 C          50.4329   12.3024  -17.6948 C.ar    1  UNL1        0.1515
     15 C          51.4048   12.2537  -18.7753 C.2     1  UNL1        0.2650
     16 O          52.5081   12.8551  -18.6931 O.2     1  UNL1       -0.2684
     17 N          51.0719   11.4721  -19.9335 N.am    1  UNL1       -0.3023
     18 H          51.7872   11.3886  -20.6909 H       1  UNL1        0.1497
     19 C          50.4852   17.0065  -25.9957 C.ar    1  UNL1        0.2303
     20 N          50.5672   15.7431  -25.4912 N.ar    1  UNL1       -0.2113
     21 C          49.5087   14.8899  -25.5082 C.ar    1  UNL1        0.0846
     22 C          49.6377   13.6018  -24.9790 C.ar    1  UNL1        0.0237
     23 C          48.5447   12.7178  -24.9845 C.ar    1  UNL1        0.0551
     24 C          47.3278   13.1337  -25.5535 C.ar    1  UNL1        0.0046
     25 C          47.1940   14.4201  -26.0850 C.ar    1  UNL1        0.0017
     26 C          48.2803   15.3048  -26.0630 C.ar    1  UNL1        0.0183
     27 C          48.1762   16.5991  -26.5866 C.ar    1  UNL1        0.0120
     28 C          49.2803   17.4555  -26.5540 C.ar    1  UNL1        0.0832
     29 I          49.1071   19.4066  -27.3482 I       1  UNL1       -0.0377
     30 C          52.1319   18.3720  -24.7477 C.3     1  UNL1        0.2542
     31 O          51.5939   17.8582  -25.9603 O.3     1  UNL1       -0.4558
     32 C          49.1521   13.1389  -14.4640 C.3     1  UNL1        0.0867
     33 C          50.4708   13.5518  -13.7815 C.3     1  UNL1        0.0244
     34 C          48.2011   14.3477  -14.5318 C.3     1  UNL1        0.0244
     35 C          48.4888   12.0272  -13.6224 C.3     1  UNL1        0.0244
@<TRIPOS>BOND
     1    30    31    1
     2    31    19    1
     3    19    20   ar
     4    20    21   ar
     5    21    22   ar
     6    22    23   ar
     7    23     1    1
     8     1     2    2
     9     1     3   am
    10     3     4    1
    11     4     5    1
    12     5     6    1
    13     6     7    1
    14     7     8    1
    15     6     9    1
    16     9    10    1
    17    10    11   ar
    18    11    12   ar
    19    12    32    1
    20    32    33    1
    21    32    34    1
    22    32    35    1
    23    12    13   ar
    24    13    14   ar
    25    14    15    1
    26    15    16    2
    27    15    17   am
    28    23    24   ar
    29    24    25   ar
    30    25    26   ar
    31    26    27   ar
    32    27    28   ar
    33    28    29    1
    34    28    19   ar
    35    26    21   ar
    36     8     3    1
    37    14    10   ar
    38    17     6    1
    39    17    18    1
@<TRIPOS>MOLECULE
*****
 35 39 0 0 0
SMALL
GASTEIGER

@<TRIPOS>ATOM
      1 C          49.1838   11.2204  -24.1913 C.2     1  UNL1        0.2491
      2 O          48.9924   10.2284  -24.9464 O.2     1  UNL1       -0.2699
      3 N          49.2088   11.0266  -22.7655 N.am    1  UNL1       -0.2760
      4 C          49.9214    9.8678  -22.2106 C.3     1  UNL1        0.0954
      5 C          49.5333    9.6166  -20.7462 C.3     1  UNL1        0.0399
      6 C          49.6610   10.8861  -19.8529 C.3     1  UNL1        0.0645
      7 C          49.1943   12.1780  -20.6052 C.3     1  UNL1        0.0399
      8 C          48.4052   11.8808  -21.8823 C.3     1  UNL1        0.0954
      9 C          48.7689   10.6683  -18.5795 C.3     1  UNL1        0.0477
     10 C          49.1511   11.6217  -17.4884 C.ar    1  UNL1        0.0220
     11 C          48.4717   12.0199  -16.3608 C.ar    1  UNL1        0.0923
     12 N          49.3239   12.7511  -15.5988 N.ar    1  UNL1       -0.2534
     13 N          50.5186   12.7961  -16.1824 N.ar    1  UNL1       -0.1651
     14 C          50.4117   12.1086  -17.3323 C.ar    1  UNL1        0.1515
     15 C          51.4554   11.8097  -18.2998 C.2     1  UNL1        0.2650
     16 O          52.6463   12.1743  -18.1140 O.2     1  UNL1       -0.2684
     17 N          51.0840   11.0593  -19.4669 N.am    1  UNL1       -0.3023
     18 H          51.8383   10.7946  -20.1402 H       1  UNL1        0.1497
     19 C          47.7377   16.9553  -25.8386 C.ar    1  UNL1        0.2303
     20 N          47.5817   15.7124  -25.3017 N.ar    1  UNL1       -0.2113
     21 C          48.5772   14.7867  -25.3252 C.ar    1  UNL1        0.0846
     22 C          48.3732   13.5229  -24.7623 C.ar    1  UNL1        0.0237
     23 C          49.3948   12.5576  -24.7916 C.ar    1  UNL1        0.0551
     24 C          50.6342   12.8867  -25.3689 C.ar    1  UNL1        0.0046
     25 C          50.8437   14.1494  -25.9319 C.ar    1  UNL1        0.0017
     26 C          49.8179   15.1037  -25.9161 C.ar    1  UNL1        0.0183
     27 C          49.9979   16.3756  -26.4729 C.ar    1  UNL1        0.0120
     28 C          48.9561   17.3067  -26.4361 C.ar    1  UNL1        0.0832
     29 I          49.2431   19.2227  -27.2813 I       1  UNL1       -0.0377
     30 C          46.2663   18.5120  -24.5953 C.3     1  UNL1        0.2542
     31 O          46.6914   17.8823  -25.7981 O.3     1  UNL1       -0.4558
     32 C          49.0169   13.3430  -14.2813 C.3     1  UNL1        0.0867
     33 C          48.0781   14.5519  -14.4620 C.3     1  UNL1        0.0244
     34 C          48.3370   12.2850  -13.3932 C.3     1  UNL1        0.0244
     35 C          50.3099   13.8226  -13.5871 C.3     1  UNL1        0.0244
@<TRIPOS>BOND
     1    30    31    1
     2    31    19    1
     3    19    20   ar
     4    20    21   ar
     5    21    22   ar
     6    22    23   ar
     7    23     1    1
     8     1     2    2
     9     1     3   am
    10     3     4    1
    11     4     5    1
    12     5     6    1
    13     6     7    1
    14     7     8    1
    15     6     9    1
    16     9    10    1
    17    10    11   ar
    18    11    12   ar
    19    12    32    1
    20    32    33    1
    21    32    34    1
    22    32    35    1
    23    12    13   ar
    24    13    14   ar
    25    14    15    1
    26    15    16    2
    27    15    17   am
    28    23    24   ar
    29    24    25   ar
    30    25    26   ar
    31    26    27   ar
    32    27    28   ar
    33    28    29    1
    34    28    19   ar
    35    26    21   ar
    36     8     3    1
    37    14    10   ar
    38    17     6    1
    39    17    18    1
@<TRIPOS>MOLECULE
*****
 35 39 0 0 0
SMALL
GASTEIGER

@<TRIPOS>ATOM
      1 C          48.2543   12.0089  -25.7782 C.2     1  UNL1        0.2491
      2 O          47.3219   12.3496  -26.5563 O.2     1  UNL1       -0.2699
      3 N          48.0544   12.1002  -24.3559 N.am    1  UNL1       -0.2760
      4 C          46.7762   11.6600  -23.7806 C.3     1  UNL1        0.0954
      5 C          46.6012   12.1691  -22.3424 C.3     1  UNL1        0.0399
      6 C          47.8177   11.8439  -21.4258 C.3     1  UNL1        0.0645
      7 C          49.1787   12.0064  -22.1833 C.3     1  UNL1        0.0399
      8 C          49.0469   12.7676  -23.5044 C.3     1  UNL1        0.0954
      9 C          47.7751   12.8296  -20.2045 C.3     1  UNL1        0.0477
     10 C          48.6310   12.3279  -19.0813 C.ar    1  UNL1        0.0220
     11 C          49.1510   12.9765  -17.9857 C.ar    1  UNL1        0.0923
     12 N          49.6979   12.0403  -17.1695 N.ar    1  UNL1       -0.2534
     13 N          49.5092   10.8299  -17.6885 N.ar    1  UNL1       -0.1651
     14 C          48.8600   11.0067  -18.8521 C.ar    1  UNL1        0.1515
     15 C          48.3651    9.9907  -19.7672 C.2     1  UNL1        0.2650
     16 O          48.4879    8.7634  -19.5137 O.2     1  UNL1       -0.2684
     17 N          47.7064   10.4378  -20.9627 N.am    1  UNL1       -0.3023
     18 H          47.3009    9.7144  -21.5989 H       1  UNL1        0.1497
     19 C          51.8760    8.4128  -29.1909 C.ar    1  UNL1        0.2303
     20 N          50.7281    8.9010  -28.6416 N.ar    1  UNL1       -0.2113
     21 C          50.7313    9.9555  -27.7834 C.ar    1  UNL1        0.0846
     22 C          49.5292   10.4236  -27.2431 C.ar    1  UNL1        0.0237
     23 C          49.5260   11.5073  -26.3476 C.ar    1  UNL1        0.0551
     24 C          50.7426   12.1334  -26.0228 C.ar    1  UNL1        0.0046
     25 C          51.9470   11.6701  -26.5613 C.ar    1  UNL1        0.0017
     26 C          51.9488   10.5792  -27.4405 C.ar    1  UNL1        0.0183
     27 C          53.1389   10.0924  -27.9946 C.ar    1  UNL1        0.0120
     28 C          53.1059    9.0054  -28.8726 C.ar    1  UNL1        0.0832
     29 I          54.9111    8.2820  -29.7006 I       1  UNL1       -0.0377
     30 C          51.2701    7.4076  -31.3717 C.3     1  UNL1        0.2542
     31 O          51.8359    7.3252  -30.0690 O.3     1  UNL1       -0.4558
     32 C          50.3340   12.2967  -15.8618 C.3     1  UNL1        0.0867
     33 C          51.8004   12.7213  -16.0729 C.3     1  UNL1        0.0244
     34 C          49.5683   13.4163  -15.1334 C.3     1  UNL1        0.0244
     35 C          50.3104   11.0241  -14.9879 C.3     1  UNL1        0.0244
@<TRIPOS>BOND
     1    30    31    1
     2    31    19    1
     3    19    20   ar
     4    20    21   ar
     5    21    22   ar
     6    22    23   ar
     7    23     1    1
     8     1     2    2
     9     1     3   am
    10     3     4    1
    11     4     5    1
    12     5     6    1
    13     6     7    1
    14     7     8    1
    15     6     9    1
    16     9    10    1
    17    10    11   ar
    18    11    12   ar
    19    12    32    1
    20    32    33    1
    21    32    34    1
    22    32    35    1
    23    12    13   ar
    24    13    14   ar
    25    14    15    1
    26    15    16    2
    27    15    17   am
    28    23    24   ar
    29    24    25   ar
    30    25    26   ar
    31    26    27   ar
    32    27    28   ar
    33    28    29    1
    34    28    19   ar
    35    26    21   ar
    36     8     3    1
    37    14    10   ar
    38    17     6    1
    39    17    18    1
@<TRIPOS>MOLECULE
*****
 35 39 0 0 0
SMALL
GASTEIGER

@<TRIPOS>ATOM
      1 C          52.4681   10.7744  -26.8683 C.2     1  UNL1        0.2491
      2 O          53.6675   10.9999  -27.1868 O.2     1  UNL1       -0.2699
      3 N          51.9551   11.3054  -25.6330 N.am    1  UNL1       -0.2760
      4 C          52.2942   12.6819  -25.2471 C.3     1  UNL1        0.0954
      5 C          51.9862   12.9432  -23.7655 C.3     1  UNL1        0.0399
      6 C          50.5354   12.5452  -23.3626 C.3     1  UNL1        0.0645
      7 C          50.0771   11.2225  -24.0648 C.3     1  UNL1        0.0399
      8 C          51.2333   10.4402  -24.6917 C.3     1  UNL1        0.0954
      9 C          50.5065   12.3504  -21.8050 C.3     1  UNL1        0.0477
     10 C          49.1008   12.3866  -21.2867 C.ar    1  UNL1        0.0220
     11 C          48.5681   11.9515  -20.0957 C.ar    1  UNL1        0.0923
     12 N          47.2831   12.3832  -20.0330 N.ar    1  UNL1       -0.2534
     13 N          46.9999   13.1020  -21.1161 N.ar    1  UNL1       -0.1651
     14 C          48.1070   13.1029  -21.8782 C.ar    1  UNL1        0.1515
     15 C          48.3321   13.8013  -23.1335 C.2     1  UNL1        0.2650
     16 O          47.4498   14.5446  -23.6382 O.2     1  UNL1       -0.2684
     17 N          49.6100   13.6332  -23.7674 N.am    1  UNL1       -0.3023
     18 H          49.7986   14.1738  -24.6417 H       1  UNL1        0.1497
     19 C          51.1710    7.1001  -31.6129 C.ar    1  UNL1        0.2303
     20 N          51.9228    7.8437  -30.7530 N.ar    1  UNL1       -0.2113
     21 C          51.3694    8.5210  -29.7121 C.ar    1  UNL1        0.0846
     22 C          52.1792    9.2721  -28.8543 C.ar    1  UNL1        0.0237
     23 C          51.6126    9.9828  -27.7818 C.ar    1  UNL1        0.0551
     24 C          50.2253    9.9073  -27.5645 C.ar    1  UNL1        0.0046
     25 C          49.4114    9.1566  -28.4185 C.ar    1  UNL1        0.0017
     26 C          49.9769    8.4630  -29.4966 C.ar    1  UNL1        0.0183
     27 C          49.1874    7.7042  -30.3689 C.ar    1  UNL1        0.0120
     28 C          49.7832    7.0196  -31.4320 C.ar    1  UNL1        0.0832
     29 I          48.5777    5.8785  -32.7406 I       1  UNL1       -0.0377
     30 C          53.1774    6.2012  -32.7530 C.3     1  UNL1        0.2542
     31 O          51.7735    6.4174  -32.6742 O.3     1  UNL1       -0.4558
     32 C          46.3522   12.1707  -18.9066 C.3     1  UNL1        0.0867
     33 C          44.9296   11.9292  -19.4481 C.3     1  UNL1        0.0244
     34 C          46.8116   10.9495  -18.0893 C.3     1  UNL1        0.0244
     35 C          46.3247   13.4085  -17.9841 C.3     1  UNL1        0.0244
@<TRIPOS>BOND
     1    30    31    1
     2    31    19    1
     3    19    20   ar
     4    20    21   ar
     5    21    22   ar
     6    22    23   ar
     7    23     1    1
     8     1     2    2
     9     1     3   am
    10     3     4    1
    11     4     5    1
    12     5     6    1
    13     6     7    1
    14     7     8    1
    15     6     9    1
    16     9    10    1
    17    10    11   ar
    18    11    12   ar
    19    12    32    1
    20    32    33    1
    21    32    34    1
    22    32    35    1
    23    12    13   ar
    24    13    14   ar
    25    14    15    1
    26    15    16    2
    27    15    17   am
    28    23    24   ar
    29    24    25   ar
    30    25    26   ar
    31    26    27   ar
    32    27    28   ar
    33    28    29    1
    34    28    19   ar
    35    26    21   ar
    36     8     3    1
    37    14    10   ar
    38    17     6    1
    39    17    18    1
@<TRIPOS>MOLECULE
*****
 35 39 0 0 0
SMALL
GASTEIGER

@<TRIPOS>ATOM
      1 C          45.8565   14.1640  -28.0182 C.2     1  UNL1        0.2491
      2 O          44.9769   14.9489  -28.4667 O.2     1  UNL1       -0.2699
      3 N          46.4467   14.4272  -26.7323 N.am    1  UNL1       -0.2760
      4 C          45.5859   14.8546  -25.6210 C.3     1  UNL1        0.0954
      5 C          46.4091   15.4408  -24.4647 C.3     1  UNL1        0.0399
      6 C          47.5681   14.5079  -24.0041 C.3     1  UNL1        0.0645
      7 C          48.2625   13.7986  -25.2155 C.3     1  UNL1        0.0399
      8 C          47.9054   14.4234  -26.5661 C.3     1  UNL1        0.0954
      9 C          48.6182   15.3894  -23.2390 C.3     1  UNL1        0.0477
     10 C          49.5298   14.5372  -22.4094 C.ar    1  UNL1        0.0220
     11 C          50.7570   14.8089  -21.8512 C.ar    1  UNL1        0.0923
     12 N          51.0817   13.7730  -21.0370 N.ar    1  UNL1       -0.2534
     13 N          50.0937   12.8821  -21.0318 N.ar    1  UNL1       -0.1651
     14 C          49.1502   13.3485  -21.8677 C.ar    1  UNL1        0.1515
     15 C          47.8462   12.7748  -22.1591 C.2     1  UNL1        0.2650
     16 O          47.4483   11.7256  -21.5877 O.2     1  UNL1       -0.2684
     17 N          47.0144   13.4631  -23.1065 N.am    1  UNL1       -0.3023
     18 H          46.0551   13.0867  -23.2811 H       1  UNL1        0.1497
     19 C          48.4308    8.7004  -29.1214 C.ar    1  UNL1        0.2303
     20 N          48.0554    9.8073  -28.4203 N.ar    1  UNL1       -0.2113
     21 C          47.3415   10.8141  -28.9906 C.ar    1  UNL1        0.0846
     22 C          46.9778   11.9322  -28.2333 C.ar    1  UNL1        0.0237
     23 C          46.2480   12.9813  -28.8189 C.ar    1  UNL1        0.0551
     24 C          45.8636   12.8811  -30.1679 C.ar    1  UNL1        0.0046
     25 C          46.2237   11.7648  -30.9291 C.ar    1  UNL1        0.0017
     26 C          46.9655   10.7284  -30.3471 C.ar    1  UNL1        0.0183
     27 C          47.3413    9.5990  -31.0842 C.ar    1  UNL1        0.0120
     28 C          48.0770    8.5800  -30.4725 C.ar    1  UNL1        0.0832
     29 I          48.6372    6.8814  -31.5988 I       1  UNL1       -0.0377
     30 C          50.1641    7.9433  -27.5227 C.3     1  UNL1        0.2542
     31 O          49.1664    7.6844  -28.5032 O.3     1  UNL1       -0.4558
     32 C          52.3007   13.6709  -20.2098 C.3     1  UNL1        0.0867
     33 C          52.6430   15.0521  -19.6180 C.3     1  UNL1        0.0244
     34 C          52.0611   12.6624  -19.0714 C.3     1  UNL1        0.0244
     35 C          53.4956   13.1897  -21.0611 C.3     1  UNL1        0.0244
@<TRIPOS>BOND
     1    30    31    1
     2    31    19    1
     3    19    20   ar
     4    20    21   ar
     5    21    22   ar
     6    22    23   ar
     7    23     1    1
     8     1     2    2
     9     1     3   am
    10     3     4    1
    11     4     5    1
    12     5     6    1
    13     6     7    1
    14     7     8    1
    15     6     9    1
    16     9    10    1
    17    10    11   ar
    18    11    12   ar
    19    12    32    1
    20    32    33    1
    21    32    34    1
    22    32    35    1
    23    12    13   ar
    24    13    14   ar
    25    14    15    1
    26    15    16    2
    27    15    17   am
    28    23    24   ar
    29    24    25   ar
    30    25    26   ar
    31    26    27   ar
    32    27    28   ar
    33    28    29    1
    34    28    19   ar
    35    26    21   ar
    36     8     3    1
    37    14    10   ar
    38    17     6    1
    39    17    18    1
@<TRIPOS>MOLECULE
*****
 35 39 0 0 0
SMALL
GASTEIGER

@<TRIPOS>ATOM
      1 C          51.8565    9.6899  -25.6363 C.2     1  UNL1        0.2491
      2 O          52.7685    9.0415  -25.0543 O.2     1  UNL1       -0.2699
      3 N          51.5149   11.0054  -25.1632 N.am    1  UNL1       -0.2760
      4 C          52.5890   11.9355  -24.7893 C.3     1  UNL1        0.0954
      5 C          52.0500   13.1183  -23.9715 C.3     1  UNL1        0.0399
      6 C          50.8442   13.8329  -24.6504 C.3     1  UNL1        0.0645
      7 C          49.8740   12.8137  -25.3380 C.3     1  UNL1        0.0399
      8 C          50.1150   11.3656  -24.9060 C.3     1  UNL1        0.0954
      9 C          50.0701   14.6277  -23.5395 C.3     1  UNL1        0.0477
     10 C          49.1739   15.6632  -24.1479 C.ar    1  UNL1        0.0220
     11 C          48.1017   16.3469  -23.6241 C.ar    1  UNL1        0.0923
     12 N          47.7480   17.3092  -24.5133 N.ar    1  UNL1       -0.2534
     13 N          48.5764   17.2821  -25.5540 N.ar    1  UNL1       -0.1651
     14 C          49.4434   16.2797  -25.3303 C.ar    1  UNL1        0.1515
     15 C          50.5843   15.8823  -26.1395 C.2     1  UNL1        0.2650
     16 O          50.8975   16.5099  -27.1853 O.2     1  UNL1       -0.2684
     17 N          51.3595   14.7601  -25.6890 N.am    1  UNL1       -0.3023
     18 H          52.2118   14.5018  -26.2359 H       1  UNL1        0.1497
     19 C          51.3080    7.5134  -31.3509 C.ar    1  UNL1        0.2303
     20 N          51.9009    8.0694  -30.2569 N.ar    1  UNL1       -0.2113
     21 C          51.2214    8.2823  -29.0986 C.ar    1  UNL1        0.0846
     22 C          51.8700    8.8560  -28.0004 C.ar    1  UNL1        0.0237
     23 C          51.1711    9.0878  -26.8029 C.ar    1  UNL1        0.0551
     24 C          49.8194    8.7105  -26.7125 C.ar    1  UNL1        0.0046
     25 C          49.1667    8.1354  -27.8072 C.ar    1  UNL1        0.0017
     26 C          49.8615    7.9210  -29.0049 C.ar    1  UNL1        0.0183
     27 C          49.2344    7.3481  -30.1180 C.ar    1  UNL1        0.0120
     28 C          49.9571    7.1428  -31.2966 C.ar    1  UNL1        0.0832
     29 I          48.9963    6.2771  -32.9685 I       1  UNL1       -0.0377
     30 C          53.1317    6.4056  -32.6080 C.3     1  UNL1        0.2542
     31 O          52.0369    7.3104  -32.5269 O.3     1  UNL1       -0.4558
     32 C          46.6669   18.2989  -24.3339 C.3     1  UNL1        0.0867
     33 C          46.0595   18.1536  -22.9249 C.3     1  UNL1        0.0244
     34 C          47.2400   19.7170  -24.5092 C.3     1  UNL1        0.0244
     35 C          45.5503   18.0781  -25.3770 C.3     1  UNL1        0.0244
@<TRIPOS>BOND
     1    30    31    1
     2    31    19    1
     3    19    20   ar
     4    20    21   ar
     5    21    22   ar
     6    22    23   ar
     7    23     1    1
     8     1     2    2
     9     1     3   am
    10     3     4    1
    11     4     5    1
    12     5     6    1
    13     6     7    1
    14     7     8    1
    15     6     9    1
    16     9    10    1
    17    10    11   ar
    18    11    12   ar
    19    12    32    1
    20    32    33    1
    21    32    34    1
    22    32    35    1
    23    12    13   ar
    24    13    14   ar
    25    14    15    1
    26    15    16    2
    27    15    17   am
    28    23    24   ar
    29    24    25   ar
    30    25    26   ar
    31    26    27   ar
    32    27    28   ar
    33    28    29    1
    34    28    19   ar
    35    26    21   ar
    36     8     3    1
    37    14    10   ar
    38    17     6    1
    39    17    18    1
@<TRIPOS>MOLECULE
*****
 35 39 0 0 0
SMALL
GASTEIGER

@<TRIPOS>ATOM
      1 C          49.5419   10.6239  -19.2226 C.2     1  UNL1        0.2491
      2 O          50.1640    9.5490  -19.0021 O.2     1  UNL1       -0.2699
      3 N          49.1685   10.9583  -20.5716 N.am    1  UNL1       -0.2760
      4 C          48.6244    9.9111  -21.4468 C.3     1  UNL1        0.0954
      5 C          48.6385   10.3451  -22.9198 C.3     1  UNL1        0.0399
      6 C          47.9719   11.7328  -23.1553 C.3     1  UNL1        0.0645
      7 C          48.3104   12.7446  -22.0088 C.3     1  UNL1        0.0399
      8 C          49.4699   12.2857  -21.1219 C.3     1  UNL1        0.0954
      9 C          48.5006   12.2929  -24.5234 C.3     1  UNL1        0.0477
     10 C          47.6166   13.3920  -25.0297 C.ar    1  UNL1        0.0220
     11 C          47.8422   14.3679  -25.9721 C.ar    1  UNL1        0.0923
     12 N          46.6644   15.0004  -26.2054 N.ar    1  UNL1       -0.2534
     13 N          45.7033   14.4377  -25.4778 N.ar    1  UNL1       -0.1651
     14 C          46.2844   13.4592  -24.7626 C.ar    1  UNL1        0.1515
     15 C          45.6517   12.5079  -23.8631 C.2     1  UNL1        0.2650
     16 O          44.4050   12.5019  -23.6855 O.2     1  UNL1       -0.2684
     17 N          46.4987   11.5553  -23.2011 N.am    1  UNL1       -0.3023
     18 H          46.0457   10.8345  -22.5948 H       1  UNL1        0.1497
     19 C          46.5234   15.0630  -16.2430 C.ar    1  UNL1        0.2303
     20 N          46.8744   14.2346  -17.2668 N.ar    1  UNL1       -0.2113
     21 C          47.8521   13.2991  -17.1345 C.ar    1  UNL1        0.0846
     22 C          48.1799   12.4700  -18.2120 C.ar    1  UNL1        0.0237
     23 C          49.1964   11.5072  -18.0853 C.ar    1  UNL1        0.0551
     24 C          49.8610   11.3682  -16.8538 C.ar    1  UNL1        0.0046
     25 C          49.5362   12.1938  -15.7730 C.ar    1  UNL1        0.0017
     26 C          48.5342   13.1639  -15.9075 C.ar    1  UNL1        0.0183
     27 C          48.1879   14.0055  -14.8436 C.ar    1  UNL1        0.0120
     28 C          47.1800   14.9597  -15.0087 C.ar    1  UNL1        0.0832
     29 I          46.6688   16.2231  -13.3931 I       1  UNL1       -0.0377
     30 C          44.1338   15.7136  -16.2462 C.3     1  UNL1        0.2542
     31 O          45.5139   16.0152  -16.4148 O.3     1  UNL1       -0.4558
     32 C          46.4448   16.0914  -27.1760 C.3     1  UNL1        0.0867
     33 C          47.8013   16.6799  -27.6103 C.3     1  UNL1        0.0244
     34 C          45.7007   15.5380  -28.4050 C.3     1  UNL1        0.0244
     35 C          45.5986   17.2177  -26.5442 C.3     1  UNL1        0.0244
@<TRIPOS>BOND
     1    30    31    1
     2    31    19    1
     3    19    20   ar
     4    20    21   ar
     5    21    22   ar
     6    22    23   ar
     7    23     1    1
     8     1     2    2
     9     1     3   am
    10     3     4    1
    11     4     5    1
    12     5     6    1
    13     6     7    1
    14     7     8    1
    15     6     9    1
    16     9    10    1
    17    10    11   ar
    18    11    12   ar
    19    12    32    1
    20    32    33    1
    21    32    34    1
    22    32    35    1
    23    12    13   ar
    24    13    14   ar
    25    14    15    1
    26    15    16    2
    27    15    17   am
    28    23    24   ar
    29    24    25   ar
    30    25    26   ar
    31    26    27   ar
    32    27    28   ar
    33    28    29    1
    34    28    19   ar
    35    26    21   ar
    36     8     3    1
    37    14    10   ar
    38    17     6    1
    39    17    18    1
