@<TRIPOS>MOLECULE
*****
 50 55 0 0 0
SMALL
GASTEIGER

@<TRIPOS>ATOM
      1 C          59.6147   83.8176   12.4363 C.2     1  UNL1        0.2483
      2 O          58.4047   83.8844   12.0850 O.2     1  UNL1       -0.2701
      3 N          60.1772   82.5550   12.8279 N.am    1  UNL1       -0.2945
      4 H          61.0723   82.5659   13.3668 H       1  UNL1        0.1501
      5 C          62.0047   87.3934   12.5212 C.ar    1  UNL1        0.0502
      6 C          62.4747   86.2318   11.8908 C.ar    1  UNL1        0.0148
      7 C          61.6946   85.0731   11.8719 C.ar    1  UNL1        0.0080
      8 C          60.4264   85.0552   12.4771 C.ar    1  UNL1        0.0808
      9 C          59.9638   86.2163   13.1273 C.ar    1  UNL1        0.1457
     10 F          58.7804   86.2220   13.7919 F       1  UNL1       -0.2040
     11 C          60.7482   87.3738   13.1437 C.ar    1  UNL1        0.0443
     12 C          64.0922   90.0018   14.1104 C.3     1  UNL1        0.0926
     13 C          64.0253   88.6524   13.3704 C.3     1  UNL1        0.1105
     14 N          62.8079   88.5873   12.5505 N.pl3   1  UNL1       -0.3041
     15 C          62.5525   89.6790   11.6018 C.3     1  UNL1        0.1122
     16 C          62.6249   91.0243   12.3255 C.3     1  UNL1        0.1123
     17 N          63.8461   91.0836   13.1411 N.pl3   1  UNL1       -0.3034
     18 C          64.8846   92.0365   12.8359 C.ar    1  UNL1        0.0832
     19 C          65.2033   92.3194   11.4965 C.ar    1  UNL1        0.0290
     20 C          66.2190   93.2263   11.1849 C.ar    1  UNL1        0.0591
     21 CL         66.6088   93.5653    9.5085 Cl      1  UNL1       -0.0822
     22 C          66.9273   93.8581   12.2080 C.ar    1  UNL1        0.0146
     23 C          66.6219   93.5874   13.5434 C.ar    1  UNL1        0.0390
     24 C          65.5972   92.6773   13.8710 C.ar    1  UNL1        0.1519
     25 O          65.2555   92.3980   15.2034 O.3     1  UNL1       -0.4702
     26 C          66.1212   92.5828   16.3179 C.3     1  UNL1        0.2525
     27 C          63.0931   88.8346   16.1556 C.3     1  UNL1        0.0018
     28 C          63.0674   90.0783   15.2674 C.3     1  UNL1        0.0215
     29 C          59.4108   81.3040   12.7655 C.3     1  UNL1        0.1535
     30 C          58.8786   81.0572   11.3733 C.2     1  UNL1        0.2443
     31 O          57.8971   80.2832   11.2010 O.2     1  UNL1       -0.2730
     32 N          59.4228   81.7941   10.2666 N.am    1  UNL1       -0.2825
     33 H          60.0828   82.5759   10.4809 H       1  UNL1        0.1549
     34 C          58.9553   81.6629    8.9143 C.ar    1  UNL1        0.0535
     35 C          57.7642   82.2727    8.4877 C.ar    1  UNL1        0.0353
     36 C          57.3413   82.1069    7.1664 C.ar    1  UNL1        0.1002
     37 N          58.0724   81.3503    6.3055 N.ar    1  UNL1       -0.2422
     38 C          59.2197   80.7350    6.6963 C.ar    1  UNL1        0.1002
     39 C          59.6767   80.8732    8.0091 C.ar    1  UNL1        0.0353
     40 C          60.2664   80.1201   13.2573 C.3     1  UNL1        0.0569
     41 C          61.7150   80.4842   13.4344 C.ar    1  UNL1       -0.0017
     42 C          62.4573   80.3793   14.6072 C.ar    1  UNL1        0.0681
     43 N          63.7008   80.8790   14.4254 N.ar    1  UNL1       -0.3523
     44 C          63.7475   81.3058   13.1514 C.ar    1  UNL1        0.0563
     45 C          64.8192   81.9212   12.5056 C.ar    1  UNL1        0.0170
     46 C          64.6431   82.3121   11.1655 C.ar    1  UNL1        0.0015
     47 C          63.4140   82.0824   10.5085 C.ar    1  UNL1        0.0001
     48 C          62.3504   81.4586   11.1848 C.ar    1  UNL1        0.0012
     49 C          62.5539   81.0830   12.5136 C.ar    1  UNL1        0.0131
     50 H          64.4616   80.9361   15.1384 H       1  UNL1        0.1660
@<TRIPOS>BOND
     1    27    28    1
     2    28    12    1
     3    12    13    1
     4    13    14    1
     5    14     5    1
     6     5     6   ar
     7     6     7   ar
     8     7     8   ar
     9     8     1    1
    10     1     2    2
    11     1     3   am
    12     3    29    1
    13    29    40    1
    14    40    41    1
    15    41    42   ar
    16    42    43   ar
    17    43    44   ar
    18    44    45   ar
    19    45    46   ar
    20    46    47   ar
    21    47    48   ar
    22    48    49   ar
    23    29    30    1
    24    30    31    2
    25    30    32   am
    26    32    34    1
    27    34    35   ar
    28    35    36   ar
    29    36    37   ar
    30    37    38   ar
    31    38    39   ar
    32     8     9   ar
    33     9    10    1
    34     9    11   ar
    35    14    15    1
    36    15    16    1
    37    16    17    1
    38    17    18    1
    39    18    19   ar
    40    19    20   ar
    41    20    21    1
    42    20    22   ar
    43    22    23   ar
    44    23    24   ar
    45    24    25    1
    46    25    26    1
    47    17    12    1
    48    24    18   ar
    49    11     5   ar
    50    49    41   ar
    51    39    34   ar
    52    49    44   ar
    53     3     4    1
    54    43    50    1
    55    32    33    1
@<TRIPOS>MOLECULE
*****
 50 55 0 0 0
SMALL
GASTEIGER

@<TRIPOS>ATOM
      1 C          63.0218   90.3038   11.1862 C.2     1  UNL1        0.2483
      2 O          62.9756   91.0395   10.1622 O.2     1  UNL1       -0.2701
      3 N          63.7181   90.7539   12.3595 N.am    1  UNL1       -0.2945
      4 H          63.9780   90.0396   13.0765 H       1  UNL1        0.1501
      5 C          61.1573   86.4303   11.0277 C.ar    1  UNL1        0.0502
      6 C          60.7277   87.4676   10.1868 C.ar    1  UNL1        0.0148
      7 C          61.3351   88.7242   10.2479 C.ar    1  UNL1        0.0080
      8 C          62.3884   88.9662   11.1461 C.ar    1  UNL1        0.0808
      9 C          62.8056   87.9296   12.0042 C.ar    1  UNL1        0.1457
     10 F          63.7651   88.1397   12.9408 F       1  UNL1       -0.2040
     11 C          62.1947   86.6734   11.9395 C.ar    1  UNL1        0.0443
     12 C          60.1971   83.2227    9.4540 C.3     1  UNL1        0.0926
     13 C          61.2010   84.0032   10.3236 C.3     1  UNL1        0.1105
     14 N          60.5295   85.1363   10.9743 N.pl3   1  UNL1       -0.3041
     15 C          59.3136   84.8669   11.7528 C.3     1  UNL1        0.1122
     16 C          58.3132   84.0848   10.9005 C.3     1  UNL1        0.1123
     17 N          58.9909   82.9514   10.2551 N.pl3   1  UNL1       -0.3034
     18 C          58.6299   81.5959   10.5896 C.ar    1  UNL1        0.0832
     19 C          58.9774   81.0686   11.8452 C.ar    1  UNL1        0.0290
     20 C          58.6508   79.7516   12.1770 C.ar    1  UNL1        0.0591
     21 CL         59.0958   79.1058   13.7461 Cl      1  UNL1       -0.0822
     22 C          57.9754   78.9481   11.2572 C.ar    1  UNL1        0.0146
     23 C          57.6232   79.4582   10.0060 C.ar    1  UNL1        0.0390
     24 C          57.9437   80.7861    9.6605 C.ar    1  UNL1        0.1519
     25 O          57.5877   81.3324    8.4176 O.3     1  UNL1       -0.4702
     26 C          58.1454   80.9375    7.1691 C.3     1  UNL1        0.2525
     27 C          61.0477   84.4355    7.3686 C.3     1  UNL1        0.0018
     28 C          59.8210   83.9976    8.1684 C.3     1  UNL1        0.0215
     29 C          64.3264   92.0876   12.4449 C.3     1  UNL1        0.1535
     30 C          65.6524   92.0390   13.1670 C.2     1  UNL1        0.2443
     31 O          66.5937   91.3332   12.7111 O.2     1  UNL1       -0.2730
     32 N          65.8690   92.8863   14.3069 N.am    1  UNL1       -0.2825
     33 H          65.1435   93.6076   14.5211 H       1  UNL1        0.1549
     34 C          67.1074   92.9446   15.0330 C.ar    1  UNL1        0.0535
     35 C          67.6210   91.8196   15.6987 C.ar    1  UNL1        0.0353
     36 C          68.8226   91.9263   16.4037 C.ar    1  UNL1        0.1002
     37 N          69.4815   93.1144   16.4538 N.ar    1  UNL1       -0.2422
     38 C          68.9985   94.2230   15.8331 C.ar    1  UNL1        0.1002
     39 C          67.7994   94.1600   15.1194 C.ar    1  UNL1        0.0353
     40 C          64.4742   92.7059   11.0408 C.3     1  UNL1        0.0569
     41 C          65.8216   93.3382   10.8233 C.ar    1  UNL1       -0.0017
     42 C          66.1970   94.6299   11.1807 C.ar    1  UNL1        0.0681
     43 N          67.4532   94.8919   10.7537 N.ar    1  UNL1       -0.3523
     44 C          67.8710   93.7805   10.1231 C.ar    1  UNL1        0.0563
     45 C          69.0974   93.5784    9.4912 C.ar    1  UNL1        0.0170
     46 C          69.3196   92.3368    8.8678 C.ar    1  UNL1        0.0015
     47 C          68.3225   91.3366    8.8891 C.ar    1  UNL1        0.0001
     48 C          67.0949   91.5681    9.5350 C.ar    1  UNL1        0.0012
     49 C          66.9027   92.8094   10.1436 C.ar    1  UNL1        0.0131
     50 H          67.9812   95.7845   10.8758 H       1  UNL1        0.1660
@<TRIPOS>BOND
     1    27    28    1
     2    28    12    1
     3    12    13    1
     4    13    14    1
     5    14     5    1
     6     5     6   ar
     7     6     7   ar
     8     7     8   ar
     9     8     1    1
    10     1     2    2
    11     1     3   am
    12     3    29    1
    13    29    40    1
    14    40    41    1
    15    41    42   ar
    16    42    43   ar
    17    43    44   ar
    18    44    45   ar
    19    45    46   ar
    20    46    47   ar
    21    47    48   ar
    22    48    49   ar
    23    29    30    1
    24    30    31    2
    25    30    32   am
    26    32    34    1
    27    34    35   ar
    28    35    36   ar
    29    36    37   ar
    30    37    38   ar
    31    38    39   ar
    32     8     9   ar
    33     9    10    1
    34     9    11   ar
    35    14    15    1
    36    15    16    1
    37    16    17    1
    38    17    18    1
    39    18    19   ar
    40    19    20   ar
    41    20    21    1
    42    20    22   ar
    43    22    23   ar
    44    23    24   ar
    45    24    25    1
    46    25    26    1
    47    17    12    1
    48    24    18   ar
    49    11     5   ar
    50    49    41   ar
    51    39    34   ar
    52    49    44   ar
    53     3     4    1
    54    43    50    1
    55    32    33    1
@<TRIPOS>MOLECULE
*****
 50 55 0 0 0
SMALL
GASTEIGER

@<TRIPOS>ATOM
      1 C          60.1432   85.1112    9.7401 C.2     1  UNL1        0.2483
      2 O          59.1696   85.5389    9.0610 O.2     1  UNL1       -0.2701
      3 N          60.4026   83.6998    9.8081 N.am    1  UNL1       -0.2945
      4 H          61.0215   83.3540   10.5758 H       1  UNL1        0.1501
      5 C          62.5866   87.8726   11.9560 C.ar    1  UNL1        0.0502
      6 C          62.1986   86.6476   12.5186 C.ar    1  UNL1        0.0148
      7 C          61.4008   85.7584   11.7944 C.ar    1  UNL1        0.0080
      8 C          60.9810   86.0737   10.4908 C.ar    1  UNL1        0.0808
      9 C          61.3546   87.3129    9.9343 C.ar    1  UNL1        0.1457
     10 F          60.9085   87.6935    8.7103 F       1  UNL1       -0.2040
     11 C          62.1532   88.1998   10.6630 C.ar    1  UNL1        0.0443
     12 C          64.0398   89.3606   15.0156 C.3     1  UNL1        0.0926
     13 C          64.1730   88.3431   13.8667 C.3     1  UNL1        0.1105
     14 N          63.4016   88.7956   12.7010 N.pl3   1  UNL1       -0.3041
     15 C          63.6515   90.1488   12.1879 C.3     1  UNL1        0.1122
     16 C          63.5296   91.1662   13.3232 C.3     1  UNL1        0.1123
     17 N          64.3058   90.7087   14.4845 N.pl3   1  UNL1       -0.3034
     18 C          65.4525   91.4560   14.9388 C.ar    1  UNL1        0.0832
     19 C          66.6479   91.4211   14.2004 C.ar    1  UNL1        0.0290
     20 C          67.7726   92.1249   14.6373 C.ar    1  UNL1        0.0591
     21 CL         69.2592   92.0677   13.7078 Cl      1  UNL1       -0.0822
     22 C          67.7148   92.8689   15.8166 C.ar    1  UNL1        0.0146
     23 C          66.5340   92.9133   16.5606 C.ar    1  UNL1        0.0390
     24 C          65.3914   92.2107   16.1290 C.ar    1  UNL1        0.1519
     25 O          64.1854   92.2502   16.8459 O.3     1  UNL1       -0.4702
     26 C          63.5128   93.4425   17.2356 C.3     1  UNL1        0.2525
     27 C          62.3129   87.9374   16.2549 C.3     1  UNL1        0.0018
     28 C          62.6390   89.3120   15.6715 C.3     1  UNL1        0.0215
     29 C          59.6135   82.7218    9.0485 C.3     1  UNL1        0.1535
     30 C          60.3226   81.3902    8.9685 C.2     1  UNL1        0.2443
     31 O          60.1846   80.6621    7.9473 O.2     1  UNL1       -0.2730
     32 N          61.2397   81.0132   10.0082 N.am    1  UNL1       -0.2825
     33 H          61.4861   81.7342   10.7238 H       1  UNL1        0.1549
     34 C          61.9937   79.7902   10.0013 C.ar    1  UNL1        0.0535
     35 C          63.0413   79.5796    9.0899 C.ar    1  UNL1        0.0353
     36 C          63.7387   78.3691    9.1109 C.ar    1  UNL1        0.1002
     37 N          63.3959   77.3991    9.9995 N.ar    1  UNL1       -0.2422
     38 C          62.3755   77.5697   10.8811 C.ar    1  UNL1        0.1002
     39 C          61.6512   78.7640   10.8919 C.ar    1  UNL1        0.0353
     40 C          58.2056   82.5721    9.6574 C.3     1  UNL1        0.0569
     41 C          58.2393   82.2287   11.1214 C.ar    1  UNL1       -0.0017
     42 C          58.2531   83.1292   12.1826 C.ar    1  UNL1        0.0681
     43 N          58.3742   82.4718   13.3583 N.ar    1  UNL1       -0.3523
     44 C          58.4453   81.1656   13.0485 C.ar    1  UNL1        0.0563
     45 C          58.6009   80.0959   13.9292 C.ar    1  UNL1        0.0170
     46 C          58.6759   78.8008   13.3846 C.ar    1  UNL1        0.0015
     47 C          58.5952   78.6059   11.9879 C.ar    1  UNL1        0.0001
     48 C          58.4375   79.7038   11.1234 C.ar    1  UNL1        0.0012
     49 C          58.3673   80.9764   11.6923 C.ar    1  UNL1        0.0131
     50 H          58.4208   82.8980   14.3105 H       1  UNL1        0.1660
@<TRIPOS>BOND
     1    27    28    1
     2    28    12    1
     3    12    13    1
     4    13    14    1
     5    14     5    1
     6     5     6   ar
     7     6     7   ar
     8     7     8   ar
     9     8     1    1
    10     1     2    2
    11     1     3   am
    12     3    29    1
    13    29    40    1
    14    40    41    1
    15    41    42   ar
    16    42    43   ar
    17    43    44   ar
    18    44    45   ar
    19    45    46   ar
    20    46    47   ar
    21    47    48   ar
    22    48    49   ar
    23    29    30    1
    24    30    31    2
    25    30    32   am
    26    32    34    1
    27    34    35   ar
    28    35    36   ar
    29    36    37   ar
    30    37    38   ar
    31    38    39   ar
    32     8     9   ar
    33     9    10    1
    34     9    11   ar
    35    14    15    1
    36    15    16    1
    37    16    17    1
    38    17    18    1
    39    18    19   ar
    40    19    20   ar
    41    20    21    1
    42    20    22   ar
    43    22    23   ar
    44    23    24   ar
    45    24    25    1
    46    25    26    1
    47    17    12    1
    48    24    18   ar
    49    11     5   ar
    50    49    41   ar
    51    39    34   ar
    52    49    44   ar
    53     3     4    1
    54    43    50    1
    55    32    33    1
@<TRIPOS>MOLECULE
*****
 50 55 0 0 0
SMALL
GASTEIGER

@<TRIPOS>ATOM
      1 C          60.0487   83.9902   12.1599 C.2     1  UNL1        0.2483
      2 O          59.2364   84.0389   11.1956 O.2     1  UNL1       -0.2701
      3 N          60.1140   82.8133   12.9813 N.am    1  UNL1       -0.2945
      4 H          60.5765   82.8950   13.9148 H       1  UNL1        0.1501
      5 C          62.5518   87.3851   13.0054 C.ar    1  UNL1        0.0502
      6 C          63.0968   86.0952   12.9239 C.ar    1  UNL1        0.0148
      7 C          62.2764   84.9971   12.6538 C.ar    1  UNL1        0.0080
      8 C          60.8961   85.1683   12.4533 C.ar    1  UNL1        0.0808
      9 C          60.3466   86.4615   12.5553 C.ar    1  UNL1        0.1457
     10 F          59.0090   86.6644   12.4468 F       1  UNL1       -0.2040
     11 C          61.1717   87.5577   12.8258 C.ar    1  UNL1        0.0443
     12 C          64.4259   89.7151   15.1839 C.3     1  UNL1        0.0926
     13 C          64.4347   88.4379   14.3226 C.3     1  UNL1        0.1105
     14 N          63.3914   88.5185   13.2913 N.pl3   1  UNL1       -0.3041
     15 C          63.3713   89.6983   12.4170 C.3     1  UNL1        0.1122
     16 C          63.3708   90.9725   13.2628 C.3     1  UNL1        0.1123
     17 N          64.4184   90.8862   14.2901 N.pl3   1  UNL1       -0.3034
     18 C          65.5401   91.7922   14.2694 C.ar    1  UNL1        0.0832
     19 C          66.4435   91.8123   15.3460 C.ar    1  UNL1        0.0290
     20 C          67.5245   92.6969   15.3489 C.ar    1  UNL1        0.0591
     21 CL         68.6408   92.7139   16.7020 Cl      1  UNL1       -0.0822
     22 C          67.7127   93.5712   14.2775 C.ar    1  UNL1        0.0146
     23 C          66.8238   93.5626   13.2008 C.ar    1  UNL1        0.0390
     24 C          65.7314   92.6727   13.1840 C.ar    1  UNL1        0.1519
     25 O          64.8311   92.6285   12.1081 O.3     1  UNL1       -0.4702
     26 C          65.1884   92.8215   10.7440 C.3     1  UNL1        0.2525
     27 C          62.8779   88.3948   16.7343 C.3     1  UNL1        0.0018
     28 C          63.2067   89.7622   16.1358 C.3     1  UNL1        0.0215
     29 C          59.3139   81.6154   12.6970 C.3     1  UNL1        0.1535
     30 C          58.7509   81.6531   11.2957 C.2     1  UNL1        0.2443
     31 O          57.5184   81.8552   11.1159 O.2     1  UNL1       -0.2730
     32 N          59.6427   81.5710   10.1722 N.am    1  UNL1       -0.2825
     33 H          60.6694   81.6194   10.3623 H       1  UNL1        0.1549
     34 C          59.2100   81.6416    8.8040 C.ar    1  UNL1        0.0535
     35 C          59.9319   82.3682    7.8430 C.ar    1  UNL1        0.0353
     36 C          59.4662   82.4200    6.5268 C.ar    1  UNL1        0.1002
     37 N          58.3161   81.7815    6.1839 N.ar    1  UNL1       -0.2422
     38 C          57.5888   81.0854    7.0972 C.ar    1  UNL1        0.1002
     39 C          58.0180   81.0103    8.4245 C.ar    1  UNL1        0.0353
     40 C          60.1463   80.3400   12.9332 C.3     1  UNL1        0.0569
     41 C          61.6012   80.6328   13.1782 C.ar    1  UNL1       -0.0017
     42 C          62.2915   80.4541   14.3736 C.ar    1  UNL1        0.0681
     43 N          63.5616   80.9041   14.2573 N.ar    1  UNL1       -0.3523
     44 C          63.6768   81.3724   13.0024 C.ar    1  UNL1        0.0563
     45 C          64.7987   81.9616   12.4205 C.ar    1  UNL1        0.0170
     46 C          64.6926   82.4064   11.0899 C.ar    1  UNL1        0.0015
     47 C          63.4815   82.2546   10.3789 C.ar    1  UNL1        0.0001
     48 C          62.3662   81.6557   10.9913 C.ar    1  UNL1        0.0012
     49 C          62.5008   81.2253   12.3122 C.ar    1  UNL1        0.0131
     50 H          64.2955   80.9023   15.0002 H       1  UNL1        0.1660
@<TRIPOS>BOND
     1    27    28    1
     2    28    12    1
     3    12    13    1
     4    13    14    1
     5    14     5    1
     6     5     6   ar
     7     6     7   ar
     8     7     8   ar
     9     8     1    1
    10     1     2    2
    11     1     3   am
    12     3    29    1
    13    29    40    1
    14    40    41    1
    15    41    42   ar
    16    42    43   ar
    17    43    44   ar
    18    44    45   ar
    19    45    46   ar
    20    46    47   ar
    21    47    48   ar
    22    48    49   ar
    23    29    30    1
    24    30    31    2
    25    30    32   am
    26    32    34    1
    27    34    35   ar
    28    35    36   ar
    29    36    37   ar
    30    37    38   ar
    31    38    39   ar
    32     8     9   ar
    33     9    10    1
    34     9    11   ar
    35    14    15    1
    36    15    16    1
    37    16    17    1
    38    17    18    1
    39    18    19   ar
    40    19    20   ar
    41    20    21    1
    42    20    22   ar
    43    22    23   ar
    44    23    24   ar
    45    24    25    1
    46    25    26    1
    47    17    12    1
    48    24    18   ar
    49    11     5   ar
    50    49    41   ar
    51    39    34   ar
    52    49    44   ar
    53     3     4    1
    54    43    50    1
    55    32    33    1
@<TRIPOS>MOLECULE
*****
 50 55 0 0 0
SMALL
GASTEIGER

@<TRIPOS>ATOM
      1 C          64.1539   88.9229   13.6311 C.2     1  UNL1        0.2483
      2 O          64.6382   89.0183   14.7923 O.2     1  UNL1       -0.2701
      3 N          64.3473   89.9873   12.6858 N.am    1  UNL1       -0.2945
      4 H          63.7223   90.0160   11.8488 H       1  UNL1        0.1501
      5 C          61.8208   85.4726   12.5553 C.ar    1  UNL1        0.0502
      6 C          61.6247   86.7010   11.9072 C.ar    1  UNL1        0.0148
      7 C          62.3830   87.8182   12.2658 C.ar    1  UNL1        0.0080
      8 C          63.3569   87.7272   13.2748 C.ar    1  UNL1        0.0808
      9 C          63.5391   86.4980   13.9389 C.ar    1  UNL1        0.1457
     10 F          64.4122   86.3830   14.9715 F       1  UNL1       -0.2040
     11 C          62.7777   85.3825   13.5765 C.ar    1  UNL1        0.0443
     12 C          60.4881   82.8993   10.2554 C.3     1  UNL1        0.0926
     13 C          61.5698   83.3090   11.2729 C.3     1  UNL1        0.1105
     14 N          61.0366   84.3208   12.1951 N.pl3   1  UNL1       -0.3041
     15 C          59.7858   84.0213   12.9042 C.3     1  UNL1        0.1122
     16 C          58.7072   83.6053   11.9030 C.3     1  UNL1        0.1123
     17 N          59.2464   82.5912   10.9859 N.pl3   1  UNL1       -0.3034
     18 C          58.7138   81.2511   10.9815 C.ar    1  UNL1        0.0832
     19 C          58.9348   80.4065   12.0830 C.ar    1  UNL1        0.0290
     20 C          58.4409   79.0999   12.0859 C.ar    1  UNL1        0.0591
     21 CL         58.7293   78.0558   13.4657 Cl      1  UNL1       -0.0822
     22 C          57.7228   78.6238   10.9880 C.ar    1  UNL1        0.0146
     23 C          57.4950   79.4512    9.8866 C.ar    1  UNL1        0.0390
     24 C          57.9848   80.7724    9.8728 C.ar    1  UNL1        0.1519
     25 O          57.7569   81.6333    8.7880 O.3     1  UNL1       -0.4702
     26 C          58.2100   81.4001    7.4591 C.3     1  UNL1        0.2525
     27 C          61.3926   84.1716    8.2289 C.3     1  UNL1        0.0018
     28 C          60.2301   84.0086    9.2078 C.3     1  UNL1        0.0215
     29 C          65.1612   91.1698   12.9947 C.3     1  UNL1        0.1535
     30 C          65.4121   91.9998   11.7576 C.2     1  UNL1        0.2443
     31 O          64.4512   92.5803   11.1815 O.2     1  UNL1       -0.2730
     32 N          66.7606   92.2144   11.3108 N.am    1  UNL1       -0.2825
     33 H          67.5360   91.8955   11.9352 H       1  UNL1        0.1549
     34 C          67.1047   93.0223   10.1736 C.ar    1  UNL1        0.0535
     35 C          66.3401   94.1436    9.8123 C.ar    1  UNL1        0.0353
     36 C          66.7046   94.8925    8.6904 C.ar    1  UNL1        0.1002
     37 N          67.7843   94.5292    7.9486 N.ar    1  UNL1       -0.2422
     38 C          68.5316   93.4390    8.2655 C.ar    1  UNL1        0.1002
     39 C          68.2003   92.6617    9.3779 C.ar    1  UNL1        0.0353
     40 C          64.4995   92.0065   14.1072 C.3     1  UNL1        0.0569
     41 C          65.4529   92.3549   15.2172 C.ar    1  UNL1       -0.0017
     42 C          65.1121   92.7821   16.4973 C.ar    1  UNL1        0.0681
     43 N          66.2233   93.0903   17.2038 N.ar    1  UNL1       -0.3523
     44 C          67.2617   92.8696   16.3789 C.ar    1  UNL1        0.0563
     45 C          68.6144   93.0696   16.6517 C.ar    1  UNL1        0.0170
     46 C          69.5396   92.7949   15.6279 C.ar    1  UNL1        0.0015
     47 C          69.0973   92.3322   14.3687 C.ar    1  UNL1        0.0001
     48 C          67.7263   92.1387   14.1222 C.ar    1  UNL1        0.0012
     49 C          66.8321   92.4206   15.1562 C.ar    1  UNL1        0.0131
     50 H          66.2613   93.4448   18.1853 H       1  UNL1        0.1660
@<TRIPOS>BOND
     1    27    28    1
     2    28    12    1
     3    12    13    1
     4    13    14    1
     5    14     5    1
     6     5     6   ar
     7     6     7   ar
     8     7     8   ar
     9     8     1    1
    10     1     2    2
    11     1     3   am
    12     3    29    1
    13    29    40    1
    14    40    41    1
    15    41    42   ar
    16    42    43   ar
    17    43    44   ar
    18    44    45   ar
    19    45    46   ar
    20    46    47   ar
    21    47    48   ar
    22    48    49   ar
    23    29    30    1
    24    30    31    2
    25    30    32   am
    26    32    34    1
    27    34    35   ar
    28    35    36   ar
    29    36    37   ar
    30    37    38   ar
    31    38    39   ar
    32     8     9   ar
    33     9    10    1
    34     9    11   ar
    35    14    15    1
    36    15    16    1
    37    16    17    1
    38    17    18    1
    39    18    19   ar
    40    19    20   ar
    41    20    21    1
    42    20    22   ar
    43    22    23   ar
    44    23    24   ar
    45    24    25    1
    46    25    26    1
    47    17    12    1
    48    24    18   ar
    49    11     5   ar
    50    49    41   ar
    51    39    34   ar
    52    49    44   ar
    53     3     4    1
    54    43    50    1
    55    32    33    1
@<TRIPOS>MOLECULE
*****
 50 55 0 0 0
SMALL
GASTEIGER

@<TRIPOS>ATOM
      1 C          63.9873   90.3838   12.4809 C.2     1  UNL1        0.2483
      2 O          63.6596   91.5596   12.1614 O.2     1  UNL1       -0.2701
      3 N          65.1087   90.1656   13.3520 N.am    1  UNL1       -0.2945
      4 H          65.5254   89.2077   13.3801 H       1  UNL1        0.1501
      5 C          61.7897   87.0460   10.8886 C.ar    1  UNL1        0.0502
      6 C          62.3628   86.9826   12.1673 C.ar    1  UNL1        0.0148
      7 C          63.0793   88.0691   12.6753 C.ar    1  UNL1        0.0080
      8 C          63.2309   89.2426   11.9173 C.ar    1  UNL1        0.0808
      9 C          62.6721   89.2978   10.6252 C.ar    1  UNL1        0.1457
     10 F          62.8592   90.3795    9.8272 F       1  UNL1       -0.2040
     11 C          61.9558   88.2079   10.1209 C.ar    1  UNL1        0.0443
     12 C          61.2075   84.1817    8.6206 C.3     1  UNL1        0.0926
     13 C          61.7529   84.6925    9.9678 C.3     1  UNL1        0.1105
     14 N          61.0576   85.9266   10.3575 N.pl3   1  UNL1       -0.3041
     15 C          59.5896   85.9114   10.3978 C.3     1  UNL1        0.1122
     16 C          59.0380   85.3978    9.0671 C.3     1  UNL1        0.1123
     17 N          59.7358   84.1620    8.6850 N.pl3   1  UNL1       -0.3034
     18 C          59.0215   82.9114    8.6097 C.ar    1  UNL1        0.0832
     19 C          58.6794   82.3752    7.3564 C.ar    1  UNL1        0.0290
     20 C          57.9717   81.1742    7.2676 C.ar    1  UNL1        0.0591
     21 CL         57.5472   80.5199    5.6963 Cl      1  UNL1       -0.0822
     22 C          57.5975   80.4980    8.4297 C.ar    1  UNL1        0.0146
     23 C          57.9306   81.0183    9.6819 C.ar    1  UNL1        0.0390
     24 C          58.6473   82.2271    9.7851 C.ar    1  UNL1        0.1519
     25 O          59.0118   82.7659   11.0288 O.3     1  UNL1       -0.4702
     26 C          58.3678   82.4658   12.2621 C.3     1  UNL1        0.2525
     27 C          61.8422   84.2597    6.1438 C.3     1  UNL1        0.0018
     28 C          61.6784   85.0593    7.4361 C.3     1  UNL1        0.0215
     29 C          65.8578   91.2748   13.9560 C.3     1  UNL1        0.1535
     30 C          66.1289   92.3657   12.9467 C.2     1  UNL1        0.2443
     31 O          66.1365   93.5740   13.3101 O.2     1  UNL1       -0.2730
     32 N          66.4880   92.0118   11.6013 N.am    1  UNL1       -0.2825
     33 H          66.6783   91.0043   11.3982 H       1  UNL1        0.1549
     34 C          66.8064   92.9731   10.5821 C.ar    1  UNL1        0.0535
     35 C          65.9038   93.9874   10.2228 C.ar    1  UNL1        0.0353
     36 C          66.2507   94.8924    9.2165 C.ar    1  UNL1        0.1002
     37 N          67.4483   94.7825    8.5827 N.ar    1  UNL1       -0.2422
     38 C          68.3334   93.8004    8.8985 C.ar    1  UNL1        0.1002
     39 C          68.0247   92.8737    9.8971 C.ar    1  UNL1        0.0353
     40 C          65.1127   91.8232   15.1886 C.3     1  UNL1        0.0569
     41 C          64.0905   90.8595   15.7260 C.ar    1  UNL1       -0.0017
     42 C          62.9633   91.1819   16.4762 C.ar    1  UNL1        0.0681
     43 N          62.3176   90.0589   16.8648 N.ar    1  UNL1       -0.3523
     44 C          63.0313   89.0308   16.3739 C.ar    1  UNL1        0.0563
     45 C          62.7724   87.6701   16.5343 C.ar    1  UNL1        0.0170
     46 C          63.6695   86.7565   15.9510 C.ar    1  UNL1        0.0015
     47 C          64.7926   87.2178   15.2291 C.ar    1  UNL1        0.0001
     48 C          65.0281   88.5965   15.0828 C.ar    1  UNL1        0.0012
     49 C          64.1219   89.4788   15.6733 C.ar    1  UNL1        0.0131
     50 H          61.4504   90.0055   17.4441 H       1  UNL1        0.1660
@<TRIPOS>BOND
     1    27    28    1
     2    28    12    1
     3    12    13    1
     4    13    14    1
     5    14     5    1
     6     5     6   ar
     7     6     7   ar
     8     7     8   ar
     9     8     1    1
    10     1     2    2
    11     1     3   am
    12     3    29    1
    13    29    40    1
    14    40    41    1
    15    41    42   ar
    16    42    43   ar
    17    43    44   ar
    18    44    45   ar
    19    45    46   ar
    20    46    47   ar
    21    47    48   ar
    22    48    49   ar
    23    29    30    1
    24    30    31    2
    25    30    32   am
    26    32    34    1
    27    34    35   ar
    28    35    36   ar
    29    36    37   ar
    30    37    38   ar
    31    38    39   ar
    32     8     9   ar
    33     9    10    1
    34     9    11   ar
    35    14    15    1
    36    15    16    1
    37    16    17    1
    38    17    18    1
    39    18    19   ar
    40    19    20   ar
    41    20    21    1
    42    20    22   ar
    43    22    23   ar
    44    23    24   ar
    45    24    25    1
    46    25    26    1
    47    17    12    1
    48    24    18   ar
    49    11     5   ar
    50    49    41   ar
    51    39    34   ar
    52    49    44   ar
    53     3     4    1
    54    43    50    1
    55    32    33    1
@<TRIPOS>MOLECULE
*****
 50 55 0 0 0
SMALL
GASTEIGER

@<TRIPOS>ATOM
      1 C          60.3654   85.2912    9.4828 C.2     1  UNL1        0.2483
      2 O          59.5955   85.7633    8.6017 O.2     1  UNL1       -0.2701
      3 N          60.4130   83.8727    9.7053 N.am    1  UNL1       -0.2945
      4 H          60.8328   83.5331   10.6000 H       1  UNL1        0.1501
      5 C          62.7344   88.0103   11.8279 C.ar    1  UNL1        0.0502
      6 C          62.5296   88.2356   10.4586 C.ar    1  UNL1        0.0148
      7 C          61.7631   87.3451    9.7029 C.ar    1  UNL1        0.0080
      8 C          61.1808   86.2156   10.3029 C.ar    1  UNL1        0.0808
      9 C          61.4038   85.9795   11.6738 C.ar    1  UNL1        0.1457
     10 F          60.9270   84.8618   12.2783 F       1  UNL1       -0.2040
     11 C          62.1718   86.8736   12.4263 C.ar    1  UNL1        0.0443
     12 C          64.1236   89.4332   14.9476 C.3     1  UNL1        0.0926
     13 C          64.2839   88.4447   13.7770 C.3     1  UNL1        0.1105
     14 N          63.5299   88.9203   12.6092 N.pl3   1  UNL1       -0.3041
     15 C          63.7793   90.2871   12.1333 C.3     1  UNL1        0.1122
     16 C          63.6305   91.2759   13.2905 C.3     1  UNL1        0.1123
     17 N          64.3894   90.7955   14.4539 N.pl3   1  UNL1       -0.3034
     18 C          65.5228   91.5390   14.9463 C.ar    1  UNL1        0.0832
     19 C          66.7328   91.5256   14.2313 C.ar    1  UNL1        0.0290
     20 C          67.8448   92.2259   14.7048 C.ar    1  UNL1        0.0591
     21 CL         69.3497   92.1955   13.8041 Cl      1  UNL1       -0.0822
     22 C          67.7595   92.9449   15.8979 C.ar    1  UNL1        0.0146
     23 C          66.5641   92.9678   16.6191 C.ar    1  UNL1        0.0390
     24 C          65.4340   92.2685   16.1504 C.ar    1  UNL1        0.1519
     25 O          64.2139   92.2870   16.8438 O.3     1  UNL1       -0.4702
     26 C          63.5311   93.4674   17.2513 C.3     1  UNL1        0.2525
     27 C          62.4905   88.0712   16.3694 C.3     1  UNL1        0.0018
     28 C          62.7119   89.3596   15.5773 C.3     1  UNL1        0.0215
     29 C          59.6446   82.9261    8.8869 C.3     1  UNL1        0.1535
     30 C          60.3053   81.5678    8.8558 C.2     1  UNL1        0.2443
     31 O          60.2360   80.8560    7.8163 O.2     1  UNL1       -0.2730
     32 N          61.1044   81.1438    9.9719 N.am    1  UNL1       -0.2825
     33 H          61.3101   81.8471   10.7174 H       1  UNL1        0.1549
     34 C          61.8071   79.8915   10.0193 C.ar    1  UNL1        0.0535
     35 C          61.4591   78.8896   10.9400 C.ar    1  UNL1        0.0353
     36 C          62.1791   77.6923   10.9588 C.ar    1  UNL1        0.1002
     37 N          63.2162   77.5058   10.1000 N.ar    1  UNL1       -0.2422
     38 C          63.5853   78.4651    9.2105 C.ar    1  UNL1        0.1002
     39 C          62.8932   79.6775    9.1603 C.ar    1  UNL1        0.0353
     40 C          58.1909   82.8316    9.3899 C.3     1  UNL1        0.0569
     41 C          58.0820   82.9780   10.8830 C.ar    1  UNL1       -0.0017
     42 C          58.1627   81.9546   11.8229 C.ar    1  UNL1        0.0681
     43 N          57.9325   82.4356   13.0657 N.ar    1  UNL1       -0.3523
     44 C          57.6991   83.7513   12.9180 C.ar    1  UNL1        0.0563
     45 C          57.3875   84.6713   13.9184 C.ar    1  UNL1        0.0170
     46 C          57.1566   86.0056   13.5363 C.ar    1  UNL1        0.0015
     47 C          57.2409   86.3861   12.1786 C.ar    1  UNL1        0.0001
     48 C          57.5580   85.4365   11.1910 C.ar    1  UNL1        0.0012
     49 C          57.7806   84.1207   11.5997 C.ar    1  UNL1        0.0131
     50 H          57.9215   81.8887   13.9552 H       1  UNL1        0.1660
@<TRIPOS>BOND
     1    27    28    1
     2    28    12    1
     3    12    13    1
     4    13    14    1
     5    14     5    1
     6     5     6   ar
     7     6     7   ar
     8     7     8   ar
     9     8     1    1
    10     1     2    2
    11     1     3   am
    12     3    29    1
    13    29    40    1
    14    40    41    1
    15    41    42   ar
    16    42    43   ar
    17    43    44   ar
    18    44    45   ar
    19    45    46   ar
    20    46    47   ar
    21    47    48   ar
    22    48    49   ar
    23    29    30    1
    24    30    31    2
    25    30    32   am
    26    32    34    1
    27    34    35   ar
    28    35    36   ar
    29    36    37   ar
    30    37    38   ar
    31    38    39   ar
    32     8     9   ar
    33     9    10    1
    34     9    11   ar
    35    14    15    1
    36    15    16    1
    37    16    17    1
    38    17    18    1
    39    18    19   ar
    40    19    20   ar
    41    20    21    1
    42    20    22   ar
    43    22    23   ar
    44    23    24   ar
    45    24    25    1
    46    25    26    1
    47    17    12    1
    48    24    18   ar
    49    11     5   ar
    50    49    41   ar
    51    39    34   ar
    52    49    44   ar
    53     3     4    1
    54    43    50    1
    55    32    33    1
@<TRIPOS>MOLECULE
*****
 50 55 0 0 0
SMALL
GASTEIGER

@<TRIPOS>ATOM
      1 C          59.9247   84.9031    9.4546 C.2     1  UNL1        0.2483
      2 O          58.9029   85.2596    8.8059 O.2     1  UNL1       -0.2701
      3 N          60.2416   83.5074    9.5796 N.am    1  UNL1       -0.2945
      4 H          60.9107   83.2245   10.3307 H       1  UNL1        0.1501
      5 C          62.3499   87.9243   11.3245 C.ar    1  UNL1        0.0502
      6 C          62.0313   88.0034    9.9607 C.ar    1  UNL1        0.0148
      7 C          61.2472   87.0156    9.3597 C.ar    1  UNL1        0.0080
      8 C          60.7609   85.9329   10.1121 C.ar    1  UNL1        0.0808
      9 C          61.0982   85.8438   11.4771 C.ar    1  UNL1        0.1457
     10 F          60.7167   84.7769   12.2243 F       1  UNL1       -0.2040
     11 C          61.8832   86.8350   12.0744 C.ar    1  UNL1        0.0443
     12 C          63.9323   89.6864   14.1667 C.3     1  UNL1        0.0926
     13 C          64.0394   88.6015   13.0782 C.3     1  UNL1        0.1105
     14 N          63.1639   88.9351   11.9465 N.pl3   1  UNL1       -0.3041
     15 C          63.3024   90.2613   11.3311 C.3     1  UNL1        0.1122
     16 C          63.2056   91.3458   12.4051 C.3     1  UNL1        0.1123
     17 N          64.0859   91.0071   13.5324 N.pl3   1  UNL1       -0.3034
     18 C          65.2192   91.8397   13.8518 C.ar    1  UNL1        0.0832
     19 C          65.8743   91.6868   15.0859 C.ar    1  UNL1        0.0290
     20 C          66.9620   92.4981   15.4173 C.ar    1  UNL1        0.0591
     21 CL         67.7663   92.2990   16.9635 Cl      1  UNL1       -0.0822
     22 C          67.4050   93.4709   14.5201 C.ar    1  UNL1        0.0146
     23 C          66.7644   93.6344   13.2902 C.ar    1  UNL1        0.0390
     24 C          65.6683   92.8200   12.9423 C.ar    1  UNL1        0.1519
     25 O          65.0153   92.9487   11.7066 O.3     1  UNL1       -0.4702
     26 C          65.6228   93.4374   10.5159 C.3     1  UNL1        0.2525
     27 C          62.5266   88.4343   15.8987 C.3     1  UNL1        0.0018
     28 C          62.5862   89.6122   14.9265 C.3     1  UNL1        0.0215
     29 C          59.4543   82.4634    8.9114 C.3     1  UNL1        0.1535
     30 C          60.2057   81.1535    8.8703 C.2     1  UNL1        0.2443
     31 O          60.0981   80.3954    7.8674 O.2     1  UNL1       -0.2730
     32 N          61.1265   80.8324    9.9254 N.am    1  UNL1       -0.2825
     33 H          61.3448   81.5789   10.6238 H       1  UNL1        0.1549
     34 C          61.9188   79.6341    9.9549 C.ar    1  UNL1        0.0535
     35 C          61.6511   78.6002   10.8669 C.ar    1  UNL1        0.0353
     36 C          62.4564   77.4584   10.8684 C.ar    1  UNL1        0.1002
     37 N          63.4983   77.3567   10.0011 N.ar    1  UNL1       -0.2422
     38 C          63.7902   78.3494    9.1197 C.ar    1  UNL1        0.1002
     39 C          63.0115   79.5086    9.0868 C.ar    1  UNL1        0.0353
     40 C          58.0812   82.3018    9.5925 C.3     1  UNL1        0.0569
     41 C          58.1916   82.0673   11.0741 C.ar    1  UNL1       -0.0017
     42 C          58.2612   83.0438   12.0636 C.ar    1  UNL1        0.0681
     43 N          58.4438   82.4746   13.2768 N.ar    1  UNL1       -0.3523
     44 C          58.4982   81.1488   13.0612 C.ar    1  UNL1        0.0563
     45 C          58.6996   80.1465   14.0094 C.ar    1  UNL1        0.0170
     46 C          58.7457   78.8144   13.5589 C.ar    1  UNL1        0.0015
     47 C          58.5918   78.5171   12.1866 C.ar    1  UNL1        0.0001
     48 C          58.3891   79.5488   11.2526 C.ar    1  UNL1        0.0012
     49 C          58.3491   80.8602   11.7287 C.ar    1  UNL1        0.0131
     50 H          58.5403   82.9698   14.1910 H       1  UNL1        0.1660
@<TRIPOS>BOND
     1    27    28    1
     2    28    12    1
     3    12    13    1
     4    13    14    1
     5    14     5    1
     6     5     6   ar
     7     6     7   ar
     8     7     8   ar
     9     8     1    1
    10     1     2    2
    11     1     3   am
    12     3    29    1
    13    29    40    1
    14    40    41    1
    15    41    42   ar
    16    42    43   ar
    17    43    44   ar
    18    44    45   ar
    19    45    46   ar
    20    46    47   ar
    21    47    48   ar
    22    48    49   ar
    23    29    30    1
    24    30    31    2
    25    30    32   am
    26    32    34    1
    27    34    35   ar
    28    35    36   ar
    29    36    37   ar
    30    37    38   ar
    31    38    39   ar
    32     8     9   ar
    33     9    10    1
    34     9    11   ar
    35    14    15    1
    36    15    16    1
    37    16    17    1
    38    17    18    1
    39    18    19   ar
    40    19    20   ar
    41    20    21    1
    42    20    22   ar
    43    22    23   ar
    44    23    24   ar
    45    24    25    1
    46    25    26    1
    47    17    12    1
    48    24    18   ar
    49    11     5   ar
    50    49    41   ar
    51    39    34   ar
    52    49    44   ar
    53     3     4    1
    54    43    50    1
    55    32    33    1
@<TRIPOS>MOLECULE
*****
 50 55 0 0 0
SMALL
GASTEIGER

@<TRIPOS>ATOM
      1 C          60.7357   83.6228   10.8638 C.2     1  UNL1        0.2483
      2 O          59.6442   83.2360   11.3649 O.2     1  UNL1       -0.2701
      3 N          61.2821   82.9386    9.7248 N.am    1  UNL1       -0.2945
      4 H          62.2920   83.0897    9.5032 H       1  UNL1        0.1501
      5 C          62.7946   86.9453   12.6603 C.ar    1  UNL1        0.0502
      6 C          61.6620   87.1522   11.8591 C.ar    1  UNL1        0.0148
      7 C          61.0018   86.0683   11.2751 C.ar    1  UNL1        0.0080
      8 C          61.4573   84.7558   11.4864 C.ar    1  UNL1        0.0808
      9 C          62.6068   84.5506   12.2748 C.ar    1  UNL1        0.1457
     10 F          63.1282   83.3088   12.4423 F       1  UNL1       -0.2040
     11 C          63.2643   85.6386   12.8573 C.ar    1  UNL1        0.0443
     12 C          63.9956   89.0447   15.4598 C.3     1  UNL1        0.0926
     13 C          64.2700   87.8833   14.4856 C.3     1  UNL1        0.1105
     14 N          63.4830   88.0591   13.2575 N.pl3   1  UNL1       -0.3041
     15 C          63.5940   89.3360   12.5405 C.3     1  UNL1        0.1122
     16 C          63.3312   90.4965   13.5013 C.3     1  UNL1        0.1123
     17 N          64.1236   90.3157   14.7259 N.pl3   1  UNL1       -0.3034
     18 C          65.1684   91.2497   15.0662 C.ar    1  UNL1        0.0832
     19 C          66.4106   91.1790   14.4125 C.ar    1  UNL1        0.0290
     20 C          67.4384   92.0649   14.7439 C.ar    1  UNL1        0.0591
     21 CL         68.9852   91.9612   13.9229 Cl      1  UNL1       -0.0822
     22 C          67.2360   93.0289   15.7326 C.ar    1  UNL1        0.0146
     23 C          66.0072   93.1115   16.3906 C.ar    1  UNL1        0.0390
     24 C          64.9611   92.2260   16.0630 C.ar    1  UNL1        0.1519
     25 O          63.7095   92.2957   16.6943 O.3     1  UNL1       -0.4702
     26 C          63.1914   93.4528   17.3413 C.3     1  UNL1        0.2525
     27 C          62.2117   87.4991   16.4457 C.3     1  UNL1        0.0018
     28 C          62.5927   88.9394   16.1044 C.3     1  UNL1        0.0215
     29 C          60.5757   81.8349    9.0620 C.3     1  UNL1        0.1535
     30 C          59.7817   81.0188   10.0549 C.2     1  UNL1        0.2443
     31 O          58.6707   80.5235    9.7194 O.2     1  UNL1       -0.2730
     32 N          60.3507   80.7177   11.3393 N.am    1  UNL1       -0.2825
     33 H          61.3543   80.9645   11.4961 H       1  UNL1        0.1549
     34 C          59.6945   79.9144   12.3335 C.ar    1  UNL1        0.0535
     35 C          59.1559   78.6555   12.0207 C.ar    1  UNL1        0.0353
     36 C          58.5146   77.9148   13.0168 C.ar    1  UNL1        0.1002
     37 N          58.4030   78.4163   14.2754 N.ar    1  UNL1       -0.2422
     38 C          58.8999   79.6388   14.6013 C.ar    1  UNL1        0.1002
     39 C          59.5464   80.4127   13.6347 C.ar    1  UNL1        0.0353
     40 C          59.6775   82.3699    7.9296 C.3     1  UNL1        0.0569
     41 C          59.0092   83.6702    8.2831 C.ar    1  UNL1       -0.0017
     42 C          57.7031   83.8332    8.7357 C.ar    1  UNL1        0.0681
     43 N          57.4100   85.1467    8.8693 N.ar    1  UNL1       -0.3523
     44 C          58.5161   85.8143    8.4974 C.ar    1  UNL1        0.0563
     45 C          58.6900   87.1967    8.4430 C.ar    1  UNL1        0.0170
     46 C          59.9318   87.6865    7.9985 C.ar    1  UNL1        0.0015
     47 C          60.9601   86.7942    7.6222 C.ar    1  UNL1        0.0001
     48 C          60.7565   85.4043    7.6881 C.ar    1  UNL1        0.0012
     49 C          59.5144   84.9478    8.1317 C.ar    1  UNL1        0.0131
     50 H          56.5012   85.5555    9.1813 H       1  UNL1        0.1660
@<TRIPOS>BOND
     1    27    28    1
     2    28    12    1
     3    12    13    1
     4    13    14    1
     5    14     5    1
     6     5     6   ar
     7     6     7   ar
     8     7     8   ar
     9     8     1    1
    10     1     2    2
    11     1     3   am
    12     3    29    1
    13    29    40    1
    14    40    41    1
    15    41    42   ar
    16    42    43   ar
    17    43    44   ar
    18    44    45   ar
    19    45    46   ar
    20    46    47   ar
    21    47    48   ar
    22    48    49   ar
    23    29    30    1
    24    30    31    2
    25    30    32   am
    26    32    34    1
    27    34    35   ar
    28    35    36   ar
    29    36    37   ar
    30    37    38   ar
    31    38    39   ar
    32     8     9   ar
    33     9    10    1
    34     9    11   ar
    35    14    15    1
    36    15    16    1
    37    16    17    1
    38    17    18    1
    39    18    19   ar
    40    19    20   ar
    41    20    21    1
    42    20    22   ar
    43    22    23   ar
    44    23    24   ar
    45    24    25    1
    46    25    26    1
    47    17    12    1
    48    24    18   ar
    49    11     5   ar
    50    49    41   ar
    51    39    34   ar
    52    49    44   ar
    53     3     4    1
    54    43    50    1
    55    32    33    1
