@<TRIPOS>MOLECULE
*****
 37 42 0 0 0
SMALL
GASTEIGER

@<TRIPOS>ATOM
      1 C         -26.0562   -8.6359  -13.2942 C.ar    1  UNL1        0.1379
      2 N         -27.3803   -8.9275  -13.1089 N.ar    1  UNL1       -0.2089
      3 C         -28.3733   -8.0386  -13.4226 C.ar    1  UNL1        0.2014
      4 N         -28.0655   -6.8012  -13.9066 N.ar    1  UNL1       -0.2050
      5 C         -26.7595   -6.4954  -14.0910 C.ar    1  UNL1        0.1654
      6 C         -25.7524   -7.3794  -13.8383 C.ar    1  UNL1        0.0865
      7 C         -24.6027   -6.7120  -14.2499 C.ar    1  UNL1        0.1095
      8 N         -24.9490   -5.4831  -14.7074 N.ar    1  UNL1       -0.1677
      9 N         -26.2633   -5.3507  -14.5834 N.ar    1  UNL1       -0.2319
     10 C         -27.0188   -4.1974  -15.0538 C.3     1  UNL1        0.1554
     11 C         -23.2644   -7.2767  -14.4469 C.ar    1  UNL1        0.0577
     12 C         -22.2761   -7.3958  -13.4923 C.ar    1  UNL1        0.1231
     13 N         -21.1697   -7.9166  -14.0593 N.ar    1  UNL1       -0.1676
     14 N         -21.4351   -8.1396  -15.3378 N.ar    1  UNL1       -0.2488
     15 C         -20.4483   -8.6532  -16.2815 C.3     1  UNL1        0.1537
     16 C         -22.7041   -7.7670  -15.6112 C.ar    1  UNL1        0.0809
     17 C         -23.3204   -7.7588  -16.9511 C.ar    1  UNL1        0.0174
     18 C         -23.8522   -6.5710  -17.4732 C.ar    1  UNL1        0.0012
     19 C         -24.4493   -6.5625  -18.7370 C.ar    1  UNL1       -0.0042
     20 C         -24.5089   -7.7390  -19.4992 C.ar    1  UNL1       -0.0218
     21 C         -25.1858   -7.7390  -20.8377 C.3     1  UNL1        0.0310
     22 C         -23.9901   -8.9303  -18.9694 C.ar    1  UNL1       -0.0042
     23 C         -23.3930   -8.9383  -17.7055 C.ar    1  UNL1        0.0012
     24 C         -24.3479   -9.2664  -11.5321 C.3     1  UNL1        0.1182
     25 C         -22.8913   -9.6870  -11.8020 C.3     1  UNL1        0.0799
     26 C         -22.9619  -10.7050  -12.9477 C.3     1  UNL1        0.0392
     27 C         -24.2281  -10.3211  -13.7090 C.3     1  UNL1        0.0937
     28 N         -25.0516   -9.5369  -12.7882 N.pl3   1  UNL1       -0.2909
     29 N         -22.1101  -10.0491  -10.5786 N.3     1  UNL1       -0.2723
     30 C         -20.9257  -10.9412  -10.7050 C.3     1  UNL1        0.0721
     31 C         -19.5785  -10.2422  -10.4185 C.3     1  UNL1        0.0174
     32 C         -19.5952   -8.7748  -10.8495 C.3     1  UNL1        0.0029
     33 C         -20.7519   -7.9918  -10.2001 C.3     1  UNL1        0.0174
     34 C         -21.8703   -8.9071   -9.6732 C.3     1  UNL1        0.0721
     35 C         -25.0552   -9.9708  -10.3629 C.3     1  UNL1        0.1632
     36 C         -26.7329   -8.6004   -9.5831 C.3     1  UNL1        0.1742
     37 O         -25.4115   -9.0401   -9.3639 O.3     1  UNL1       -0.3493
@<TRIPOS>BOND
     1    36    37    1
     2    37    35    1
     3    35    24    1
     4    24    25    1
     5    25    29    1
     6    29    30    1
     7    30    31    1
     8    31    32    1
     9    32    33    1
    10    33    34    1
    11    25    26    1
    12    26    27    1
    13    27    28    1
    14    28     1    1
    15     1     2   ar
    16     2     3   ar
    17     3     4   ar
    18     4     5   ar
    19     5     6   ar
    20     6     7   ar
    21     7    11    1
    22    11    12   ar
    23    12    13   ar
    24    13    14   ar
    25    14    15    1
    26    14    16   ar
    27    16    17    1
    28    17    18   ar
    29    18    19   ar
    30    19    20   ar
    31    20    21    1
    32    20    22   ar
    33    22    23   ar
    34     7     8   ar
    35     8     9   ar
    36     9    10    1
    37    28    24    1
    38     6     1   ar
    39    16    11   ar
    40    23    17   ar
    41    34    29    1
    42     9     5   ar
@<TRIPOS>MOLECULE
*****
 37 42 0 0 0
SMALL
GASTEIGER

@<TRIPOS>ATOM
      1 C         -22.5696   -8.5922  -12.5176 C.ar    1  UNL1        0.1379
      2 N         -21.2359   -8.8978  -12.5338 N.ar    1  UNL1       -0.2089
      3 C         -20.2726   -7.9739  -12.2288 C.ar    1  UNL1        0.2014
      4 N         -20.6180   -6.6895  -11.9267 N.ar    1  UNL1       -0.2050
      5 C         -21.9335   -6.3698  -11.9112 C.ar    1  UNL1        0.1654
      6 C         -22.9169   -7.2817  -12.1580 C.ar    1  UNL1        0.0865
      7 C         -24.0969   -6.5756  -11.9448 C.ar    1  UNL1        0.1095
      8 N         -23.7890   -5.3000  -11.6024 N.ar    1  UNL1       -0.1677
      9 N         -22.4679   -5.1773  -11.6088 N.ar    1  UNL1       -0.2319
     10 C         -21.7546   -3.9735  -11.2038 C.3     1  UNL1        0.1554
     11 C         -25.4525   -7.1190  -11.8179 C.ar    1  UNL1        0.0577
     12 C         -25.8955   -8.0007  -10.8543 C.ar    1  UNL1        0.1231
     13 N         -27.1859   -8.3091  -11.0925 N.ar    1  UNL1       -0.1676
     14 N         -27.5715   -7.6398  -12.1686 N.ar    1  UNL1       -0.2488
     15 C         -28.9003   -7.7685  -12.7566 C.3     1  UNL1        0.1537
     16 C         -26.5439   -6.8990  -12.6367 C.ar    1  UNL1        0.0809
     17 C         -26.5591   -6.1114  -13.8835 C.ar    1  UNL1        0.0174
     18 C         -27.5856   -5.1852  -14.1177 C.ar    1  UNL1        0.0012
     19 C         -27.6109   -4.4469  -15.3043 C.ar    1  UNL1       -0.0042
     20 C         -26.6017   -4.6162  -16.2643 C.ar    1  UNL1       -0.0218
     21 C         -26.6510   -3.8538  -17.5551 C.3     1  UNL1        0.0310
     22 C         -25.5834   -5.5541  -16.0357 C.ar    1  UNL1       -0.0042
     23 C         -25.5586   -6.2923  -14.8489 C.ar    1  UNL1        0.0012
     24 C         -23.4854  -10.9537  -12.5924 C.3     1  UNL1        0.1182
     25 C         -23.8078  -11.7529  -13.8687 C.3     1  UNL1        0.0799
     26 C         -24.5858  -10.7883  -14.7732 C.3     1  UNL1        0.0392
     27 C         -24.0945   -9.4056  -14.3526 C.3     1  UNL1        0.0937
     28 N         -23.5253   -9.5508  -13.0124 N.pl3   1  UNL1       -0.2909
     29 N         -24.3799  -13.1134  -13.6244 N.3     1  UNL1       -0.2723
     30 C         -25.7358  -13.4403  -14.1434 C.3     1  UNL1        0.0721
     31 C         -25.7390  -14.4878  -15.2784 C.3     1  UNL1        0.0174
     32 C         -24.4893  -14.3829  -16.1539 C.3     1  UNL1        0.0029
     33 C         -23.1922  -14.4918  -15.3303 C.3     1  UNL1        0.0174
     34 C         -23.4096  -14.2070  -13.8344 C.3     1  UNL1        0.0721
     35 C         -24.4211  -11.1777  -11.3934 C.3     1  UNL1        0.1632
     36 C         -24.8335  -10.6919   -9.1810 C.3     1  UNL1        0.1742
     37 O         -23.9297  -10.5152  -10.2485 O.3     1  UNL1       -0.3493
@<TRIPOS>BOND
     1    36    37    1
     2    37    35    1
     3    35    24    1
     4    24    25    1
     5    25    29    1
     6    29    30    1
     7    30    31    1
     8    31    32    1
     9    32    33    1
    10    33    34    1
    11    25    26    1
    12    26    27    1
    13    27    28    1
    14    28     1    1
    15     1     2   ar
    16     2     3   ar
    17     3     4   ar
    18     4     5   ar
    19     5     6   ar
    20     6     7   ar
    21     7    11    1
    22    11    12   ar
    23    12    13   ar
    24    13    14   ar
    25    14    15    1
    26    14    16   ar
    27    16    17    1
    28    17    18   ar
    29    18    19   ar
    30    19    20   ar
    31    20    21    1
    32    20    22   ar
    33    22    23   ar
    34     7     8   ar
    35     8     9   ar
    36     9    10    1
    37    28    24    1
    38     6     1   ar
    39    16    11   ar
    40    23    17   ar
    41    34    29    1
    42     9     5   ar
@<TRIPOS>MOLECULE
*****
 37 42 0 0 0
SMALL
GASTEIGER

@<TRIPOS>ATOM
      1 C         -22.9814   -9.5290  -10.4978 C.ar    1  UNL1        0.1379
      2 N         -23.4762   -9.7943   -9.2498 N.ar    1  UNL1       -0.2089
      3 C         -23.4493   -8.8672   -8.2427 C.ar    1  UNL1        0.2014
      4 N         -22.8882   -7.6410   -8.4471 N.ar    1  UNL1       -0.2050
      5 C         -22.3896   -7.3646   -9.6752 C.ar    1  UNL1        0.1654
      6 C         -22.4510   -8.2483  -10.7119 C.ar    1  UNL1        0.0865
      7 C         -21.9289   -7.5428  -11.7917 C.ar    1  UNL1        0.1095
      8 N         -21.5702   -6.3034  -11.3737 N.ar    1  UNL1       -0.1677
      9 N         -21.8319   -6.2126  -10.0762 N.ar    1  UNL1       -0.2319
     10 C         -21.6654   -4.9978   -9.2896 C.3     1  UNL1        0.1554
     11 C         -21.9874   -7.9085  -13.2101 C.ar    1  UNL1        0.0577
     12 C         -20.9122   -8.1488  -14.0399 C.ar    1  UNL1        0.1231
     13 N         -21.3597   -8.4085  -15.2846 N.ar    1  UNL1       -0.1676
     14 N         -22.6828   -8.3508  -15.2608 N.ar    1  UNL1       -0.2488
     15 C         -23.5123   -8.5271  -16.4477 C.3     1  UNL1        0.1537
     16 C         -23.1033   -8.0533  -14.0123 C.ar    1  UNL1        0.0809
     17 C         -24.5018   -7.7928  -13.6231 C.ar    1  UNL1        0.0174
     18 C         -25.4332   -8.8408  -13.6035 C.ar    1  UNL1        0.0012
     19 C         -26.7626   -8.5951  -13.2485 C.ar    1  UNL1       -0.0042
     20 C         -27.1727   -7.3005  -12.8951 C.ar    1  UNL1       -0.0218
     21 C         -28.6078   -7.0292  -12.5536 C.3     1  UNL1        0.0310
     22 C         -26.2433   -6.2498  -12.9297 C.ar    1  UNL1       -0.0042
     23 C         -24.9140   -6.4961  -13.2849 C.ar    1  UNL1        0.0012
     24 C         -21.6662  -10.7841  -12.2629 C.3     1  UNL1        0.1182
     25 C         -22.1778  -11.1630  -13.6652 C.3     1  UNL1        0.0799
     26 C         -23.5809  -11.7446  -13.4486 C.3     1  UNL1        0.0392
     27 C         -24.0692  -11.0715  -12.1684 C.3     1  UNL1        0.0937
     28 N         -22.8792  -10.5936  -11.4638 N.pl3   1  UNL1       -0.2909
     29 N         -21.2066  -11.9434  -14.4932 N.3     1  UNL1       -0.2723
     30 C         -21.1370  -13.4219  -14.3389 C.3     1  UNL1        0.0721
     31 C         -21.6355  -14.2071  -15.5720 C.3     1  UNL1        0.0174
     32 C         -22.7663  -13.4739  -16.2952 C.3     1  UNL1        0.0029
     33 C         -22.3653  -12.0427  -16.6997 C.3     1  UNL1        0.0174
     34 C         -21.1584  -11.5143  -15.9057 C.3     1  UNL1        0.0721
     35 C         -20.7328  -11.7976  -11.5811 C.3     1  UNL1        0.1632
     36 C         -19.4153  -10.3271  -10.3968 C.3     1  UNL1        0.1742
     37 O         -20.3751  -11.3542  -10.2902 O.3     1  UNL1       -0.3493
@<TRIPOS>BOND
     1    36    37    1
     2    37    35    1
     3    35    24    1
     4    24    25    1
     5    25    29    1
     6    29    30    1
     7    30    31    1
     8    31    32    1
     9    32    33    1
    10    33    34    1
    11    25    26    1
    12    26    27    1
    13    27    28    1
    14    28     1    1
    15     1     2   ar
    16     2     3   ar
    17     3     4   ar
    18     4     5   ar
    19     5     6   ar
    20     6     7   ar
    21     7    11    1
    22    11    12   ar
    23    12    13   ar
    24    13    14   ar
    25    14    15    1
    26    14    16   ar
    27    16    17    1
    28    17    18   ar
    29    18    19   ar
    30    19    20   ar
    31    20    21    1
    32    20    22   ar
    33    22    23   ar
    34     7     8   ar
    35     8     9   ar
    36     9    10    1
    37    28    24    1
    38     6     1   ar
    39    16    11   ar
    40    23    17   ar
    41    34    29    1
    42     9     5   ar
@<TRIPOS>MOLECULE
*****
 37 42 0 0 0
SMALL
GASTEIGER

@<TRIPOS>ATOM
      1 C         -20.8691   -9.3978  -11.4126 C.ar    1  UNL1        0.1379
      2 N         -20.2633  -10.6077  -11.2085 N.ar    1  UNL1       -0.2089
      3 C         -19.4627  -10.8485  -10.1243 C.ar    1  UNL1        0.2014
      4 N         -19.2137   -9.8615   -9.2165 N.ar    1  UNL1       -0.2050
      5 C         -19.8017   -8.6569   -9.4068 C.ar    1  UNL1        0.1654
      6 C         -20.6460   -8.4047  -10.4475 C.ar    1  UNL1        0.0865
      7 C         -21.0953   -7.1085  -10.2146 C.ar    1  UNL1        0.1095
      8 N         -20.5109   -6.6380   -9.0847 N.ar    1  UNL1       -0.1677
      9 N         -19.7047   -7.5802   -8.6129 N.ar    1  UNL1       -0.2319
     10 C         -18.9703   -7.4779   -7.3590 C.3     1  UNL1        0.1554
     11 C         -22.2107   -6.4186  -10.8694 C.ar    1  UNL1        0.0577
     12 C         -22.1446   -5.2291  -11.5643 C.ar    1  UNL1        0.1231
     13 N         -23.3805   -4.8863  -11.9790 N.ar    1  UNL1       -0.1676
     14 N         -24.2198   -5.8289  -11.5769 N.ar    1  UNL1       -0.2488
     15 C         -25.6599   -5.7660  -11.8012 C.3     1  UNL1        0.1537
     16 C         -23.5435   -6.7829  -10.9013 C.ar    1  UNL1        0.0809
     17 C         -24.1548   -7.9304  -10.2052 C.ar    1  UNL1        0.0174
     18 C         -25.5303   -8.1750  -10.3266 C.ar    1  UNL1        0.0012
     19 C         -26.1156   -9.2535   -9.6572 C.ar    1  UNL1       -0.0042
     20 C         -25.3293  -10.1084   -8.8699 C.ar    1  UNL1       -0.0218
     21 C         -25.9640  -11.2413   -8.1193 C.3     1  UNL1        0.0310
     22 C         -23.9559   -9.8538   -8.7370 C.ar    1  UNL1       -0.0042
     23 C         -23.3710   -8.7751   -9.4065 C.ar    1  UNL1        0.0012
     24 C         -22.3842  -10.1764  -13.2884 C.3     1  UNL1        0.1182
     25 C         -22.0955  -10.0355  -14.7945 C.3     1  UNL1        0.0799
     26 C         -21.6093   -8.5932  -14.9875 C.3     1  UNL1        0.0392
     27 C         -20.9947   -8.2242  -13.6398 C.3     1  UNL1        0.0937
     28 N         -21.5575   -9.1470  -12.6536 N.pl3   1  UNL1       -0.2909
     29 N         -23.1829  -10.5429  -15.6878 N.3     1  UNL1       -0.2723
     30 C         -23.1391  -10.2314  -17.1424 C.3     1  UNL1        0.0721
     31 C         -22.8839  -11.4611  -18.0415 C.3     1  UNL1        0.0174
     32 C         -21.9802  -12.4886  -17.3582 C.3     1  UNL1        0.0029
     33 C         -22.5350  -12.9322  -15.9914 C.3     1  UNL1        0.0174
     34 C         -23.5635  -11.9439  -15.4156 C.3     1  UNL1        0.0721
     35 C         -23.8520  -10.0210  -12.8584 C.3     1  UNL1        0.1632
     36 C         -25.8024   -9.1192  -13.6850 C.3     1  UNL1        0.1742
     37 O         -24.4299   -8.8849  -13.4637 O.3     1  UNL1       -0.3493
@<TRIPOS>BOND
     1    36    37    1
     2    37    35    1
     3    35    24    1
     4    24    25    1
     5    25    29    1
     6    29    30    1
     7    30    31    1
     8    31    32    1
     9    32    33    1
    10    33    34    1
    11    25    26    1
    12    26    27    1
    13    27    28    1
    14    28     1    1
    15     1     2   ar
    16     2     3   ar
    17     3     4   ar
    18     4     5   ar
    19     5     6   ar
    20     6     7   ar
    21     7    11    1
    22    11    12   ar
    23    12    13   ar
    24    13    14   ar
    25    14    15    1
    26    14    16   ar
    27    16    17    1
    28    17    18   ar
    29    18    19   ar
    30    19    20   ar
    31    20    21    1
    32    20    22   ar
    33    22    23   ar
    34     7     8   ar
    35     8     9   ar
    36     9    10    1
    37    28    24    1
    38     6     1   ar
    39    16    11   ar
    40    23    17   ar
    41    34    29    1
    42     9     5   ar
@<TRIPOS>MOLECULE
*****
 37 42 0 0 0
SMALL
GASTEIGER

@<TRIPOS>ATOM
      1 C         -23.3149   -9.5597  -18.4055 C.ar    1  UNL1        0.1379
      2 N         -23.7222  -10.0170  -19.6292 N.ar    1  UNL1       -0.2089
      3 C         -24.4711   -9.2507  -20.4815 C.ar    1  UNL1        0.2014
      4 N         -24.8687   -7.9983  -20.1161 N.ar    1  UNL1       -0.2050
      5 C         -24.4779   -7.5328  -18.9063 C.ar    1  UNL1        0.1654
      6 C         -23.6875   -8.2524  -18.0595 C.ar    1  UNL1        0.0865
      7 C         -23.4465   -7.3845  -16.9989 C.ar    1  UNL1        0.1095
      8 N         -24.0934   -6.2157  -17.2330 N.ar    1  UNL1       -0.1677
      9 N         -24.7398   -6.3244  -18.3865 N.ar    1  UNL1       -0.2319
     10 C         -25.4765   -5.2383  -19.0187 C.3     1  UNL1        0.1554
     11 C         -22.4558   -7.5349  -15.9290 C.ar    1  UNL1        0.0577
     12 C         -21.0910   -7.6567  -16.0866 C.ar    1  UNL1        0.1231
     13 N         -20.5166   -7.8251  -14.8788 N.ar    1  UNL1       -0.1676
     14 N         -21.4761   -7.8012  -13.9659 N.ar    1  UNL1       -0.2488
     15 C         -21.2308   -8.0073  -12.5427 C.3     1  UNL1        0.1537
     16 C         -22.6720   -7.6210  -14.5668 C.ar    1  UNL1        0.0809
     17 C         -23.9810   -7.6551  -13.8880 C.ar    1  UNL1        0.0174
     18 C         -24.4102   -6.5544  -13.1326 C.ar    1  UNL1        0.0012
     19 C         -25.6440   -6.5886  -12.4766 C.ar    1  UNL1       -0.0042
     20 C         -26.4693   -7.7186  -12.5803 C.ar    1  UNL1       -0.0218
     21 C         -27.7747   -7.7713  -11.8435 C.3     1  UNL1        0.0310
     22 C         -26.0321   -8.8253  -13.3241 C.ar    1  UNL1       -0.0042
     23 C         -24.7981   -8.7907  -13.9798 C.ar    1  UNL1        0.0012
     24 C         -23.4445  -11.1546  -16.4409 C.3     1  UNL1        0.1182
     25 C         -22.5273  -11.1338  -15.2040 C.3     1  UNL1        0.0799
     26 C         -21.1016  -10.9842  -15.7507 C.3     1  UNL1        0.0392
     27 C         -21.2874  -10.2584  -17.0807 C.3     1  UNL1        0.0937
     28 N         -22.6790  -10.4658  -17.4828 N.pl3   1  UNL1       -0.2909
     29 N         -22.7957  -12.2197  -14.2106 N.3     1  UNL1       -0.2723
     30 C         -21.7328  -13.2181  -13.9139 C.3     1  UNL1        0.0721
     31 C         -21.1530  -13.1140  -12.4861 C.3     1  UNL1        0.0174
     32 C         -21.1363  -11.6701  -11.9820 C.3     1  UNL1        0.0029
     33 C         -22.5305  -11.0180  -12.0411 C.3     1  UNL1        0.0174
     34 C         -23.4908  -11.7482  -12.9956 C.3     1  UNL1        0.0721
     35 C         -23.8904  -12.5402  -16.9354 C.3     1  UNL1        0.1632
     36 C         -24.7810  -14.4331  -15.9737 C.3     1  UNL1        0.1742
     37 O         -24.9379  -13.0412  -16.1335 O.3     1  UNL1       -0.3493
@<TRIPOS>BOND
     1    36    37    1
     2    37    35    1
     3    35    24    1
     4    24    25    1
     5    25    29    1
     6    29    30    1
     7    30    31    1
     8    31    32    1
     9    32    33    1
    10    33    34    1
    11    25    26    1
    12    26    27    1
    13    27    28    1
    14    28     1    1
    15     1     2   ar
    16     2     3   ar
    17     3     4   ar
    18     4     5   ar
    19     5     6   ar
    20     6     7   ar
    21     7    11    1
    22    11    12   ar
    23    12    13   ar
    24    13    14   ar
    25    14    15    1
    26    14    16   ar
    27    16    17    1
    28    17    18   ar
    29    18    19   ar
    30    19    20   ar
    31    20    21    1
    32    20    22   ar
    33    22    23   ar
    34     7     8   ar
    35     8     9   ar
    36     9    10    1
    37    28    24    1
    38     6     1   ar
    39    16    11   ar
    40    23    17   ar
    41    34    29    1
    42     9     5   ar
@<TRIPOS>MOLECULE
*****
 37 42 0 0 0
SMALL
GASTEIGER

@<TRIPOS>ATOM
      1 C         -22.0473   -8.1114  -13.2083 C.ar    1  UNL1        0.1379
      2 N         -20.8394   -8.6844  -12.9165 N.ar    1  UNL1       -0.2089
      3 C         -20.0536   -8.2439  -11.8855 C.ar    1  UNL1        0.2014
      4 N         -20.4428   -7.1803  -11.1257 N.ar    1  UNL1       -0.2050
      5 C         -21.6334   -6.5990  -11.4047 C.ar    1  UNL1        0.1654
      6 C         -22.4611   -7.0498  -12.3902 C.ar    1  UNL1        0.0865
      7 C         -23.5951   -6.2519  -12.2735 C.ar    1  UNL1        0.1095
      8 N         -23.4072   -5.3677  -11.2624 N.ar    1  UNL1       -0.1677
      9 N         -22.1982   -5.5706  -10.7548 N.ar    1  UNL1       -0.2319
     10 C         -21.6703   -4.8719   -9.5907 C.3     1  UNL1        0.1554
     11 C         -24.9016   -6.4586  -12.9052 C.ar    1  UNL1        0.0577
     12 C         -25.4104   -5.7643  -13.9829 C.ar    1  UNL1        0.1231
     13 N         -26.6574   -6.2027  -14.2466 N.ar    1  UNL1       -0.1676
     14 N         -26.9443   -7.1590  -13.3761 N.ar    1  UNL1       -0.2488
     15 C         -28.2373   -7.8324  -13.3253 C.3     1  UNL1        0.1537
     16 C         -25.8967   -7.3473  -12.5448 C.ar    1  UNL1        0.0809
     17 C         -25.8867   -8.2467  -11.3760 C.ar    1  UNL1        0.0174
     18 C         -24.8840   -9.2183  -11.2449 C.ar    1  UNL1        0.0012
     19 C         -24.8793  -10.0815  -10.1455 C.ar    1  UNL1       -0.0042
     20 C         -25.8693   -9.9736   -9.1570 C.ar    1  UNL1       -0.0218
     21 C         -25.8876  -10.9261   -7.9986 C.3     1  UNL1        0.0310
     22 C         -26.8807   -9.0111   -9.2970 C.ar    1  UNL1       -0.0042
     23 C         -26.8851   -8.1481  -10.3967 C.ar    1  UNL1        0.0012
     24 C         -23.0034   -9.9096  -14.7159 C.3     1  UNL1        0.1182
     25 C         -22.7799  -10.0212  -16.2355 C.3     1  UNL1        0.0799
     26 C         -22.9997   -8.6073  -16.7891 C.3     1  UNL1        0.0392
     27 C         -22.6480   -7.6910  -15.6200 C.3     1  UNL1        0.0937
     28 N         -22.7490   -8.5007  -14.4053 N.pl3   1  UNL1       -0.2909
     29 N         -23.4987  -11.1586  -16.8894 N.3     1  UNL1       -0.2723
     30 C         -23.6256  -11.1876  -18.3719 C.3     1  UNL1        0.0721
     31 C         -22.8201  -12.3175  -19.0501 C.3     1  UNL1        0.0174
     32 C         -21.5263  -12.6268  -18.2953 C.3     1  UNL1        0.0029
     33 C         -21.7846  -12.9690  -16.8159 C.3     1  UNL1        0.0174
     34 C         -23.1555  -12.4777  -16.3203 C.3     1  UNL1        0.0721
     35 C         -24.3894  -10.3273  -14.1984 C.3     1  UNL1        0.1632
     36 C         -23.0109  -11.6592  -12.9230 C.3     1  UNL1        0.1742
     37 O         -24.3051  -11.5312  -13.4671 O.3     1  UNL1       -0.3493
@<TRIPOS>BOND
     1    36    37    1
     2    37    35    1
     3    35    24    1
     4    24    25    1
     5    25    29    1
     6    29    30    1
     7    30    31    1
     8    31    32    1
     9    32    33    1
    10    33    34    1
    11    25    26    1
    12    26    27    1
    13    27    28    1
    14    28     1    1
    15     1     2   ar
    16     2     3   ar
    17     3     4   ar
    18     4     5   ar
    19     5     6   ar
    20     6     7   ar
    21     7    11    1
    22    11    12   ar
    23    12    13   ar
    24    13    14   ar
    25    14    15    1
    26    14    16   ar
    27    16    17    1
    28    17    18   ar
    29    18    19   ar
    30    19    20   ar
    31    20    21    1
    32    20    22   ar
    33    22    23   ar
    34     7     8   ar
    35     8     9   ar
    36     9    10    1
    37    28    24    1
    38     6     1   ar
    39    16    11   ar
    40    23    17   ar
    41    34    29    1
    42     9     5   ar
@<TRIPOS>MOLECULE
*****
 37 42 0 0 0
SMALL
GASTEIGER

@<TRIPOS>ATOM
      1 C         -23.6952   -7.5446  -16.2537 C.ar    1  UNL1        0.1379
      2 N         -23.5997   -6.5810  -17.2206 N.ar    1  UNL1       -0.2089
      3 C         -24.4091   -5.4768  -17.2317 C.ar    1  UNL1        0.2014
      4 N         -25.3745   -5.3180  -16.2815 N.ar    1  UNL1       -0.2050
      5 C         -25.4852   -6.2653  -15.3205 C.ar    1  UNL1        0.1654
      6 C         -24.6582   -7.3476  -15.2532 C.ar    1  UNL1        0.0865
      7 C         -25.0427   -7.9973  -14.0843 C.ar    1  UNL1        0.1095
      8 N         -26.0654   -7.3107  -13.5168 N.ar    1  UNL1       -0.1677
      9 N         -26.3447   -6.2699  -14.2909 N.ar    1  UNL1       -0.2319
     10 C         -27.3274   -5.2456  -13.9636 C.3     1  UNL1        0.1554
     11 C         -24.3320   -9.0714  -13.3842 C.ar    1  UNL1        0.0577
     12 C         -24.6556  -10.4121  -13.3958 C.ar    1  UNL1        0.1231
     13 N         -23.8024  -11.0831  -12.5965 N.ar    1  UNL1       -0.1676
     14 N         -22.9452  -10.2081  -12.0922 N.ar    1  UNL1       -0.2488
     15 C         -21.9043  -10.5687  -11.1359 C.3     1  UNL1        0.1537
     16 C         -23.2325   -8.9716  -12.5530 C.ar    1  UNL1        0.0809
     17 C         -22.5690   -7.7263  -12.1238 C.ar    1  UNL1        0.0174
     18 C         -23.2705   -6.7835  -11.3585 C.ar    1  UNL1        0.0012
     19 C         -22.6493   -5.5960  -10.9615 C.ar    1  UNL1       -0.0042
     20 C         -21.3145   -5.3439  -11.3134 C.ar    1  UNL1       -0.0218
     21 C         -20.6609   -4.0519  -10.9222 C.3     1  UNL1        0.0310
     22 C         -20.6184   -6.2810  -12.0920 C.ar    1  UNL1       -0.0042
     23 C         -21.2401   -7.4685  -12.4888 C.ar    1  UNL1        0.0012
     24 C         -23.5742  -10.0108  -16.8230 C.3     1  UNL1        0.1182
     25 C         -22.9269  -11.1037  -15.9523 C.3     1  UNL1        0.0799
     26 C         -21.5731  -10.5316  -15.5120 C.3     1  UNL1        0.0392
     27 C         -21.7862   -9.0201  -15.5240 C.3     1  UNL1        0.0937
     28 N         -22.9393   -8.7643  -16.3877 N.pl3   1  UNL1       -0.2909
     29 N         -22.9571  -12.4752  -16.5489 N.3     1  UNL1       -0.2723
     30 C         -21.9902  -13.5012  -16.0723 C.3     1  UNL1        0.0721
     31 C         -22.6412  -14.6645  -15.2921 C.3     1  UNL1        0.0174
     32 C         -23.8623  -14.2029  -14.4952 C.3     1  UNL1        0.0029
     33 C         -24.9079  -13.5062  -15.3861 C.3     1  UNL1        0.0174
     34 C         -24.3218  -13.0134  -16.7202 C.3     1  UNL1        0.0721
     35 C         -23.4315  -10.1782  -18.3445 C.3     1  UNL1        0.1632
     36 C         -24.2493   -9.3052  -20.3118 C.3     1  UNL1        0.1742
     37 O         -23.8016   -8.9915  -19.0123 O.3     1  UNL1       -0.3493
@<TRIPOS>BOND
     1    36    37    1
     2    37    35    1
     3    35    24    1
     4    24    25    1
     5    25    29    1
     6    29    30    1
     7    30    31    1
     8    31    32    1
     9    32    33    1
    10    33    34    1
    11    25    26    1
    12    26    27    1
    13    27    28    1
    14    28     1    1
    15     1     2   ar
    16     2     3   ar
    17     3     4   ar
    18     4     5   ar
    19     5     6   ar
    20     6     7   ar
    21     7    11    1
    22    11    12   ar
    23    12    13   ar
    24    13    14   ar
    25    14    15    1
    26    14    16   ar
    27    16    17    1
    28    17    18   ar
    29    18    19   ar
    30    19    20   ar
    31    20    21    1
    32    20    22   ar
    33    22    23   ar
    34     7     8   ar
    35     8     9   ar
    36     9    10    1
    37    28    24    1
    38     6     1   ar
    39    16    11   ar
    40    23    17   ar
    41    34    29    1
    42     9     5   ar
@<TRIPOS>MOLECULE
*****
 37 42 0 0 0
SMALL
GASTEIGER

@<TRIPOS>ATOM
      1 C         -24.0847   -8.0138  -15.4157 C.ar    1  UNL1        0.1379
      2 N         -23.1289   -7.8676  -16.3841 N.ar    1  UNL1       -0.2089
      3 C         -23.1050   -6.7898  -17.2279 C.ar    1  UNL1        0.2014
      4 N         -24.0697   -5.8289  -17.1491 N.ar    1  UNL1       -0.2050
      5 C         -25.0255   -5.9614  -16.1994 C.ar    1  UNL1        0.1654
      6 C         -25.0437   -6.9956  -15.3107 C.ar    1  UNL1        0.0865
      7 C         -26.1088   -6.6993  -14.4656 C.ar    1  UNL1        0.1095
      8 N         -26.6834   -5.5406  -14.8738 N.ar    1  UNL1       -0.1677
      9 N         -26.0315   -5.1111  -15.9466 N.ar    1  UNL1       -0.2319
     10 C         -26.3009   -3.8464  -16.6175 C.3     1  UNL1        0.1554
     11 C         -26.4315   -7.3279  -13.1813 C.ar    1  UNL1        0.0577
     12 C         -27.5848   -8.0186  -12.8733 C.ar    1  UNL1        0.1231
     13 N         -27.5407   -8.4062  -11.5830 N.ar    1  UNL1       -0.1676
     14 N         -26.3907   -7.9911  -11.0734 N.ar    1  UNL1       -0.2488
     15 C         -26.0188   -8.1854   -9.6763 C.3     1  UNL1        0.1537
     16 C         -25.6845   -7.3339  -12.0186 C.ar    1  UNL1        0.0809
     17 C         -24.4078   -6.6305  -11.7939 C.ar    1  UNL1        0.0174
     18 C         -23.2190   -7.3600  -11.6494 C.ar    1  UNL1        0.0012
     19 C         -22.0093   -6.6975  -11.4226 C.ar    1  UNL1       -0.0042
     20 C         -21.9724   -5.2966  -11.3518 C.ar    1  UNL1       -0.0218
     21 C         -20.6813   -4.5880  -11.0680 C.3     1  UNL1        0.0310
     22 C         -23.1649   -4.5685  -11.4814 C.ar    1  UNL1       -0.0042
     23 C         -24.3744   -5.2315  -11.7081 C.ar    1  UNL1        0.0012
     24 C         -23.0581  -10.2086  -14.6745 C.3     1  UNL1        0.1182
     25 C         -23.7409  -11.5875  -14.7387 C.3     1  UNL1        0.0799
     26 C         -25.1521  -11.3750  -14.1754 C.3     1  UNL1        0.0392
     27 C         -25.4523   -9.9071  -14.4677 C.3     1  UNL1        0.0937
     28 N         -24.1629   -9.2466  -14.6734 N.pl3   1  UNL1       -0.2909
     29 N         -22.9220  -12.7146  -14.1936 N.3     1  UNL1       -0.2723
     30 C         -23.5888  -13.9955  -13.8339 C.3     1  UNL1        0.0721
     31 C         -23.2081  -15.1810  -14.7479 C.3     1  UNL1        0.0174
     32 C         -22.9392  -14.7293  -16.1842 C.3     1  UNL1        0.0029
     33 C         -21.8606  -13.6320  -16.2558 C.3     1  UNL1        0.0174
     34 C         -21.6467  -12.9169  -14.9108 C.3     1  UNL1        0.0721
     35 C         -22.1346   -9.9608  -13.4707 C.3     1  UNL1        0.1632
     36 C         -21.6660  -10.8951  -11.4193 C.3     1  UNL1        0.1742
     37 O         -22.6981  -10.4964  -12.2931 O.3     1  UNL1       -0.3493
@<TRIPOS>BOND
     1    36    37    1
     2    37    35    1
     3    35    24    1
     4    24    25    1
     5    25    29    1
     6    29    30    1
     7    30    31    1
     8    31    32    1
     9    32    33    1
    10    33    34    1
    11    25    26    1
    12    26    27    1
    13    27    28    1
    14    28     1    1
    15     1     2   ar
    16     2     3   ar
    17     3     4   ar
    18     4     5   ar
    19     5     6   ar
    20     6     7   ar
    21     7    11    1
    22    11    12   ar
    23    12    13   ar
    24    13    14   ar
    25    14    15    1
    26    14    16   ar
    27    16    17    1
    28    17    18   ar
    29    18    19   ar
    30    19    20   ar
    31    20    21    1
    32    20    22   ar
    33    22    23   ar
    34     7     8   ar
    35     8     9   ar
    36     9    10    1
    37    28    24    1
    38     6     1   ar
    39    16    11   ar
    40    23    17   ar
    41    34    29    1
    42     9     5   ar
@<TRIPOS>MOLECULE
*****
 37 42 0 0 0
SMALL
GASTEIGER

@<TRIPOS>ATOM
      1 C         -21.9111   -7.5941  -11.6958 C.ar    1  UNL1        0.1379
      2 N         -21.6753   -6.2954  -11.3345 N.ar    1  UNL1       -0.2089
      3 C         -21.7302   -5.8799  -10.0312 C.ar    1  UNL1        0.2014
      4 N         -22.0602   -6.7565   -9.0397 N.ar    1  UNL1       -0.2050
      5 C         -22.3013   -8.0442   -9.3813 C.ar    1  UNL1        0.1654
      6 C         -22.2015   -8.4981  -10.6634 C.ar    1  UNL1        0.0865
      7 C         -22.4260   -9.8673  -10.5580 C.ar    1  UNL1        0.1095
      8 N         -22.6600  -10.1747   -9.2579 N.ar    1  UNL1       -0.1677
      9 N         -22.6065   -9.0528   -8.5516 N.ar    1  UNL1       -0.2319
     10 C         -22.7179   -8.9921   -7.1004 C.3     1  UNL1        0.1554
     11 C         -22.1883  -10.8926  -11.5784 C.ar    1  UNL1        0.0577
     12 C         -23.0779  -11.3062  -12.5479 C.ar    1  UNL1        0.1231
     13 N         -22.5202  -12.2987  -13.2697 N.ar    1  UNL1       -0.1676
     14 N         -21.3036  -12.5140  -12.7920 N.ar    1  UNL1       -0.2488
     15 C         -20.4202  -13.5595  -13.2964 C.3     1  UNL1        0.1537
     16 C         -21.0627  -11.6727  -11.7634 C.ar    1  UNL1        0.0809
     17 C         -19.8609  -11.6932  -10.9087 C.ar    1  UNL1        0.0174
     18 C         -19.1750  -12.8963  -10.6885 C.ar    1  UNL1        0.0012
     19 C         -18.0437  -12.9220   -9.8681 C.ar    1  UNL1       -0.0042
     20 C         -17.5769  -11.7418   -9.2696 C.ar    1  UNL1       -0.0218
     21 C         -16.3872  -11.7767   -8.3568 C.3     1  UNL1        0.0310
     22 C         -18.2728  -10.5414   -9.4783 C.ar    1  UNL1       -0.0042
     23 C         -19.4042  -10.5162  -10.2989 C.ar    1  UNL1        0.0012
     24 C         -23.2722   -8.3944  -13.6776 C.3     1  UNL1        0.1182
     25 C         -22.8677   -9.5166  -14.6517 C.3     1  UNL1        0.0799
     26 C         -21.4028   -9.2394  -15.0139 C.3     1  UNL1        0.0392
     27 C         -20.8554   -8.4894  -13.8023 C.3     1  UNL1        0.0937
     28 N         -22.0095   -7.9376  -13.0919 N.pl3   1  UNL1       -0.2909
     29 N         -23.8397   -9.7578  -15.7630 N.3     1  UNL1       -0.2723
     30 C         -23.3784   -9.6510  -17.1738 C.3     1  UNL1        0.0721
     31 C         -23.3596  -10.9960  -17.9328 C.3     1  UNL1        0.0174
     32 C         -23.0234  -12.1671  -17.0083 C.3     1  UNL1        0.0029
     33 C         -23.9782  -12.2478  -15.8024 C.3     1  UNL1        0.0174
     34 C         -24.7163  -10.9247  -15.5361 C.3     1  UNL1        0.0721
     35 C         -24.0378   -7.2078  -14.2851 C.3     1  UNL1        0.1632
     36 C         -25.5987   -7.7797  -12.6923 C.3     1  UNL1        0.1742
     37 O         -25.4178   -7.3131  -14.0103 O.3     1  UNL1       -0.3493
@<TRIPOS>BOND
     1    36    37    1
     2    37    35    1
     3    35    24    1
     4    24    25    1
     5    25    29    1
     6    29    30    1
     7    30    31    1
     8    31    32    1
     9    32    33    1
    10    33    34    1
    11    25    26    1
    12    26    27    1
    13    27    28    1
    14    28     1    1
    15     1     2   ar
    16     2     3   ar
    17     3     4   ar
    18     4     5   ar
    19     5     6   ar
    20     6     7   ar
    21     7    11    1
    22    11    12   ar
    23    12    13   ar
    24    13    14   ar
    25    14    15    1
    26    14    16   ar
    27    16    17    1
    28    17    18   ar
    29    18    19   ar
    30    19    20   ar
    31    20    21    1
    32    20    22   ar
    33    22    23   ar
    34     7     8   ar
    35     8     9   ar
    36     9    10    1
    37    28    24    1
    38     6     1   ar
    39    16    11   ar
    40    23    17   ar
    41    34    29    1
    42     9     5   ar
