@<TRIPOS>MOLECULE
*****
 47 52 0 0 0
SMALL
GASTEIGER

@<TRIPOS>ATOM
      1 C           9.8531   79.5965   24.1554 C.ar    1  UNL1        0.0702
      2 C          10.0375   79.0940   22.8616 C.ar    1  UNL1        0.0191
      3 C           9.4222   77.9027   22.4747 C.ar    1  UNL1        0.0356
      4 C           8.6195   77.2081   23.3931 C.ar    1  UNL1        0.1318
      5 N           8.4859   77.6942   24.6585 N.ar    1  UNL1       -0.2279
      6 C           9.0734   78.8535   25.0568 C.ar    1  UNL1        0.1149
      7 N           7.9863   75.9642   23.0379 N.pl3   1  UNL1       -0.2932
      8 C           8.4866   75.2155   21.8753 C.3     1  UNL1        0.0923
      9 C           7.5380   74.0706   21.4883 C.3     1  UNL1        0.0252
     10 C           6.0734   74.5381   21.5966 C.3     1  UNL1        0.0472
     11 C           5.7189   74.9675   23.0457 C.3     1  UNL1        0.0252
     12 C           6.9464   75.3626   23.8846 C.3     1  UNL1        0.0923
     13 C           5.1033   73.4501   21.0963 C.3     1  UNL1        0.2054
     14 O           4.3993   73.8797   19.9293 O.3     1  UNL1       -0.4755
     15 C           3.9292   75.1815   19.6893 C.ar    1  UNL1        0.1388
     16 C           4.2630   75.7858   18.4728 C.ar    1  UNL1        0.0369
     17 C           3.8269   77.0788   18.1798 C.ar    1  UNL1        0.0033
     18 C           3.0487   77.7827   19.1006 C.ar    1  UNL1        0.0066
     19 C           2.6952   77.1957   20.3282 C.ar    1  UNL1        0.0785
     20 C           3.1370   75.8910   20.6151 C.ar    1  UNL1        0.0433
     21 C           1.8697   77.9377   21.3073 C.2     1  UNL1        0.3381
     22 O           1.9904   79.1871   21.4278 O.2     1  UNL1       -0.2451
     23 O           0.9511   77.2623   22.1069 O.3     1  UNL1       -0.4771
     24 H           0.3818   77.7607   22.7804 H       1  UNL1        0.2954
     25 C          11.9199   80.9074   24.8134 C.2     1  UNL1        0.2839
     26 O          12.5618   79.8871   25.1818 O.2     1  UNL1       -0.2665
     27 N          10.5123   80.8124   24.5489 N.am    1  UNL1       -0.2766
     28 H           9.9202   81.6466   24.7597 H       1  UNL1        0.1553
     29 C          14.8734   86.1418   24.8503 C.ar    1  UNL1        0.0002
     30 C          14.5424   86.0518   23.4711 C.ar    1  UNL1        0.0031
     31 C          13.8183   84.9541   22.9739 C.ar    1  UNL1        0.0375
     32 C          13.4376   83.9626   23.8715 C.ar    1  UNL1        0.1452
     33 O          12.7654   82.8680   23.6118 O.2     1  UNL1       -0.4492
     34 C          12.6234   82.2002   24.7434 C.ar    1  UNL1        0.1946
     35 C          13.2151   82.9104   25.7957 C.ar    1  UNL1        0.0202
     36 C          13.2687   82.5517   27.2501 C.3     1  UNL1        0.0345
     37 C          13.7489   84.0368   25.2020 C.ar    1  UNL1        0.0337
     38 C          14.4662   85.1105   25.7302 C.ar    1  UNL1        0.0028
     39 C          17.5377   88.8462   25.1828 C.ar    1  UNL1        0.0347
     40 C          17.0875   89.5070   26.3415 C.ar    1  UNL1        0.0028
     41 C          15.9344   89.0770   27.0001 C.ar    1  UNL1        0.0001
     42 C          15.2134   87.9848   26.5173 C.ar    1  UNL1        0.0000
     43 C          15.6398   87.3052   25.3643 C.ar    1  UNL1        0.0001
     44 C          16.8025   87.7439   24.7037 C.ar    1  UNL1        0.0028
     45 C          18.7794   89.5050   22.9808 C.3     1  UNL1        0.0773
     46 C          18.7627   89.2932   24.4653 C.2     1  UNL1        0.1735
     47 O          19.8249   89.5048   25.1115 O.2     1  UNL1       -0.2913
@<TRIPOS>BOND
     1    45    46    1
     2    46    47    2
     3    46    39    1
     4    39    40   ar
     5    40    41   ar
     6    41    42   ar
     7    42    43   ar
     8    43    29    1
     9    29    30   ar
    10    30    31   ar
    11    31    32   ar
    12    32    33   ar
    13    33    34   ar
    14    34    25    1
    15    25    26    2
    16    25    27   am
    17    27     1    1
    18     1     2   ar
    19     2     3   ar
    20     3     4   ar
    21     4     7    1
    22     7     8    1
    23     8     9    1
    24     9    10    1
    25    10    13    1
    26    13    14    1
    27    14    15    1
    28    15    16   ar
    29    16    17   ar
    30    17    18   ar
    31    18    19   ar
    32    19    21    1
    33    21    22    2
    34    21    23    1
    35    19    20   ar
    36    10    11    1
    37    11    12    1
    38     4     5   ar
    39     5     6   ar
    40    34    35   ar
    41    35    36    1
    42    35    37   ar
    43    37    38   ar
    44    43    44   ar
    45    44    39   ar
    46    38    29   ar
    47    37    32   ar
    48     6     1   ar
    49    12     7    1
    50    20    15   ar
    51    27    28    1
    52    23    24    1
@<TRIPOS>MOLECULE
*****
 47 52 0 0 0
SMALL
GASTEIGER

@<TRIPOS>ATOM
      1 C           9.9056   79.3285   24.3514 C.ar    1  UNL1        0.0702
      2 C           9.9360   79.0598   22.9776 C.ar    1  UNL1        0.0191
      3 C           9.2879   77.9349   22.4657 C.ar    1  UNL1        0.0356
      4 C           8.6079   77.0709   23.3383 C.ar    1  UNL1        0.1318
      5 N           8.6247   77.3297   24.6755 N.ar    1  UNL1       -0.2279
      6 C           9.2468   78.4204   25.1962 C.ar    1  UNL1        0.1149
      7 N           7.9463   75.8882   22.8504 N.pl3   1  UNL1       -0.2932
      8 C           8.2251   75.4280   21.4819 C.3     1  UNL1        0.0923
      9 C           7.2458   74.3283   21.0439 C.3     1  UNL1        0.0252
     10 C           5.8207   74.6681   21.5225 C.3     1  UNL1        0.0472
     11 C           5.7488   74.7670   23.0701 C.3     1  UNL1        0.0252
     12 C           7.1080   75.0598   23.7285 C.3     1  UNL1        0.0923
     13 C           4.7967   73.6457   20.9921 C.3     1  UNL1        0.2054
     14 O           3.7482   74.2905   20.2663 O.3     1  UNL1       -0.4755
     15 C           3.3901   75.6446   20.3742 C.ar    1  UNL1        0.1388
     16 C           3.9743   76.5508   19.4831 C.ar    1  UNL1        0.0369
     17 C           3.6592   77.9091   19.5442 C.ar    1  UNL1        0.0033
     18 C           2.7530   78.3772   20.4975 C.ar    1  UNL1        0.0066
     19 C           2.1482   77.4860   21.4011 C.ar    1  UNL1        0.0785
     20 C           2.4696   76.1180   21.3315 C.ar    1  UNL1        0.0433
     21 C           1.1863   77.9775   22.4130 C.2     1  UNL1        0.3381
     22 O           1.2021   77.5161   23.5864 O.2     1  UNL1       -0.2451
     23 O           0.2525   78.9549   22.0784 O.3     1  UNL1       -0.4771
     24 H          -0.4106   79.2976   22.7633 H       1  UNL1        0.2954
     25 C          12.0204   80.6534   24.7930 C.2     1  UNL1        0.2839
     26 O          12.7761   79.6475   24.7168 O.2     1  UNL1       -0.2665
     27 N          10.5979   80.4779   24.8688 N.am    1  UNL1       -0.2766
     28 H          10.0509   81.1715   25.4261 H       1  UNL1        0.1553
     29 C          14.5346   86.0662   25.5036 C.ar    1  UNL1        0.0002
     30 C          14.4541   86.0127   24.0856 C.ar    1  UNL1        0.0031
     31 C          13.9085   84.8912   23.4366 C.ar    1  UNL1        0.0375
     32 C          13.4517   83.8397   24.2235 C.ar    1  UNL1        0.1452
     33 O          12.9159   82.7147   23.8174 O.2     1  UNL1       -0.4492
     34 C          12.6296   81.9919   24.8861 C.ar    1  UNL1        0.1946
     35 C          12.9774   82.6948   26.0466 C.ar    1  UNL1        0.0202
     36 C          12.8050   82.2795   27.4765 C.3     1  UNL1        0.0345
     37 C          13.5223   83.8782   25.5896 C.ar    1  UNL1        0.0337
     38 C          14.0576   84.9740   26.2673 C.ar    1  UNL1        0.0028
     39 C          15.2458   88.7380   28.1262 C.ar    1  UNL1        0.0347
     40 C          16.2126   89.5073   27.4513 C.ar    1  UNL1        0.0028
     41 C          16.6245   89.1578   26.1642 C.ar    1  UNL1        0.0001
     42 C          16.0815   88.0404   25.5300 C.ar    1  UNL1        0.0000
     43 C          15.1140   87.2553   26.1785 C.ar    1  UNL1        0.0001
     44 C          14.7032   87.6117   27.4766 C.ar    1  UNL1        0.0028
     45 C          13.3707   89.4408   29.8039 C.3     1  UNL1        0.0773
     46 C          14.7975   89.0933   29.5003 C.2     1  UNL1        0.1735
     47 O          15.6305   89.1058   30.4472 O.2     1  UNL1       -0.2913
@<TRIPOS>BOND
     1    45    46    1
     2    46    47    2
     3    46    39    1
     4    39    40   ar
     5    40    41   ar
     6    41    42   ar
     7    42    43   ar
     8    43    29    1
     9    29    30   ar
    10    30    31   ar
    11    31    32   ar
    12    32    33   ar
    13    33    34   ar
    14    34    25    1
    15    25    26    2
    16    25    27   am
    17    27     1    1
    18     1     2   ar
    19     2     3   ar
    20     3     4   ar
    21     4     7    1
    22     7     8    1
    23     8     9    1
    24     9    10    1
    25    10    13    1
    26    13    14    1
    27    14    15    1
    28    15    16   ar
    29    16    17   ar
    30    17    18   ar
    31    18    19   ar
    32    19    21    1
    33    21    22    2
    34    21    23    1
    35    19    20   ar
    36    10    11    1
    37    11    12    1
    38     4     5   ar
    39     5     6   ar
    40    34    35   ar
    41    35    36    1
    42    35    37   ar
    43    37    38   ar
    44    43    44   ar
    45    44    39   ar
    46    38    29   ar
    47    37    32   ar
    48     6     1   ar
    49    12     7    1
    50    20    15   ar
    51    27    28    1
    52    23    24    1
@<TRIPOS>MOLECULE
*****
 47 52 0 0 0
SMALL
GASTEIGER

@<TRIPOS>ATOM
      1 C          10.0483   79.1689   24.5168 C.ar    1  UNL1        0.0702
      2 C           9.7751   79.0715   23.1470 C.ar    1  UNL1        0.0191
      3 C           9.1161   77.9514   22.6385 C.ar    1  UNL1        0.0356
      4 C           8.7322   76.9196   23.5091 C.ar    1  UNL1        0.1318
      5 N           9.0433   77.0167   24.8317 N.ar    1  UNL1       -0.2279
      6 C           9.6818   78.0991   25.3497 C.ar    1  UNL1        0.1149
      7 N           8.0705   75.7381   23.0185 N.pl3   1  UNL1       -0.2932
      8 C           8.3243   75.2995   21.6381 C.3     1  UNL1        0.0923
      9 C           7.3453   74.1975   21.2051 C.3     1  UNL1        0.0252
     10 C           5.9278   74.5183   21.7180 C.3     1  UNL1        0.0472
     11 C           5.8874   74.5949   23.2681 C.3     1  UNL1        0.0252
     12 C           7.2576   74.8903   23.9021 C.3     1  UNL1        0.0923
     13 C           4.9014   73.4946   21.1947 C.3     1  UNL1        0.2054
     14 O           3.6819   74.1326   20.8107 O.3     1  UNL1       -0.4755
     15 C           3.5240   75.5020   20.5401 C.ar    1  UNL1        0.1388
     16 C           2.8748   76.2893   21.4967 C.ar    1  UNL1        0.0369
     17 C           2.6863   77.6554   21.2818 C.ar    1  UNL1        0.0033
     18 C           3.1476   78.2512   20.1065 C.ar    1  UNL1        0.0066
     19 C           3.8078   77.4828   19.1317 C.ar    1  UNL1        0.0785
     20 C           3.9957   76.1067   19.3570 C.ar    1  UNL1        0.0433
     21 C           4.2993   78.1102   17.8845 C.2     1  UNL1        0.3381
     22 O           4.3001   79.3647   17.7579 O.2     1  UNL1       -0.2451
     23 O           4.7654   77.3199   16.8368 O.3     1  UNL1       -0.4771
     24 H           5.1033   77.7394   15.9789 H       1  UNL1        0.2954
     25 C          12.1504   80.5523   24.8182 C.2     1  UNL1        0.2839
     26 O          12.9285   79.5820   24.6139 O.2     1  UNL1       -0.2665
     27 N          10.7495   80.3173   25.0243 N.am    1  UNL1       -0.2766
     28 H          10.2379   80.9601   25.6693 H       1  UNL1        0.1553
     29 C          14.5022   86.0315   25.5741 C.ar    1  UNL1        0.0002
     30 C          14.4282   85.9852   24.1555 C.ar    1  UNL1        0.0031
     31 C          13.9181   84.8527   23.4970 C.ar    1  UNL1        0.0375
     32 C          13.4896   83.7829   24.2752 C.ar    1  UNL1        0.1452
     33 O          12.9884   82.6455   23.8596 O.2     1  UNL1       -0.4492
     34 C          12.7196   81.9074   24.9224 C.ar    1  UNL1        0.1946
     35 C          13.0426   82.6124   26.0888 C.ar    1  UNL1        0.0202
     36 C          12.8775   82.1825   27.5153 C.3     1  UNL1        0.0345
     37 C          13.5542   83.8143   25.6417 C.ar    1  UNL1        0.0337
     38 C          14.0548   84.9206   26.3287 C.ar    1  UNL1        0.0028
     39 C          15.1071   88.7192   28.2071 C.ar    1  UNL1        0.0347
     40 C          16.0718   89.5070   27.5509 C.ar    1  UNL1        0.0028
     41 C          16.5164   89.1647   26.2727 C.ar    1  UNL1        0.0001
     42 C          16.0086   88.0362   25.6291 C.ar    1  UNL1        0.0000
     43 C          15.0441   87.2324   26.2590 C.ar    1  UNL1        0.0001
     44 C          14.6003   87.5817   27.5481 C.ar    1  UNL1        0.0028
     45 C          13.1867   89.3944   29.8443 C.3     1  UNL1        0.0773
     46 C          14.6243   89.0666   29.5715 C.2     1  UNL1        0.1735
     47 O          15.4363   89.0891   30.5363 O.2     1  UNL1       -0.2913
@<TRIPOS>BOND
     1    45    46    1
     2    46    47    2
     3    46    39    1
     4    39    40   ar
     5    40    41   ar
     6    41    42   ar
     7    42    43   ar
     8    43    29    1
     9    29    30   ar
    10    30    31   ar
    11    31    32   ar
    12    32    33   ar
    13    33    34   ar
    14    34    25    1
    15    25    26    2
    16    25    27   am
    17    27     1    1
    18     1     2   ar
    19     2     3   ar
    20     3     4   ar
    21     4     7    1
    22     7     8    1
    23     8     9    1
    24     9    10    1
    25    10    13    1
    26    13    14    1
    27    14    15    1
    28    15    16   ar
    29    16    17   ar
    30    17    18   ar
    31    18    19   ar
    32    19    21    1
    33    21    22    2
    34    21    23    1
    35    19    20   ar
    36    10    11    1
    37    11    12    1
    38     4     5   ar
    39     5     6   ar
    40    34    35   ar
    41    35    36    1
    42    35    37   ar
    43    37    38   ar
    44    43    44   ar
    45    44    39   ar
    46    38    29   ar
    47    37    32   ar
    48     6     1   ar
    49    12     7    1
    50    20    15   ar
    51    27    28    1
    52    23    24    1
@<TRIPOS>MOLECULE
*****
 47 52 0 0 0
SMALL
GASTEIGER

@<TRIPOS>ATOM
      1 C          12.2311   80.6793   24.9033 C.ar    1  UNL1        0.0702
      2 C          13.6276   80.6822   25.0033 C.ar    1  UNL1        0.0191
      3 C          14.2910   81.7741   25.5647 C.ar    1  UNL1        0.0356
      4 C          13.5488   82.8728   26.0254 C.ar    1  UNL1        0.1318
      5 N          12.1942   82.8660   25.8821 N.ar    1  UNL1       -0.2279
      6 C          11.5267   81.8127   25.3411 C.ar    1  UNL1        0.1149
      7 N          14.1989   84.0273   26.5902 N.pl3   1  UNL1       -0.2932
      8 C          14.5594   84.0168   28.0158 C.3     1  UNL1        0.0923
      9 C          14.9918   85.4090   28.5007 C.3     1  UNL1        0.0252
     10 C          14.0756   86.4888   27.8925 C.3     1  UNL1        0.0472
     11 C          14.1507   86.4911   26.3419 C.3     1  UNL1        0.0252
     12 C          14.6290   85.1540   25.7503 C.3     1  UNL1        0.0923
     13 C          14.4077   87.8836   28.4577 C.3     1  UNL1        0.2054
     14 O          14.8999   88.7534   27.4365 O.3     1  UNL1       -0.4755
     15 C          16.2273   88.8123   26.9804 C.ar    1  UNL1        0.1388
     16 C          17.1792   89.4168   27.8080 C.ar    1  UNL1        0.0369
     17 C          18.5130   89.5071   27.4069 C.ar    1  UNL1        0.0033
     18 C          18.9112   88.9910   26.1724 C.ar    1  UNL1        0.0066
     19 C          17.9747   88.3739   25.3245 C.ar    1  UNL1        0.0785
     20 C          16.6325   88.2850   25.7372 C.ar    1  UNL1        0.0433
     21 C          18.3923   87.8245   24.0151 C.2     1  UNL1        0.3381
     22 O          17.6105   87.0906   23.3518 O.2     1  UNL1       -0.2451
     23 O          19.6548   88.1124   23.5027 O.3     1  UNL1       -0.4771
     24 H          19.9505   87.7409   22.6078 H       1  UNL1        0.2954
     25 C          10.8720   78.5450   25.0475 C.2     1  UNL1        0.2839
     26 O          11.2036   78.3058   26.2398 O.2     1  UNL1       -0.2665
     27 N          11.5616   79.5583   24.3006 N.am    1  UNL1       -0.2766
     28 H          11.6746   79.4130   23.2725 H       1  UNL1        0.1553
     29 C           6.5787   75.3914   22.2642 C.ar    1  UNL1        0.0002
     30 C           7.0037   74.4375   23.2283 C.ar    1  UNL1        0.0031
     31 C           8.0276   74.7432   24.1419 C.ar    1  UNL1        0.0375
     32 C           8.6094   76.0043   24.0723 C.ar    1  UNL1        0.1452
     33 O           9.5707   76.4810   24.8247 O.2     1  UNL1       -0.4492
     34 C           9.8298   77.7126   24.4213 C.ar    1  UNL1        0.1946
     35 C           8.9760   78.0603   23.3668 C.ar    1  UNL1        0.0202
     36 C           8.8909   79.3597   22.6242 C.3     1  UNL1        0.0345
     37 C           8.2096   76.9326   23.1498 C.ar    1  UNL1        0.0337
     38 C           7.1975   76.6639   22.2279 C.ar    1  UNL1        0.0028
     39 C           4.1072   75.6598   19.3760 C.ar    1  UNL1        0.0347
     40 C           3.4485   74.4205   19.4876 C.ar    1  UNL1        0.0028
     41 C           3.8070   73.5147   20.4872 C.ar    1  UNL1        0.0001
     42 C           4.8237   73.8274   21.3896 C.ar    1  UNL1        0.0000
     43 C           5.4971   75.0571   21.3033 C.ar    1  UNL1        0.0001
     44 C           5.1323   75.9662   20.2927 C.ar    1  UNL1        0.0028
     45 C           4.5092   77.9073   18.1067 C.3     1  UNL1        0.0773
     46 C           3.7410   76.6362   18.3141 C.2     1  UNL1        0.1735
     47 O           2.7590   76.4009   17.5584 O.2     1  UNL1       -0.2913
@<TRIPOS>BOND
     1    45    46    1
     2    46    47    2
     3    46    39    1
     4    39    40   ar
     5    40    41   ar
     6    41    42   ar
     7    42    43   ar
     8    43    29    1
     9    29    30   ar
    10    30    31   ar
    11    31    32   ar
    12    32    33   ar
    13    33    34   ar
    14    34    25    1
    15    25    26    2
    16    25    27   am
    17    27     1    1
    18     1     2   ar
    19     2     3   ar
    20     3     4   ar
    21     4     7    1
    22     7     8    1
    23     8     9    1
    24     9    10    1
    25    10    13    1
    26    13    14    1
    27    14    15    1
    28    15    16   ar
    29    16    17   ar
    30    17    18   ar
    31    18    19   ar
    32    19    21    1
    33    21    22    2
    34    21    23    1
    35    19    20   ar
    36    10    11    1
    37    11    12    1
    38     4     5   ar
    39     5     6   ar
    40    34    35   ar
    41    35    36    1
    42    35    37   ar
    43    37    38   ar
    44    43    44   ar
    45    44    39   ar
    46    38    29   ar
    47    37    32   ar
    48     6     1   ar
    49    12     7    1
    50    20    15   ar
    51    27    28    1
    52    23    24    1
@<TRIPOS>MOLECULE
*****
 47 52 0 0 0
SMALL
GASTEIGER

@<TRIPOS>ATOM
      1 C          12.9049   82.3438   25.3598 C.ar    1  UNL1        0.0702
      2 C          12.7973   82.8276   24.0504 C.ar    1  UNL1        0.0191
      3 C          13.3955   84.0375   23.6955 C.ar    1  UNL1        0.0356
      4 C          14.1031   84.7695   24.6617 C.ar    1  UNL1        0.1318
      5 N          14.1615   84.3000   25.9390 N.ar    1  UNL1       -0.2279
      6 C          13.5891   83.1232   26.3069 C.ar    1  UNL1        0.1149
      7 N          14.7149   86.0329   24.3392 N.pl3   1  UNL1       -0.2932
      8 C          14.0146   87.2761   24.6949 C.3     1  UNL1        0.0923
      9 C          14.6736   88.5027   24.0456 C.3     1  UNL1        0.0252
     10 C          15.0850   88.1768   22.5965 C.3     1  UNL1        0.0472
     11 C          16.1120   87.0138   22.5445 C.3     1  UNL1        0.0252
     12 C          16.0753   86.1089   23.7881 C.3     1  UNL1        0.0923
     13 C          15.6364   89.4251   21.8802 C.3     1  UNL1        0.2054
     14 O          15.1550   89.5076   20.5374 O.3     1  UNL1       -0.4755
     15 C          14.3107   88.5756   19.9113 C.ar    1  UNL1        0.1388
     16 C          12.9848   88.9501   19.6698 C.ar    1  UNL1        0.0369
     17 C          12.0988   88.0651   19.0536 C.ar    1  UNL1        0.0033
     18 C          12.5299   86.7941   18.6692 C.ar    1  UNL1        0.0066
     19 C          13.8589   86.3956   18.8961 C.ar    1  UNL1        0.0785
     20 C          14.7464   87.2944   19.5158 C.ar    1  UNL1        0.0433
     21 C          14.3208   85.0494   18.4896 C.2     1  UNL1        0.3381
     22 O          15.4537   84.6276   18.8480 O.2     1  UNL1       -0.2451
     23 O          13.5080   84.2347   17.7053 O.3     1  UNL1       -0.4771
     24 H          13.8150   83.3121   17.4212 H       1  UNL1        0.2954
     25 C          11.0256   81.0315   26.4412 C.2     1  UNL1        0.2839
     26 O          10.6820   81.9749   27.2031 O.2     1  UNL1       -0.2665
     27 N          12.2634   81.1078   25.7184 N.am    1  UNL1       -0.2766
     28 H          12.7783   80.2168   25.5398 H       1  UNL1        0.1553
     29 C           7.5200   76.1498   26.5086 C.ar    1  UNL1        0.0002
     30 C           7.7228   76.2921   25.1091 C.ar    1  UNL1        0.0031
     31 C           8.5137   77.3360   24.5979 C.ar    1  UNL1        0.0375
     32 C           9.0892   78.2219   25.5022 C.ar    1  UNL1        0.1452
     33 O           9.8517   79.2531   25.2321 O.2     1  UNL1       -0.4492
     34 C          10.1777   79.8282   26.3765 C.ar    1  UNL1        0.1946
     35 C           9.6156   79.1191   27.4456 C.ar    1  UNL1        0.0202
     36 C           9.7449   79.3877   28.9147 C.3     1  UNL1        0.0345
     37 C           8.9031   78.0963   26.8520 C.ar    1  UNL1        0.0337
     38 C           8.1247   77.0735   27.3946 C.ar    1  UNL1        0.0028
     39 C           5.0959   74.1891   28.6997 C.ar    1  UNL1        0.0347
     40 C           5.0973   72.9481   28.0349 C.ar    1  UNL1        0.0028
     41 C           5.8751   72.7573   26.8917 C.ar    1  UNL1        0.0001
     42 C           6.6621   73.7958   26.3938 C.ar    1  UNL1        0.0000
     43 C           6.6816   75.0442   27.0373 C.ar    1  UNL1        0.0001
     44 C           5.8946   75.2313   28.1890 C.ar    1  UNL1        0.0028
     45 C           4.2175   75.7423   30.6077 C.3     1  UNL1        0.0773
     46 C           4.2699   74.4119   29.9177 C.2     1  UNL1        0.1735
     47 O           3.5882   73.4638   30.3942 O.2     1  UNL1       -0.2913
@<TRIPOS>BOND
     1    45    46    1
     2    46    47    2
     3    46    39    1
     4    39    40   ar
     5    40    41   ar
     6    41    42   ar
     7    42    43   ar
     8    43    29    1
     9    29    30   ar
    10    30    31   ar
    11    31    32   ar
    12    32    33   ar
    13    33    34   ar
    14    34    25    1
    15    25    26    2
    16    25    27   am
    17    27     1    1
    18     1     2   ar
    19     2     3   ar
    20     3     4   ar
    21     4     7    1
    22     7     8    1
    23     8     9    1
    24     9    10    1
    25    10    13    1
    26    13    14    1
    27    14    15    1
    28    15    16   ar
    29    16    17   ar
    30    17    18   ar
    31    18    19   ar
    32    19    21    1
    33    21    22    2
    34    21    23    1
    35    19    20   ar
    36    10    11    1
    37    11    12    1
    38     4     5   ar
    39     5     6   ar
    40    34    35   ar
    41    35    36    1
    42    35    37   ar
    43    37    38   ar
    44    43    44   ar
    45    44    39   ar
    46    38    29   ar
    47    37    32   ar
    48     6     1   ar
    49    12     7    1
    50    20    15   ar
    51    27    28    1
    52    23    24    1
@<TRIPOS>MOLECULE
*****
 47 52 0 0 0
SMALL
GASTEIGER

@<TRIPOS>ATOM
      1 C           8.6284   77.8900   22.6487 C.ar    1  UNL1        0.0702
      2 C           8.6816   79.2673   22.4024 C.ar    1  UNL1        0.0191
      3 C           9.5833   80.0727   23.0993 C.ar    1  UNL1        0.0356
      4 C          10.4350   79.4936   24.0529 C.ar    1  UNL1        0.1318
      5 N          10.3389   78.1584   24.3050 N.ar    1  UNL1       -0.2279
      6 C           9.4704   77.3541   23.6368 C.ar    1  UNL1        0.1149
      7 N          11.3631   80.2954   24.8080 N.pl3   1  UNL1       -0.2932
      8 C          10.8594   81.4606   25.5505 C.3     1  UNL1        0.0923
      9 C          12.0070   82.3408   26.0688 C.3     1  UNL1        0.0252
     10 C          13.1062   82.4626   24.9954 C.3     1  UNL1        0.0472
     11 C          13.7071   81.0769   24.6367 C.3     1  UNL1        0.0252
     12 C          12.7704   79.9008   24.9621 C.3     1  UNL1        0.0923
     13 C          14.2124   83.4395   25.4397 C.3     1  UNL1        0.2054
     14 O          13.9183   84.7767   25.0312 O.3     1  UNL1       -0.4755
     15 C          13.9512   85.2558   23.7110 C.ar    1  UNL1        0.1388
     16 C          14.9692   84.7936   22.8705 C.ar    1  UNL1        0.0369
     17 C          15.0544   85.2364   21.5496 C.ar    1  UNL1        0.0033
     18 C          14.1196   86.1464   21.0527 C.ar    1  UNL1        0.0066
     19 C          13.0838   86.6222   21.8757 C.ar    1  UNL1        0.0785
     20 C          13.0036   86.1692   23.2054 C.ar    1  UNL1        0.0433
     21 C          12.0898   87.5864   21.3532 C.2     1  UNL1        0.3381
     22 O          12.1884   88.8143   21.6224 O.2     1  UNL1       -0.2451
     23 O          11.0340   87.1463   20.5588 O.3     1  UNL1       -0.4771
     24 H          10.3482   87.7979   20.1968 H       1  UNL1        0.2954
     25 C           6.4890   76.5359   22.5377 C.2     1  UNL1        0.2839
     26 O           6.4438   76.3342   23.7810 O.2     1  UNL1       -0.2665
     27 N           7.6779   77.0752   21.9411 N.am    1  UNL1       -0.2766
     28 H           7.9186   76.7681   20.9723 H       1  UNL1        0.1553
     29 C           1.5931   74.9546   19.4305 C.ar    1  UNL1        0.0002
     30 C           2.5775   74.8616   18.4095 C.ar    1  UNL1        0.0031
     31 C           3.9270   75.1468   18.6814 C.ar    1  UNL1        0.0375
     32 C           4.2668   75.5216   19.9766 C.ar    1  UNL1        0.1452
     33 O           5.4573   75.8279   20.4312 O.2     1  UNL1       -0.4492
     34 C           5.3376   76.1315   21.7119 C.ar    1  UNL1        0.1946
     35 C           4.0031   75.9926   22.1139 C.ar    1  UNL1        0.0202
     36 C           3.4120   76.1996   23.4758 C.3     1  UNL1        0.0345
     37 C           3.3297   75.6145   20.9694 C.ar    1  UNL1        0.0337
     38 C           1.9820   75.3395   20.7360 C.ar    1  UNL1        0.0028
     39 C          -2.1862   75.3273   19.1145 C.ar    1  UNL1        0.0347
     40 C          -2.5213   74.0750   18.5654 C.ar    1  UNL1        0.0028
     41 C          -1.5300   73.1281   18.3027 C.ar    1  UNL1        0.0001
     42 C          -0.1931   73.4118   18.5821 C.ar    1  UNL1        0.0000
     43 C           0.1704   74.6523   19.1316 C.ar    1  UNL1        0.0001
     44 C          -0.8331   75.6037   19.3935 C.ar    1  UNL1        0.0028
     45 C          -4.3768   76.5927   18.4630 C.3     1  UNL1        0.0773
     46 C          -3.2293   76.3506   19.3975 C.2     1  UNL1        0.1735
     47 O          -3.1597   77.0413   20.4506 O.2     1  UNL1       -0.2913
@<TRIPOS>BOND
     1    45    46    1
     2    46    47    2
     3    46    39    1
     4    39    40   ar
     5    40    41   ar
     6    41    42   ar
     7    42    43   ar
     8    43    29    1
     9    29    30   ar
    10    30    31   ar
    11    31    32   ar
    12    32    33   ar
    13    33    34   ar
    14    34    25    1
    15    25    26    2
    16    25    27   am
    17    27     1    1
    18     1     2   ar
    19     2     3   ar
    20     3     4   ar
    21     4     7    1
    22     7     8    1
    23     8     9    1
    24     9    10    1
    25    10    13    1
    26    13    14    1
    27    14    15    1
    28    15    16   ar
    29    16    17   ar
    30    17    18   ar
    31    18    19   ar
    32    19    21    1
    33    21    22    2
    34    21    23    1
    35    19    20   ar
    36    10    11    1
    37    11    12    1
    38     4     5   ar
    39     5     6   ar
    40    34    35   ar
    41    35    36    1
    42    35    37   ar
    43    37    38   ar
    44    43    44   ar
    45    44    39   ar
    46    38    29   ar
    47    37    32   ar
    48     6     1   ar
    49    12     7    1
    50    20    15   ar
    51    27    28    1
    52    23    24    1
@<TRIPOS>MOLECULE
*****
 47 52 0 0 0
SMALL
GASTEIGER

@<TRIPOS>ATOM
      1 C          12.1014   81.3506   25.1501 C.ar    1  UNL1        0.0702
      2 C          13.4912   81.2800   24.9957 C.ar    1  UNL1        0.0191
      3 C          14.1959   82.3595   24.4614 C.ar    1  UNL1        0.0356
      4 C          13.5015   83.5166   24.0753 C.ar    1  UNL1        0.1318
      5 N          12.1452   83.5486   24.1974 N.ar    1  UNL1       -0.2279
      6 C          11.4383   82.5106   24.7175 C.ar    1  UNL1        0.1149
      7 N          14.1910   84.6423   23.4993 N.pl3   1  UNL1       -0.2932
      8 C          13.9036   85.9916   24.0085 C.3     1  UNL1        0.0923
      9 C          14.5171   87.0777   23.1117 C.3     1  UNL1        0.0252
     10 C          14.3350   86.7031   21.6278 C.3     1  UNL1        0.0472
     11 C          15.0426   85.3637   21.2882 C.3     1  UNL1        0.0252
     12 C          15.2667   84.4619   22.5142 C.3     1  UNL1        0.0923
     13 C          14.8306   87.8325   20.7037 C.3     1  UNL1        0.2054
     14 O          13.9402   88.0312   19.6039 O.3     1  UNL1       -0.4755
     15 C          14.1827   87.6480   18.2743 C.ar    1  UNL1        0.1388
     16 C          14.1702   88.6435   17.2918 C.ar    1  UNL1        0.0369
     17 C          14.4016   88.3223   15.9535 C.ar    1  UNL1        0.0033
     18 C          14.6508   86.9999   15.5820 C.ar    1  UNL1        0.0066
     19 C          14.6738   85.9816   16.5510 C.ar    1  UNL1        0.0785
     20 C          14.4418   86.3140   17.8984 C.ar    1  UNL1        0.0433
     21 C          14.9383   84.5782   16.1621 C.2     1  UNL1        0.3381
     22 O          15.9298   83.9601   16.6361 O.2     1  UNL1       -0.2451
     23 O          14.0941   83.9262   15.2668 O.3     1  UNL1       -0.4771
     24 H          14.2667   82.9660   14.9937 H       1  UNL1        0.2954
     25 C          10.4064   80.3174   26.7257 C.2     1  UNL1        0.2839
     26 O          10.4585   81.2676   27.5521 O.2     1  UNL1       -0.2665
     27 N          11.3844   80.2220   25.6795 N.am    1  UNL1       -0.2766
     28 H          11.6672   79.2676   25.3632 H       1  UNL1        0.1553
     29 C           6.2583   76.1032   27.8023 C.ar    1  UNL1        0.0002
     30 C           6.1591   76.1953   26.3875 C.ar    1  UNL1        0.0031
     31 C           6.9732   77.0846   25.6644 C.ar    1  UNL1        0.0375
     32 C           7.8754   77.8685   26.3750 C.ar    1  UNL1        0.1452
     33 O           8.7147   78.7525   25.8936 O.2     1  UNL1       -0.4492
     34 C           9.3810   79.2750   26.9084 C.ar    1  UNL1        0.1946
     35 C           8.9678   78.6822   28.1082 C.ar    1  UNL1        0.0202
     36 C           9.4687   78.9392   29.4975 C.3     1  UNL1        0.0345
     37 C           7.9821   77.7895   27.7370 C.ar    1  UNL1        0.0337
     38 C           7.1905   76.9192   28.4869 C.ar    1  UNL1        0.0028
     39 C           4.4309   72.9243   28.8403 C.ar    1  UNL1        0.0347
     40 C           3.7518   73.3824   29.9853 C.ar    1  UNL1        0.0028
     41 C           3.8903   74.7049   30.4099 C.ar    1  UNL1        0.0001
     42 C           4.7043   75.5900   29.7030 C.ar    1  UNL1        0.0000
     43 C           5.3926   75.1612   28.5561 C.ar    1  UNL1        0.0001
     44 C           5.2501   73.8265   28.1332 C.ar    1  UNL1        0.0028
     45 C           5.3196   70.8770   27.4826 C.3     1  UNL1        0.0773
     46 C           4.2983   71.5167   28.3751 C.2     1  UNL1        0.1735
     47 O           3.3039   70.8293   28.7347 O.2     1  UNL1       -0.2913
@<TRIPOS>BOND
     1    45    46    1
     2    46    47    2
     3    46    39    1
     4    39    40   ar
     5    40    41   ar
     6    41    42   ar
     7    42    43   ar
     8    43    29    1
     9    29    30   ar
    10    30    31   ar
    11    31    32   ar
    12    32    33   ar
    13    33    34   ar
    14    34    25    1
    15    25    26    2
    16    25    27   am
    17    27     1    1
    18     1     2   ar
    19     2     3   ar
    20     3     4   ar
    21     4     7    1
    22     7     8    1
    23     8     9    1
    24     9    10    1
    25    10    13    1
    26    13    14    1
    27    14    15    1
    28    15    16   ar
    29    16    17   ar
    30    17    18   ar
    31    18    19   ar
    32    19    21    1
    33    21    22    2
    34    21    23    1
    35    19    20   ar
    36    10    11    1
    37    11    12    1
    38     4     5   ar
    39     5     6   ar
    40    34    35   ar
    41    35    36    1
    42    35    37   ar
    43    37    38   ar
    44    43    44   ar
    45    44    39   ar
    46    38    29   ar
    47    37    32   ar
    48     6     1   ar
    49    12     7    1
    50    20    15   ar
    51    27    28    1
    52    23    24    1
@<TRIPOS>MOLECULE
*****
 47 52 0 0 0
SMALL
GASTEIGER

@<TRIPOS>ATOM
      1 C          12.3291   82.0746   25.7681 C.ar    1  UNL1        0.0702
      2 C          13.2634   82.9212   26.3770 C.ar    1  UNL1        0.0191
      3 C          13.9493   83.8725   25.6206 C.ar    1  UNL1        0.0356
      4 C          13.6997   83.9726   24.2430 C.ar    1  UNL1        0.1318
      5 N          12.8161   83.1125   23.6642 N.ar    1  UNL1       -0.2279
      6 C          12.1346   82.1803   24.3813 C.ar    1  UNL1        0.1149
      7 N          14.4040   84.9264   23.4254 N.pl3   1  UNL1       -0.2932
      8 C          14.6204   86.2863   23.9415 C.3     1  UNL1        0.0923
      9 C          15.1408   87.2310   22.8474 C.3     1  UNL1        0.0252
     10 C          14.4016   86.9629   21.5219 C.3     1  UNL1        0.0472
     11 C          14.6278   85.5086   21.0283 C.3     1  UNL1        0.0252
     12 C          15.0252   84.5358   22.1519 C.3     1  UNL1        0.0923
     13 C          14.8151   87.9782   20.4386 C.3     1  UNL1        0.2054
     14 O          13.8553   88.0283   19.3812 O.3     1  UNL1       -0.4755
     15 C          14.1312   87.8481   18.0155 C.ar    1  UNL1        0.1388
     16 C          14.1405   88.9796   17.1932 C.ar    1  UNL1        0.0369
     17 C          14.4054   88.8621   15.8279 C.ar    1  UNL1        0.0033
     18 C          14.6667   87.6099   15.2689 C.ar    1  UNL1        0.0066
     19 C          14.6684   86.4580   16.0748 C.ar    1  UNL1        0.0785
     20 C          14.4026   86.5852   17.4506 C.ar    1  UNL1        0.0433
     21 C          14.9457   85.1283   15.4867 C.2     1  UNL1        0.3381
     22 O          14.2596   84.7026   14.5182 O.2     1  UNL1       -0.2451
     23 O          15.9677   84.3328   15.9987 O.3     1  UNL1       -0.4771
     24 H          16.1652   83.4211   15.6038 H       1  UNL1        0.2954
     25 C          11.1984   81.3011   27.9004 C.2     1  UNL1        0.2839
     26 O          11.7732   82.1577   28.6246 O.2     1  UNL1       -0.2665
     27 N          11.6469   81.0825   26.5545 N.am    1  UNL1       -0.2766
     28 H          11.5693   80.1158   26.1666 H       1  UNL1        0.1553
     29 C           6.7475   77.8458   29.9920 C.ar    1  UNL1        0.0002
     30 C           7.2843   78.3294   31.2160 C.ar    1  UNL1        0.0031
     31 C           8.3804   79.2097   31.2244 C.ar    1  UNL1        0.0375
     32 C           8.9208   79.5909   30.0011 C.ar    1  UNL1        0.1452
     33 O           9.9353   80.3943   29.7938 O.2     1  UNL1       -0.4492
     34 C          10.1243   80.4818   28.4887 C.ar    1  UNL1        0.1946
     35 C           9.1678   79.7125   27.8140 C.ar    1  UNL1        0.0202
     36 C           8.9810   79.5408   26.3366 C.3     1  UNL1        0.0345
     37 C           8.4136   79.1338   28.8153 C.ar    1  UNL1        0.0337
     38 C           7.3275   78.2593   28.7688 C.ar    1  UNL1        0.0028
     39 C           4.6129   74.7397   29.4290 C.ar    1  UNL1        0.0347
     40 C           3.3970   75.1580   30.0024 C.ar    1  UNL1        0.0028
     41 C           3.2786   76.4307   30.5633 C.ar    1  UNL1        0.0001
     42 C           4.3655   77.3050   30.5617 C.ar    1  UNL1        0.0000
     43 C           5.5903   76.9153   29.9952 C.ar    1  UNL1        0.0001
     44 C           5.7044   75.6305   29.4320 C.ar    1  UNL1        0.0028
     45 C           3.7848   72.2816   29.1180 C.3     1  UNL1        0.0773
     46 C           4.7586   73.3849   28.8299 C.2     1  UNL1        0.1735
     47 O           5.7238   73.1434   28.0549 O.2     1  UNL1       -0.2913
@<TRIPOS>BOND
     1    45    46    1
     2    46    47    2
     3    46    39    1
     4    39    40   ar
     5    40    41   ar
     6    41    42   ar
     7    42    43   ar
     8    43    29    1
     9    29    30   ar
    10    30    31   ar
    11    31    32   ar
    12    32    33   ar
    13    33    34   ar
    14    34    25    1
    15    25    26    2
    16    25    27   am
    17    27     1    1
    18     1     2   ar
    19     2     3   ar
    20     3     4   ar
    21     4     7    1
    22     7     8    1
    23     8     9    1
    24     9    10    1
    25    10    13    1
    26    13    14    1
    27    14    15    1
    28    15    16   ar
    29    16    17   ar
    30    17    18   ar
    31    18    19   ar
    32    19    21    1
    33    21    22    2
    34    21    23    1
    35    19    20   ar
    36    10    11    1
    37    11    12    1
    38     4     5   ar
    39     5     6   ar
    40    34    35   ar
    41    35    36    1
    42    35    37   ar
    43    37    38   ar
    44    43    44   ar
    45    44    39   ar
    46    38    29   ar
    47    37    32   ar
    48     6     1   ar
    49    12     7    1
    50    20    15   ar
    51    27    28    1
    52    23    24    1
@<TRIPOS>MOLECULE
*****
 47 52 0 0 0
SMALL
GASTEIGER

@<TRIPOS>ATOM
      1 C          13.2242   83.3290   25.2700 C.ar    1  UNL1        0.0702
      2 C          13.2595   83.2343   23.8735 C.ar    1  UNL1        0.0191
      3 C          13.8111   84.2653   23.1117 C.ar    1  UNL1        0.0356
      4 C          14.3273   85.4012   23.7547 C.ar    1  UNL1        0.1318
      5 N          14.2467   85.4901   25.1116 N.ar    1  UNL1       -0.2279
      6 C          13.7164   84.4975   25.8739 C.ar    1  UNL1        0.1149
      7 N          14.8842   86.4954   23.0016 N.pl3   1  UNL1       -0.2932
      8 C          14.4693   87.8685   23.3255 C.3     1  UNL1        0.0923
      9 C          14.9478   88.8699   22.2632 C.3     1  UNL1        0.0252
     10 C          14.7743   88.2695   20.8544 C.3     1  UNL1        0.0472
     11 C          15.6095   86.9724   20.6819 C.3     1  UNL1        0.0252
     12 C          15.9518   86.2832   22.0140 C.3     1  UNL1        0.0923
     13 C          15.1305   89.2979   19.7632 C.3     1  UNL1        0.2054
     14 O          14.2359   89.2069   18.6527 O.3     1  UNL1       -0.4755
     15 C          14.4083   88.3840   17.5273 C.ar    1  UNL1        0.1388
     16 C          14.4755   88.9957   16.2712 C.ar    1  UNL1        0.0369
     17 C          14.6431   88.2291   15.1170 C.ar    1  UNL1        0.0033
     18 C          14.7479   86.8399   15.2060 C.ar    1  UNL1        0.0066
     19 C          14.6887   86.2014   16.4572 C.ar    1  UNL1        0.0785
     20 C          14.5217   86.9814   17.6162 C.ar    1  UNL1        0.0433
     21 C          14.8001   84.7288   16.5567 C.2     1  UNL1        0.3381
     22 O          15.8639   84.1442   16.2153 O.2     1  UNL1       -0.2451
     23 O          13.7293   83.9734   17.0280 O.3     1  UNL1       -0.4771
     24 H          13.7951   82.9650   17.0993 H       1  UNL1        0.2954
     25 C          11.3533   81.6870   25.7464 C.2     1  UNL1        0.2839
     26 O          10.4845   82.3552   25.1239 O.2     1  UNL1       -0.2665
     27 N          12.6311   82.2704   26.0417 N.am    1  UNL1       -0.2766
     28 H          13.1036   81.9841   26.9281 H       1  UNL1        0.1553
     29 C           9.7397   76.3416   27.9704 C.ar    1  UNL1        0.0002
     30 C          10.3841   75.9292   26.7726 C.ar    1  UNL1        0.0031
     31 C          10.9463   76.8729   25.8952 C.ar    1  UNL1        0.0375
     32 C          10.8521   78.2178   26.2354 C.ar    1  UNL1        0.1452
     33 O          11.3054   79.2446   25.5587 O.2     1  UNL1       -0.4492
     34 C          10.9994   80.3410   26.2303 C.ar    1  UNL1        0.1946
     35 C          10.3327   80.0057   27.4156 C.ar    1  UNL1        0.0202
     36 C           9.8293   80.9177   28.4935 C.3     1  UNL1        0.0345
     37 C          10.2353   78.6288   27.3857 C.ar    1  UNL1        0.0337
     38 C           9.6661   77.7210   28.2791 C.ar    1  UNL1        0.0028
     39 C           7.2208   74.4671   30.1301 C.ar    1  UNL1        0.0347
     40 C           8.0334   73.4317   30.6297 C.ar    1  UNL1        0.0028
     41 C           9.3784   73.3479   30.2660 C.ar    1  UNL1        0.0001
     42 C           9.9345   74.2913   29.4020 C.ar    1  UNL1        0.0000
     43 C           9.1482   75.3362   28.8893 C.ar    1  UNL1        0.0001
     44 C           7.7924   75.4151   29.2585 C.ar    1  UNL1        0.0028
     45 C           4.7307   73.7316   29.8430 C.3     1  UNL1        0.0773
     46 C           5.7838   74.5699   30.5038 C.2     1  UNL1        0.1735
     47 O           5.4266   75.3807   31.4014 O.2     1  UNL1       -0.2913
@<TRIPOS>BOND
     1    45    46    1
     2    46    47    2
     3    46    39    1
     4    39    40   ar
     5    40    41   ar
     6    41    42   ar
     7    42    43   ar
     8    43    29    1
     9    29    30   ar
    10    30    31   ar
    11    31    32   ar
    12    32    33   ar
    13    33    34   ar
    14    34    25    1
    15    25    26    2
    16    25    27   am
    17    27     1    1
    18     1     2   ar
    19     2     3   ar
    20     3     4   ar
    21     4     7    1
    22     7     8    1
    23     8     9    1
    24     9    10    1
    25    10    13    1
    26    13    14    1
    27    14    15    1
    28    15    16   ar
    29    16    17   ar
    30    17    18   ar
    31    18    19   ar
    32    19    21    1
    33    21    22    2
    34    21    23    1
    35    19    20   ar
    36    10    11    1
    37    11    12    1
    38     4     5   ar
    39     5     6   ar
    40    34    35   ar
    41    35    36    1
    42    35    37   ar
    43    37    38   ar
    44    43    44   ar
    45    44    39   ar
    46    38    29   ar
    47    37    32   ar
    48     6     1   ar
    49    12     7    1
    50    20    15   ar
    51    27    28    1
    52    23    24    1
