@<TRIPOS>MOLECULE
*****
 48 53 0 0 0
SMALL
GASTEIGER

@<TRIPOS>ATOM
      1 O          58.7324   85.6052    9.1100 O.2     1  UNL1       -0.2701
      2 C          59.8238   85.2267    9.6177 C.2     1  UNL1        0.2483
      3 N          60.2536   83.8662    9.4501 N.am    1  UNL1       -0.2945
      4 H          61.2495   83.6243    9.6560 H       1  UNL1        0.1501
      5 C          60.6605   86.2046   10.3494 C.ar    1  UNL1        0.0808
      6 C          61.0169   85.9509   11.6827 C.ar    1  UNL1        0.0080
      7 C          61.8015   86.8604   12.3956 C.ar    1  UNL1        0.0148
      8 C          62.2600   88.0458   11.7901 C.ar    1  UNL1        0.0510
      9 C          61.9146   88.2875   10.4467 C.ar    1  UNL1        0.0443
     10 C          61.1286   87.3787    9.7314 C.ar    1  UNL1        0.1457
     11 F          60.8742   87.6282    8.4217 F       1  UNL1       -0.2040
     12 N          63.0747   88.9896   12.5310 N.pl3   1  UNL1       -0.2930
     13 C          63.5608   90.2125   11.8685 C.3     1  UNL1        0.1132
     14 C          64.0261   91.2676   12.8775 C.3     1  UNL1        0.1123
     15 N          64.9602   90.6926   13.8568 N.pl3   1  UNL1       -0.3031
     16 C          64.8714   89.2674   14.2109 C.3     1  UNL1        0.1277
     17 C          63.4764   88.6999   13.9189 C.3     1  UNL1        0.1738
     18 CL         62.2822   89.3860   15.0615 Cl      1  UNL1       -0.0910
     19 C          65.9431   91.5343   14.5009 C.ar    1  UNL1        0.0489
     20 C          65.5960   92.3115   15.6208 C.ar    1  UNL1        0.0154
     21 C          66.5463   93.1255   16.2420 C.ar    1  UNL1        0.0135
     22 C          67.8562   93.1791   15.7568 C.ar    1  UNL1        0.0683
     23 CL         69.0232   94.2160   16.5663 Cl      1  UNL1       -0.0814
     24 C          68.2165   92.4101   14.6387 C.ar    1  UNL1        0.0694
     25 CL         69.8517   92.4527   13.9928 Cl      1  UNL1       -0.0813
     26 C          67.2637   91.5942   14.0173 C.ar    1  UNL1        0.0268
     27 C          59.3951   82.8528    8.8305 C.3     1  UNL1        0.1535
     28 C          60.0980   81.5197    8.8241 C.2     1  UNL1        0.2443
     29 O          59.8939   80.7138    7.8754 O.2     1  UNL1       -0.2730
     30 N          61.0701   81.2218    9.8395 N.am    1  UNL1       -0.2825
     31 H          61.3822   82.0032   10.4596 H       1  UNL1        0.1549
     32 C          61.7634   79.9680    9.9435 C.ar    1  UNL1        0.0535
     33 C          62.7930   79.6738    9.0396 C.ar    1  UNL1        0.0353
     34 C          63.4837   78.4647    9.1491 C.ar    1  UNL1        0.1002
     35 N          63.1684   77.5865   10.1375 N.ar    1  UNL1       -0.2422
     36 C          62.1876   77.8526   11.0403 C.ar    1  UNL1        0.1002
     37 C          61.4712   79.0499   10.9655 C.ar    1  UNL1        0.0353
     38 C          58.0551   82.7602    9.5835 C.3     1  UNL1        0.0569
     39 C          58.2500   82.3275   11.0092 C.ar    1  UNL1       -0.0017
     40 C          58.5497   83.1514   12.0906 C.ar    1  UNL1        0.0681
     41 N          58.7734   82.4115   13.2004 N.ar    1  UNL1       -0.3523
     42 C          58.6298   81.1281   12.8262 C.ar    1  UNL1        0.0563
     43 C          58.7950   79.9934   13.6192 C.ar    1  UNL1        0.0170
     44 C          58.6266   78.7361   13.0108 C.ar    1  UNL1        0.0015
     45 C          58.3062   78.6421   11.6380 C.ar    1  UNL1        0.0001
     46 C          58.1495   79.8045   10.8614 C.ar    1  UNL1        0.0012
     47 C          58.3148   81.0364   11.4946 C.ar    1  UNL1        0.0131
     48 H          59.0301   82.7678   14.1477 H       1  UNL1        0.1660
@<TRIPOS>BOND
     1     1     2    2
     2     2     3   am
     3     3    27    1
     4    27    38    1
     5    38    39    1
     6    39    40   ar
     7    40    41   ar
     8    41    42   ar
     9    42    43   ar
    10    43    44   ar
    11    44    45   ar
    12    45    46   ar
    13    46    47   ar
    14    27    28    1
    15    28    29    2
    16    28    30   am
    17    30    32    1
    18    32    33   ar
    19    33    34   ar
    20    34    35   ar
    21    35    36   ar
    22    36    37   ar
    23     2     5    1
    24     5     6   ar
    25     6     7   ar
    26     7     8   ar
    27     8    12    1
    28    12    13    1
    29    13    14    1
    30    14    15    1
    31    15    19    1
    32    19    20   ar
    33    20    21   ar
    34    21    22   ar
    35    22    23    1
    36    22    24   ar
    37    24    25    1
    38    24    26   ar
    39    15    16    1
    40    16    17    1
    41    17    18    1
    42     8     9   ar
    43     9    10   ar
    44    10    11    1
    45    47    39   ar
    46    37    32   ar
    47    10     5   ar
    48    47    42   ar
    49    17    12    1
    50    26    19   ar
    51     3     4    1
    52    41    48    1
    53    30    31    1
@<TRIPOS>MOLECULE
*****
 48 53 0 0 0
SMALL
GASTEIGER

@<TRIPOS>ATOM
      1 O          59.1806   86.1130    8.2878 O.2     1  UNL1       -0.2701
      2 C          60.0676   85.6635    9.0644 C.2     1  UNL1        0.2483
      3 N          60.2960   84.2473    9.1414 N.am    1  UNL1       -0.2945
      4 H          61.1753   83.9031    9.5899 H       1  UNL1        0.1501
      5 C          60.8830   86.6102    9.8585 C.ar    1  UNL1        0.0808
      6 C          61.5408   86.1588   11.0130 C.ar    1  UNL1        0.0080
      7 C          62.3120   87.0338   11.7815 C.ar    1  UNL1        0.0148
      8 C          62.4546   88.3842   11.4099 C.ar    1  UNL1        0.0510
      9 C          61.8073   88.8283   10.2411 C.ar    1  UNL1        0.0443
     10 C          61.0341   87.9542    9.4707 C.ar    1  UNL1        0.1457
     11 F          60.4806   88.4162    8.3208 F       1  UNL1       -0.2040
     12 N          63.2558   89.2920   12.2084 N.pl3   1  UNL1       -0.2930
     13 C          63.8227   90.5030   11.5894 C.3     1  UNL1        0.1132
     14 C          64.2630   91.5320   12.6358 C.3     1  UNL1        0.1123
     15 N          65.1165   90.9157   13.6626 N.pl3   1  UNL1       -0.3031
     16 C          64.9573   89.4915   13.9950 C.3     1  UNL1        0.1277
     17 C          63.5635   88.9760   13.6144 C.3     1  UNL1        0.1738
     18 CL         62.3276   89.6935   14.6915 Cl      1  UNL1       -0.0910
     19 C          66.0877   91.7165   14.3732 C.ar    1  UNL1        0.0489
     20 C          65.7027   92.4900   15.4833 C.ar    1  UNL1        0.0154
     21 C          66.6417   93.2645   16.1687 C.ar    1  UNL1        0.0135
     22 C          67.9780   93.2817   15.7587 C.ar    1  UNL1        0.0683
     23 CL         69.1297   94.2694   16.6477 Cl      1  UNL1       -0.0814
     24 C          68.3763   92.5159   14.6513 C.ar    1  UNL1        0.0694
     25 CL         70.0459   92.5136   14.0989 Cl      1  UNL1       -0.0813
     26 C          67.4347   91.7396   13.9654 C.ar    1  UNL1        0.0268
     27 C          59.4307   83.2841    8.4547 C.3     1  UNL1        0.1535
     28 C          60.0078   81.8974    8.5782 C.2     1  UNL1        0.2443
     29 O          59.7422   81.0329    7.6989 O.2     1  UNL1       -0.2730
     30 N          60.9355   81.6032    9.6353 N.am    1  UNL1       -0.2825
     31 H          61.3106   82.4047   10.1917 H       1  UNL1        0.1549
     32 C          61.5090   80.3058    9.8617 C.ar    1  UNL1        0.0535
     33 C          62.6676   79.9345    9.1662 C.ar    1  UNL1        0.0353
     34 C          63.2405   78.6818    9.3977 C.ar    1  UNL1        0.1002
     35 N          62.6853   77.8352   10.3047 N.ar    1  UNL1       -0.2422
     36 C          61.5729   78.1752   11.0081 C.ar    1  UNL1        0.1002
     37 C          60.9674   79.4180   10.8059 C.ar    1  UNL1        0.0353
     38 C          58.0075   83.3377    9.0405 C.3     1  UNL1        0.0569
     39 C          58.0238   83.2732   10.5416 C.ar    1  UNL1       -0.0017
     40 C          58.1233   82.1232   11.3196 C.ar    1  UNL1        0.0681
     41 N          57.9855   82.4263   12.6305 N.ar    1  UNL1       -0.3523
     42 C          57.7878   83.7550   12.6855 C.ar    1  UNL1        0.0563
     43 C          57.5620   84.5291   13.8228 C.ar    1  UNL1        0.0170
     44 C          57.3455   85.9082   13.6470 C.ar    1  UNL1        0.0015
     45 C          57.3538   86.4750   12.3530 C.ar    1  UNL1        0.0001
     46 C          57.5805   85.6684   11.2229 C.ar    1  UNL1        0.0012
     47 C          57.7999   84.3065   11.4299 C.ar    1  UNL1        0.0131
     48 H          58.0045   81.7573   13.4320 H       1  UNL1        0.1660
@<TRIPOS>BOND
     1     1     2    2
     2     2     3   am
     3     3    27    1
     4    27    38    1
     5    38    39    1
     6    39    40   ar
     7    40    41   ar
     8    41    42   ar
     9    42    43   ar
    10    43    44   ar
    11    44    45   ar
    12    45    46   ar
    13    46    47   ar
    14    27    28    1
    15    28    29    2
    16    28    30   am
    17    30    32    1
    18    32    33   ar
    19    33    34   ar
    20    34    35   ar
    21    35    36   ar
    22    36    37   ar
    23     2     5    1
    24     5     6   ar
    25     6     7   ar
    26     7     8   ar
    27     8    12    1
    28    12    13    1
    29    13    14    1
    30    14    15    1
    31    15    19    1
    32    19    20   ar
    33    20    21   ar
    34    21    22   ar
    35    22    23    1
    36    22    24   ar
    37    24    25    1
    38    24    26   ar
    39    15    16    1
    40    16    17    1
    41    17    18    1
    42     8     9   ar
    43     9    10   ar
    44    10    11    1
    45    47    39   ar
    46    37    32   ar
    47    10     5   ar
    48    47    42   ar
    49    17    12    1
    50    26    19   ar
    51     3     4    1
    52    41    48    1
    53    30    31    1
@<TRIPOS>MOLECULE
*****
 48 53 0 0 0
SMALL
GASTEIGER

@<TRIPOS>ATOM
      1 O          58.2121   84.0445   12.1185 O.2     1  UNL1       -0.2701
      2 C          59.3568   83.8303   12.6042 C.2     1  UNL1        0.2483
      3 N          59.8211   82.4804   12.7657 N.am    1  UNL1       -0.2945
      4 H          60.8394   82.3154   12.9344 H       1  UNL1        0.1501
      5 C          60.2168   84.9795   12.9671 C.ar    1  UNL1        0.0808
      6 C          61.5814   84.9540   12.6406 C.ar    1  UNL1        0.0080
      7 C          62.4142   86.0238   12.9765 C.ar    1  UNL1        0.0148
      8 C          61.9019   87.1545   13.6407 C.ar    1  UNL1        0.0510
      9 C          60.5287   87.1832   13.9505 C.ar    1  UNL1        0.0443
     10 C          59.6933   86.1130   13.6157 C.ar    1  UNL1        0.1457
     11 F          58.3663   86.2153   13.8817 F       1  UNL1       -0.2040
     12 N          62.7673   88.2650   13.9890 N.pl3   1  UNL1       -0.2930
     13 C          63.2493   89.1741   12.9344 C.3     1  UNL1        0.1132
     14 C          63.7796   90.4919   13.5087 C.3     1  UNL1        0.1123
     15 N          64.7433   90.2509   14.5930 N.pl3   1  UNL1       -0.3031
     16 C          64.6405   89.0337   15.4129 C.3     1  UNL1        0.1277
     17 C          63.2228   88.4488   15.3783 C.3     1  UNL1        0.1738
     18 CL         62.0937   89.5216   16.2597 Cl      1  UNL1       -0.0910
     19 C          65.7704   91.2269   14.8792 C.ar    1  UNL1        0.0489
     20 C          65.5672   92.2122   15.8624 C.ar    1  UNL1        0.0154
     21 C          66.5600   93.1557   16.1376 C.ar    1  UNL1        0.0135
     22 C          67.7695   93.1334   15.4373 C.ar    1  UNL1        0.0683
     23 CL         68.9941   94.3382   15.8128 Cl      1  UNL1       -0.0814
     24 C          67.9856   92.1567   14.4520 C.ar    1  UNL1        0.0694
     25 CL         69.4904   92.0968   13.5437 Cl      1  UNL1       -0.0813
     26 C          66.9905   91.2113   14.1773 C.ar    1  UNL1        0.0268
     27 C          58.9504   81.3270   12.5218 C.3     1  UNL1        0.1535
     28 C          58.5741   81.2680   11.0636 C.2     1  UNL1        0.2443
     29 O          57.5941   80.5606   10.7025 O.2     1  UNL1       -0.2730
     30 N          59.2661   82.0962   10.1150 N.am    1  UNL1       -0.2825
     31 H          59.9012   82.8381   10.4878 H       1  UNL1        0.1549
     32 C          59.0098   82.0839    8.7016 C.ar    1  UNL1        0.0535
     33 C          59.9304   82.6809    7.8300 C.ar    1  UNL1        0.0353
     34 C          59.6957   82.6540    6.4532 C.ar    1  UNL1        0.1002
     35 N          58.5882   82.0376    5.9624 N.ar    1  UNL1       -0.2422
     36 C          57.6873   81.4336    6.7818 C.ar    1  UNL1        0.1002
     37 C          57.8833   81.4388    8.1652 C.ar    1  UNL1        0.0353
     38 C          59.6551   80.0288   12.9569 C.3     1  UNL1        0.0569
     39 C          61.1071   80.2632   13.2642 C.ar    1  UNL1       -0.0017
     40 C          61.7343   80.0737   14.4924 C.ar    1  UNL1        0.0681
     41 N          63.0177   80.4968   14.4377 N.ar    1  UNL1       -0.3523
     42 C          63.2022   80.9628   13.1901 C.ar    1  UNL1        0.0563
     43 C          64.3600   81.5345   12.6644 C.ar    1  UNL1        0.0170
     44 C          64.3231   81.9881   11.3331 C.ar    1  UNL1        0.0015
     45 C          63.1419   81.8666   10.5678 C.ar    1  UNL1        0.0001
     46 C          61.9871   81.2889   11.1261 C.ar    1  UNL1        0.0012
     47 C          62.0570   80.8413   12.4454 C.ar    1  UNL1        0.0131
     48 H          63.7133   80.4852   15.2164 H       1  UNL1        0.1660
@<TRIPOS>BOND
     1     1     2    2
     2     2     3   am
     3     3    27    1
     4    27    38    1
     5    38    39    1
     6    39    40   ar
     7    40    41   ar
     8    41    42   ar
     9    42    43   ar
    10    43    44   ar
    11    44    45   ar
    12    45    46   ar
    13    46    47   ar
    14    27    28    1
    15    28    29    2
    16    28    30   am
    17    30    32    1
    18    32    33   ar
    19    33    34   ar
    20    34    35   ar
    21    35    36   ar
    22    36    37   ar
    23     2     5    1
    24     5     6   ar
    25     6     7   ar
    26     7     8   ar
    27     8    12    1
    28    12    13    1
    29    13    14    1
    30    14    15    1
    31    15    19    1
    32    19    20   ar
    33    20    21   ar
    34    21    22   ar
    35    22    23    1
    36    22    24   ar
    37    24    25    1
    38    24    26   ar
    39    15    16    1
    40    16    17    1
    41    17    18    1
    42     8     9   ar
    43     9    10   ar
    44    10    11    1
    45    47    39   ar
    46    37    32   ar
    47    10     5   ar
    48    47    42   ar
    49    17    12    1
    50    26    19   ar
    51     3     4    1
    52    41    48    1
    53    30    31    1
@<TRIPOS>MOLECULE
*****
 48 53 0 0 0
SMALL
GASTEIGER

@<TRIPOS>ATOM
      1 O          59.0427   83.1141   11.5419 O.2     1  UNL1       -0.2701
      2 C          60.1756   83.4258   11.0820 C.2     1  UNL1        0.2483
      3 N          60.7157   82.7002    9.9660 N.am    1  UNL1       -0.2945
      4 H          61.5237   83.1090    9.4437 H       1  UNL1        0.1501
      5 C          60.9139   84.5605   11.6813 C.ar    1  UNL1        0.0808
      6 C          61.2000   85.6908   10.9003 C.ar    1  UNL1        0.0080
      7 C          61.8993   86.7720   11.4415 C.ar    1  UNL1        0.0148
      8 C          62.3237   86.7562   12.7837 C.ar    1  UNL1        0.0510
      9 C          62.0190   85.6275   13.5684 C.ar    1  UNL1        0.0443
     10 C          61.3195   84.5437   13.0284 C.ar    1  UNL1        0.1457
     11 F          60.9977   83.5063   13.8422 F       1  UNL1       -0.2040
     12 N          63.0497   87.8794   13.3449 N.pl3   1  UNL1       -0.2930
     13 C          63.3436   89.0528   12.5037 C.3     1  UNL1        0.1132
     14 C          63.7230   90.2797   13.3396 C.3     1  UNL1        0.1123
     15 N          64.7706   89.9539   14.3187 N.pl3   1  UNL1       -0.3031
     16 C          64.8801   88.5876   14.8533 C.3     1  UNL1        0.1277
     17 C          63.5547   87.8254   14.7282 C.3     1  UNL1        0.1738
     18 CL         62.3432   88.5105   15.8531 Cl      1  UNL1       -0.0910
     19 C          65.6712   90.9836   14.7855 C.ar    1  UNL1        0.0489
     20 C          65.2613   91.8996   15.7714 C.ar    1  UNL1        0.0154
     21 C          66.1319   92.8952   16.2211 C.ar    1  UNL1        0.0135
     22 C          67.4232   92.9950   15.6952 C.ar    1  UNL1        0.0683
     23 CL         68.4891   94.2620   16.2874 Cl      1  UNL1       -0.0814
     24 C          67.8454   92.0887   14.7094 C.ar    1  UNL1        0.0694
     25 CL         69.4594   92.1826   14.0172 Cl      1  UNL1       -0.0813
     26 C          66.9725   91.0909   14.2598 C.ar    1  UNL1        0.0268
     27 C          60.0601   81.5049    9.4282 C.3     1  UNL1        0.1535
     28 C          59.3409   80.7738   10.5326 C.2     1  UNL1        0.2443
     29 O          58.2231   80.2382   10.2985 O.2     1  UNL1       -0.2730
     30 N          59.9795   80.6040   11.8085 N.am    1  UNL1       -0.2825
     31 H          60.9927   80.8501   11.8830 H       1  UNL1        0.1549
     32 C          59.3636   79.9592   12.9347 C.ar    1  UNL1        0.0535
     33 C          59.2406   78.5634   12.9461 C.ar    1  UNL1        0.0353
     34 C          58.6607   77.9301   14.0478 C.ar    1  UNL1        0.1002
     35 N          58.2333   78.6639   15.1091 N.ar    1  UNL1       -0.2422
     36 C          58.3566   80.0174   15.1348 C.ar    1  UNL1        0.1002
     37 C          58.9295   80.6905   14.0527 C.ar    1  UNL1        0.0353
     38 C          59.0820   81.8961    8.3049 C.3     1  UNL1        0.0569
     39 C          58.5829   83.3036    8.4708 C.ar    1  UNL1       -0.0017
     40 C          57.3077   83.6871    8.8768 C.ar    1  UNL1        0.0681
     41 N          57.1713   85.0304    8.7991 N.ar    1  UNL1       -0.3523
     42 C          58.3443   85.4966    8.3361 C.ar    1  UNL1        0.0563
     43 C          58.6766   86.8219    8.0592 C.ar    1  UNL1        0.0170
     44 C          59.9602   87.0845    7.5465 C.ar    1  UNL1        0.0015
     45 C          60.8704   86.0281    7.3194 C.ar    1  UNL1        0.0001
     46 C          60.5060   84.6996    7.6045 C.ar    1  UNL1        0.0012
     47 C          59.2297   84.4719    8.1193 C.ar    1  UNL1        0.0131
     48 H          56.3178   85.5862    9.0291 H       1  UNL1        0.1660
@<TRIPOS>BOND
     1     1     2    2
     2     2     3   am
     3     3    27    1
     4    27    38    1
     5    38    39    1
     6    39    40   ar
     7    40    41   ar
     8    41    42   ar
     9    42    43   ar
    10    43    44   ar
    11    44    45   ar
    12    45    46   ar
    13    46    47   ar
    14    27    28    1
    15    28    29    2
    16    28    30   am
    17    30    32    1
    18    32    33   ar
    19    33    34   ar
    20    34    35   ar
    21    35    36   ar
    22    36    37   ar
    23     2     5    1
    24     5     6   ar
    25     6     7   ar
    26     7     8   ar
    27     8    12    1
    28    12    13    1
    29    13    14    1
    30    14    15    1
    31    15    19    1
    32    19    20   ar
    33    20    21   ar
    34    21    22   ar
    35    22    23    1
    36    22    24   ar
    37    24    25    1
    38    24    26   ar
    39    15    16    1
    40    16    17    1
    41    17    18    1
    42     8     9   ar
    43     9    10   ar
    44    10    11    1
    45    47    39   ar
    46    37    32   ar
    47    10     5   ar
    48    47    42   ar
    49    17    12    1
    50    26    19   ar
    51     3     4    1
    52    41    48    1
    53    30    31    1
