@<TRIPOS>MOLECULE
*****
 41 45 0 0 0
SMALL
GASTEIGER

@<TRIPOS>ATOM
      1 C         -29.9071   47.1499   -7.9070 C.3     1  UNL1        0.1333
      2 N         -28.5123   47.5064   -7.6426 N.ar    1  UNL1       -0.2950
      3 C         -27.6287   46.9091   -6.7928 C.ar    1  UNL1        0.2019
      4 N         -26.4277   47.5375   -6.7259 N.ar    1  UNL1       -0.2134
      5 C         -26.5685   48.5500   -7.5990 C.ar    1  UNL1        0.1033
      6 C         -25.6104   49.5000   -7.9437 C.ar    1  UNL1        0.0284
      7 C         -25.9533   50.4852   -8.8969 C.ar    1  UNL1        0.0922
      8 C         -27.2395   50.4529   -9.5033 C.ar    1  UNL1        0.1782
      9 C         -28.1742   49.4571   -9.1474 C.ar    1  UNL1        0.1897
     10 C         -27.8121   48.5331   -8.1624 C.ar    1  UNL1        0.1173
     11 O         -29.4085   49.4101   -9.8027 O.3     1  UNL1       -0.4669
     12 C         -29.6398   50.1584  -10.9977 C.3     1  UNL1        0.2527
     13 C         -28.9623   51.5299  -10.9028 C.3     1  UNL1        0.2526
     14 O         -27.6029   51.3798  -10.4882 O.3     1  UNL1       -0.4682
     15 C         -24.9568   51.5154   -9.2568 C.2     1  UNL1        0.2526
     16 O         -25.3237   52.7198   -9.3263 O.2     1  UNL1       -0.2697
     17 N         -23.5906   51.1539   -9.5289 N.am    1  UNL1       -0.2803
     18 H         -23.3063   50.1545   -9.4239 H       1  UNL1        0.1552
     19 C         -22.5594   52.0983   -9.8616 C.ar    1  UNL1        0.0506
     20 C         -22.4839   52.6803  -11.1376 C.ar    1  UNL1        0.0170
     21 C         -21.4556   53.5732  -11.4438 C.ar    1  UNL1        0.0309
     22 C         -20.4855   53.8860  -10.4885 C.ar    1  UNL1        0.1441
     23 F         -19.4932   54.7532  -10.8140 F       1  UNL1       -0.2042
     24 C         -20.5314   53.2979   -9.2111 C.ar    1  UNL1        0.1000
     25 C         -21.5690   52.3939   -8.9127 C.ar    1  UNL1        0.0208
     26 C         -19.4650   53.6312   -8.1951 C.3     1  UNL1        0.4207
     27 F         -19.2774   54.9977   -8.0759 F       1  UNL1       -0.1658
     28 F         -19.8330   53.1282   -6.9605 F       1  UNL1       -0.1658
     29 F         -18.2659   53.0572   -8.5773 F       1  UNL1       -0.1658
     30 N         -27.8951   45.7160   -6.0403 N.pl3   1  UNL1       -0.2814
     31 H         -28.2502   44.8837   -6.5626 H       1  UNL1        0.1551
     32 C         -27.7421   45.6030   -4.6164 C.ar    1  UNL1        0.0894
     33 C         -26.4802   45.2716   -4.0985 C.ar    1  UNL1        0.1543
     34 F         -25.4298   45.0730   -4.9341 F       1  UNL1       -0.2028
     35 C         -26.2857   45.1730   -2.7202 C.ar    1  UNL1        0.0315
     36 C         -27.3495   45.3890   -1.8453 C.ar    1  UNL1        0.0091
     37 C         -28.6222   45.6885   -2.3417 C.ar    1  UNL1        0.0334
     38 S         -29.9636   45.9329   -1.1737 S.3     1  UNL1       -0.1405
     39 C         -28.8319   45.7853   -3.7318 C.ar    1  UNL1        0.0787
     40 CL        -30.4625   46.0627   -4.3508 Cl      1  UNL1       -0.0804
     41 H         -29.7115   47.3153   -1.0934 H       1  UNL1        0.1072
@<TRIPOS>BOND
     1     1     2    1
     2     2     3   ar
     3     3    30    1
     4    30    32    1
     5    32    33   ar
     6    33    34    1
     7    33    35   ar
     8    35    36   ar
     9    36    37   ar
    10    37    38    1
    11    37    39   ar
    12    39    40    1
    13     3     4   ar
    14     4     5   ar
    15     5     6   ar
    16     6     7   ar
    17     7    15    1
    18    15    16    2
    19    15    17   am
    20    17    19    1
    21    19    20   ar
    22    20    21   ar
    23    21    22   ar
    24    22    23    1
    25    22    24   ar
    26    24    26    1
    27    26    27    1
    28    26    28    1
    29    26    29    1
    30    24    25   ar
    31     7     8   ar
    32     8     9   ar
    33     9    10   ar
    34     9    11    1
    35    11    12    1
    36    12    13    1
    37    13    14    1
    38    10     2   ar
    39    39    32   ar
    40    10     5   ar
    41    25    19   ar
    42    14     8    1
    43    30    31    1
    44    38    41    1
    45    17    18    1
@<TRIPOS>MOLECULE
*****
 41 45 0 0 0
SMALL
GASTEIGER

@<TRIPOS>ATOM
      1 C         -31.0156   50.4193   -8.5025 C.3     1  UNL1        0.1333
      2 N         -29.8683   50.5353   -9.4040 N.ar    1  UNL1       -0.2950
      3 C         -29.8460   50.4604  -10.7655 C.ar    1  UNL1        0.2019
      4 N         -28.5985   50.5339  -11.2946 N.ar    1  UNL1       -0.2134
      5 C         -27.8201   50.6930  -10.2100 C.ar    1  UNL1        0.1033
      6 C         -26.4370   50.8533  -10.1861 C.ar    1  UNL1        0.0284
      7 C         -25.8010   51.0174   -8.9350 C.ar    1  UNL1        0.0922
      8 C         -26.5882   51.0572   -7.7509 C.ar    1  UNL1        0.1782
      9 C         -27.9910   50.9184   -7.8187 C.ar    1  UNL1        0.1897
     10 C         -28.5740   50.7063   -9.0717 C.ar    1  UNL1        0.1173
     11 O         -28.7474   51.0230   -6.6473 O.3     1  UNL1       -0.4669
     12 C         -28.1760   51.5346   -5.4418 C.3     1  UNL1        0.2527
     13 C         -26.7336   51.0397   -5.2883 C.3     1  UNL1        0.2526
     14 O         -26.0039   51.2674   -6.4957 O.3     1  UNL1       -0.4682
     15 C         -24.3313   51.1649   -8.8892 C.2     1  UNL1        0.2526
     16 O         -23.6985   50.6626   -7.9210 O.2     1  UNL1       -0.2697
     17 N         -23.6305   51.8733   -9.9276 N.am    1  UNL1       -0.2803
     18 H         -24.1759   52.2433  -10.7377 H       1  UNL1        0.1552
     19 C         -22.2033   52.0389   -9.9665 C.ar    1  UNL1        0.0506
     20 C         -21.4607   51.7220  -11.1157 C.ar    1  UNL1        0.0170
     21 C         -20.0722   51.8651  -11.1177 C.ar    1  UNL1        0.0309
     22 C         -19.4077   52.3125   -9.9732 C.ar    1  UNL1        0.1441
     23 F         -18.0563   52.4376  -10.0004 F       1  UNL1       -0.2042
     24 C         -20.1311   52.6156   -8.8051 C.ar    1  UNL1        0.1000
     25 C         -21.5309   52.4628   -8.8101 C.ar    1  UNL1        0.0208
     26 C         -19.3971   53.0800   -7.5697 C.3     1  UNL1        0.4207
     27 F         -18.5313   52.1114   -7.0915 F       1  UNL1       -0.1658
     28 F         -18.6658   54.2150   -7.8689 F       1  UNL1       -0.1658
     29 F         -20.3097   53.3803   -6.5745 F       1  UNL1       -0.1658
     30 N         -31.0091   50.3391  -11.5981 N.pl3   1  UNL1       -0.2814
     31 H         -31.9079   50.7273  -11.2334 H       1  UNL1        0.1551
     32 C         -31.0267   49.6879  -12.8784 C.ar    1  UNL1        0.0894
     33 C         -31.3222   50.4515  -14.0186 C.ar    1  UNL1        0.1543
     34 F         -31.5758   51.7796  -13.9043 F       1  UNL1       -0.2028
     35 C         -31.3285   49.8605  -15.2827 C.ar    1  UNL1        0.0315
     36 C         -31.0549   48.5005  -15.4217 C.ar    1  UNL1        0.0091
     37 C         -30.7897   47.7151  -14.2954 C.ar    1  UNL1        0.0334
     38 S         -30.4683   45.9639  -14.5263 S.3     1  UNL1       -0.1405
     39 C         -30.7861   48.2997  -13.0132 C.ar    1  UNL1        0.0787
     40 CL        -30.5512   47.2802  -11.5903 Cl      1  UNL1       -0.0804
     41 H         -29.0835   46.1814  -14.6533 H       1  UNL1        0.1072
@<TRIPOS>BOND
     1     1     2    1
     2     2     3   ar
     3     3    30    1
     4    30    32    1
     5    32    33   ar
     6    33    34    1
     7    33    35   ar
     8    35    36   ar
     9    36    37   ar
    10    37    38    1
    11    37    39   ar
    12    39    40    1
    13     3     4   ar
    14     4     5   ar
    15     5     6   ar
    16     6     7   ar
    17     7    15    1
    18    15    16    2
    19    15    17   am
    20    17    19    1
    21    19    20   ar
    22    20    21   ar
    23    21    22   ar
    24    22    23    1
    25    22    24   ar
    26    24    26    1
    27    26    27    1
    28    26    28    1
    29    26    29    1
    30    24    25   ar
    31     7     8   ar
    32     8     9   ar
    33     9    10   ar
    34     9    11    1
    35    11    12    1
    36    12    13    1
    37    13    14    1
    38    10     2   ar
    39    39    32   ar
    40    10     5   ar
    41    25    19   ar
    42    14     8    1
    43    30    31    1
    44    38    41    1
    45    17    18    1
@<TRIPOS>MOLECULE
*****
 41 45 0 0 0
SMALL
GASTEIGER

@<TRIPOS>ATOM
      1 C         -30.8112   49.7167   -6.5234 C.3     1  UNL1        0.1333
      2 N         -29.3769   49.8743   -6.2783 N.ar    1  UNL1       -0.2950
      3 C         -28.6666   49.5606   -5.1572 C.ar    1  UNL1        0.2019
      4 N         -27.3558   49.9049   -5.2288 N.ar    1  UNL1       -0.2134
      5 C         -27.2483   50.4259   -6.4635 C.ar    1  UNL1        0.1033
      6 C         -26.0940   50.9143   -7.0704 C.ar    1  UNL1        0.0284
      7 C         -26.1880   51.4150   -8.3885 C.ar    1  UNL1        0.0922
      8 C         -27.4373   51.3664   -9.0668 C.ar    1  UNL1        0.1782
      9 C         -28.5793   50.8384   -8.4273 C.ar    1  UNL1        0.1897
     10 C         -28.4533   50.4016   -7.1051 C.ar    1  UNL1        0.1173
     11 O         -29.7804   50.7450   -9.1370 O.3     1  UNL1       -0.4669
     12 C         -29.8152   50.9090  -10.5559 C.3     1  UNL1        0.2527
     13 C         -28.8464   52.0166  -10.9845 C.3     1  UNL1        0.2526
     14 O         -27.5639   51.8060  -10.3904 O.3     1  UNL1       -0.4682
     15 C         -24.9779   51.9592   -9.0391 C.2     1  UNL1        0.2526
     16 O         -25.0878   52.9762   -9.7765 O.2     1  UNL1       -0.2697
     17 N         -23.6944   51.3390   -8.8412 N.am    1  UNL1       -0.2803
     18 H         -23.6268   50.5229   -8.1931 H       1  UNL1        0.1552
     19 C         -22.4700   51.8215   -9.4191 C.ar    1  UNL1        0.0506
     20 C         -22.1975   51.6702  -10.7886 C.ar    1  UNL1        0.0170
     21 C         -20.9883   52.1224  -11.3194 C.ar    1  UNL1        0.0309
     22 C         -20.0334   52.7176  -10.4915 C.ar    1  UNL1        0.1441
     23 F         -18.8636   53.1437  -11.0325 F       1  UNL1       -0.2042
     24 C         -20.2784   52.8599   -9.1133 C.ar    1  UNL1        0.1000
     25 C         -21.4985   52.3958   -8.5854 C.ar    1  UNL1        0.0208
     26 C         -19.2288   53.4882   -8.2278 C.3     1  UNL1        0.4207
     27 F         -18.0017   52.8613   -8.3605 F       1  UNL1       -0.1658
     28 F         -19.0808   54.8213   -8.5650 F       1  UNL1       -0.1658
     29 F         -19.6247   53.3983   -6.9054 F       1  UNL1       -0.1658
     30 N         -29.2094   48.9074   -3.9999 N.pl3   1  UNL1       -0.2814
     31 H         -29.7424   49.4936   -3.3188 H       1  UNL1        0.1551
     32 C         -29.0367   47.5135   -3.6984 C.ar    1  UNL1        0.0894
     33 C         -30.0910   46.6288   -3.9741 C.ar    1  UNL1        0.1543
     34 F         -31.2432   47.0895   -4.5230 F       1  UNL1       -0.2028
     35 C         -29.9546   45.2644   -3.7153 C.ar    1  UNL1        0.0315
     36 C         -28.7723   44.7703   -3.1660 C.ar    1  UNL1        0.0091
     37 C         -27.7217   45.6390   -2.8540 C.ar    1  UNL1        0.0334
     38 S         -26.2302   44.9554   -2.1250 S.3     1  UNL1       -0.1405
     39 C         -27.8501   47.0195   -3.1057 C.ar    1  UNL1        0.0787
     40 CL        -26.5588   48.1196   -2.6142 Cl      1  UNL1       -0.0804
     41 H         -25.6409   44.7578   -3.3878 H       1  UNL1        0.1072
@<TRIPOS>BOND
     1     1     2    1
     2     2     3   ar
     3     3    30    1
     4    30    32    1
     5    32    33   ar
     6    33    34    1
     7    33    35   ar
     8    35    36   ar
     9    36    37   ar
    10    37    38    1
    11    37    39   ar
    12    39    40    1
    13     3     4   ar
    14     4     5   ar
    15     5     6   ar
    16     6     7   ar
    17     7    15    1
    18    15    16    2
    19    15    17   am
    20    17    19    1
    21    19    20   ar
    22    20    21   ar
    23    21    22   ar
    24    22    23    1
    25    22    24   ar
    26    24    26    1
    27    26    27    1
    28    26    28    1
    29    26    29    1
    30    24    25   ar
    31     7     8   ar
    32     8     9   ar
    33     9    10   ar
    34     9    11    1
    35    11    12    1
    36    12    13    1
    37    13    14    1
    38    10     2   ar
    39    39    32   ar
    40    10     5   ar
    41    25    19   ar
    42    14     8    1
    43    30    31    1
    44    38    41    1
    45    17    18    1
@<TRIPOS>MOLECULE
*****
 41 45 0 0 0
SMALL
GASTEIGER

@<TRIPOS>ATOM
      1 C         -23.7214   52.9523  -11.5362 C.3     1  UNL1        0.1333
      2 N         -23.4904   52.3396  -10.2272 N.ar    1  UNL1       -0.2950
      3 C         -22.3870   52.4274   -9.4305 C.ar    1  UNL1        0.2019
      4 N         -22.4660   51.6720   -8.3057 N.ar    1  UNL1       -0.2134
      5 C         -23.6877   51.1187   -8.3997 C.ar    1  UNL1        0.1033
      6 C         -24.2959   50.2672   -7.4809 C.ar    1  UNL1        0.0284
      7 C         -25.5990   49.7973   -7.7604 C.ar    1  UNL1        0.0922
      8 C         -26.2625   50.2374   -8.9390 C.ar    1  UNL1        0.1782
      9 C         -25.6229   51.1229   -9.8327 C.ar    1  UNL1        0.1897
     10 C         -24.3144   51.5221   -9.5437 C.ar    1  UNL1        0.1173
     11 O         -26.3196   51.5890  -10.9518 O.3     1  UNL1       -0.4669
     12 C         -27.7331   51.4157  -11.0674 C.3     1  UNL1        0.2527
     13 C         -28.1444   50.0434  -10.5225 C.3     1  UNL1        0.2526
     14 O         -27.5723   49.8357   -9.2294 O.3     1  UNL1       -0.4682
     15 C         -26.2502   48.8739   -6.8080 C.2     1  UNL1        0.2526
     16 O         -26.6674   47.7604   -7.2276 O.2     1  UNL1       -0.2697
     17 N         -26.4119   49.2374   -5.4249 N.am    1  UNL1       -0.2803
     18 H         -26.0204   50.1484   -5.0971 H       1  UNL1        0.1552
     19 C         -27.0122   48.3865   -4.4342 C.ar    1  UNL1        0.0506
     20 C         -28.2555   48.6966   -3.8592 C.ar    1  UNL1        0.0170
     21 C         -28.8032   47.8682   -2.8783 C.ar    1  UNL1        0.0309
     22 C         -28.1142   46.7306   -2.4509 C.ar    1  UNL1        0.1441
     23 F         -28.6670   45.9450   -1.4917 F       1  UNL1       -0.2042
     24 C         -26.8581   46.4134   -2.9995 C.ar    1  UNL1        0.1000
     25 C         -26.3104   47.2578   -3.9843 C.ar    1  UNL1        0.0208
     26 C         -26.1165   45.1908   -2.5138 C.3     1  UNL1        0.4207
     27 F         -26.5034   44.8292   -1.2347 F       1  UNL1       -0.1658
     28 F         -26.3691   44.1312   -3.3660 F       1  UNL1       -0.1658
     29 F         -24.7574   45.4476   -2.5032 F       1  UNL1       -0.1658
     30 N         -21.2407   53.2462   -9.7063 N.pl3   1  UNL1       -0.2814
     31 H         -21.3763   54.2822   -9.7125 H       1  UNL1        0.1551
     32 C         -19.9327   52.7361  -10.0105 C.ar    1  UNL1        0.0894
     33 C         -19.6096   52.4658  -11.3495 C.ar    1  UNL1        0.1543
     34 F         -20.5185   52.6938  -12.3308 F       1  UNL1       -0.2028
     35 C         -18.3425   51.9894  -11.6883 C.ar    1  UNL1        0.0315
     36 C         -17.3902   51.7639  -10.6953 C.ar    1  UNL1        0.0091
     37 C         -17.7023   51.9961   -9.3520 C.ar    1  UNL1        0.0334
     38 S         -16.4487   51.6659   -8.1099 S.3     1  UNL1       -0.1405
     39 C         -18.9804   52.4719   -8.9973 C.ar    1  UNL1        0.0787
     40 CL        -19.3972   52.6643   -7.2919 Cl      1  UNL1       -0.0804
     41 H         -15.9551   52.9819   -8.1830 H       1  UNL1        0.1072
@<TRIPOS>BOND
     1     1     2    1
     2     2     3   ar
     3     3    30    1
     4    30    32    1
     5    32    33   ar
     6    33    34    1
     7    33    35   ar
     8    35    36   ar
     9    36    37   ar
    10    37    38    1
    11    37    39   ar
    12    39    40    1
    13     3     4   ar
    14     4     5   ar
    15     5     6   ar
    16     6     7   ar
    17     7    15    1
    18    15    16    2
    19    15    17   am
    20    17    19    1
    21    19    20   ar
    22    20    21   ar
    23    21    22   ar
    24    22    23    1
    25    22    24   ar
    26    24    26    1
    27    26    27    1
    28    26    28    1
    29    26    29    1
    30    24    25   ar
    31     7     8   ar
    32     8     9   ar
    33     9    10   ar
    34     9    11    1
    35    11    12    1
    36    12    13    1
    37    13    14    1
    38    10     2   ar
    39    39    32   ar
    40    10     5   ar
    41    25    19   ar
    42    14     8    1
    43    30    31    1
    44    38    41    1
    45    17    18    1
@<TRIPOS>MOLECULE
*****
 41 45 0 0 0
SMALL
GASTEIGER

@<TRIPOS>ATOM
      1 C         -25.5112   51.4797  -12.6129 C.3     1  UNL1        0.1333
      2 N         -25.1561   51.4788  -11.1930 N.ar    1  UNL1       -0.2950
      3 C         -23.9190   51.5672  -10.6261 C.ar    1  UNL1        0.2019
      4 N         -23.9309   51.4601   -9.2733 N.ar    1  UNL1       -0.2134
      5 C         -25.2394   51.3315   -8.9928 C.ar    1  UNL1        0.1033
      6 C         -25.8198   51.2153   -7.7323 C.ar    1  UNL1        0.0284
      7 C         -27.2256   51.0990   -7.6478 C.ar    1  UNL1        0.0922
      8 C         -28.0033   51.1470   -8.8377 C.ar    1  UNL1        0.1782
      9 C         -27.3798   51.2933  -10.0954 C.ar    1  UNL1        0.1897
     10 C         -25.9835   51.3528  -10.1374 C.ar    1  UNL1        0.1173
     11 O         -28.1702   51.3999  -11.2439 O.3     1  UNL1       -0.4669
     12 C         -29.5758   51.6400  -11.1541 C.3     1  UNL1        0.2527
     13 C         -30.1720   50.8587   -9.9780 C.3     1  UNL1        0.2526
     14 O         -29.4017   51.0851   -8.7957 O.3     1  UNL1       -0.4682
     15 C         -27.8564   50.9508   -6.3197 C.2     1  UNL1        0.2526
     16 O         -27.3715   51.5812   -5.3412 O.2     1  UNL1       -0.2697
     17 N         -29.0021   50.0984   -6.1406 N.am    1  UNL1       -0.2803
     18 H         -29.4069   49.6208   -6.9765 H       1  UNL1        0.1552
     19 C         -29.6847   49.9206   -4.8883 C.ar    1  UNL1        0.0506
     20 C         -30.8061   50.6955   -4.5493 C.ar    1  UNL1        0.0170
     21 C         -31.4335   50.5223   -3.3146 C.ar    1  UNL1        0.0309
     22 C         -30.9445   49.5863   -2.4001 C.ar    1  UNL1        0.1441
     23 F         -31.5704   49.4418   -1.2042 F       1  UNL1       -0.2042
     24 C         -29.8102   48.8146   -2.7120 C.ar    1  UNL1        0.1000
     25 C         -29.1800   48.9999   -3.9576 C.ar    1  UNL1        0.0208
     26 C         -29.2819   47.8202   -1.7058 C.3     1  UNL1        0.4207
     27 F         -30.2047   46.8249   -1.4332 F       1  UNL1       -0.1658
     28 F         -28.1328   47.2312   -2.2012 F       1  UNL1       -0.1658
     29 F         -28.9812   48.4729   -0.5238 F       1  UNL1       -0.1658
     30 N         -22.6985   51.7768  -11.3522 N.pl3   1  UNL1       -0.2814
     31 H         -22.6532   51.4239  -12.3345 H       1  UNL1        0.1551
     32 C         -21.5267   52.4038  -10.8069 C.ar    1  UNL1        0.0894
     33 C         -20.3635   51.6346  -10.6470 C.ar    1  UNL1        0.1543
     34 F         -20.3535   50.3278  -11.0120 F       1  UNL1       -0.2028
     35 C         -19.1985   52.2121  -10.1406 C.ar    1  UNL1        0.0315
     36 C         -19.1851   53.5574   -9.7749 C.ar    1  UNL1        0.0091
     37 C         -20.3423   54.3334   -9.8959 C.ar    1  UNL1        0.0334
     38 S         -20.2791   56.0541   -9.3874 S.3     1  UNL1       -0.1405
     39 C         -21.5262   53.7597  -10.4008 C.ar    1  UNL1        0.0787
     40 CL        -23.0073   54.7202  -10.4536 Cl      1  UNL1       -0.0804
     41 H         -19.9073   56.4760  -10.6777 H       1  UNL1        0.1072
@<TRIPOS>BOND
     1     1     2    1
     2     2     3   ar
     3     3    30    1
     4    30    32    1
     5    32    33   ar
     6    33    34    1
     7    33    35   ar
     8    35    36   ar
     9    36    37   ar
    10    37    38    1
    11    37    39   ar
    12    39    40    1
    13     3     4   ar
    14     4     5   ar
    15     5     6   ar
    16     6     7   ar
    17     7    15    1
    18    15    16    2
    19    15    17   am
    20    17    19    1
    21    19    20   ar
    22    20    21   ar
    23    21    22   ar
    24    22    23    1
    25    22    24   ar
    26    24    26    1
    27    26    27    1
    28    26    28    1
    29    26    29    1
    30    24    25   ar
    31     7     8   ar
    32     8     9   ar
    33     9    10   ar
    34     9    11    1
    35    11    12    1
    36    12    13    1
    37    13    14    1
    38    10     2   ar
    39    39    32   ar
    40    10     5   ar
    41    25    19   ar
    42    14     8    1
    43    30    31    1
    44    38    41    1
    45    17    18    1
@<TRIPOS>MOLECULE
*****
 41 45 0 0 0
SMALL
GASTEIGER

@<TRIPOS>ATOM
      1 C         -23.6728   52.7995  -11.5460 C.3     1  UNL1        0.1333
      2 N         -23.4885   52.2115  -10.2184 N.ar    1  UNL1       -0.2950
      3 C         -22.3933   52.2691   -9.4078 C.ar    1  UNL1        0.2019
      4 N         -22.5228   51.5482   -8.2653 N.ar    1  UNL1       -0.2134
      5 C         -23.7675   51.0496   -8.3632 C.ar    1  UNL1        0.1033
      6 C         -24.4273   50.2516   -7.4321 C.ar    1  UNL1        0.0284
      7 C         -25.7469   49.8352   -7.7188 C.ar    1  UNL1        0.0922
      8 C         -26.3730   50.2742   -8.9182 C.ar    1  UNL1        0.1782
      9 C         -25.6806   51.1054   -9.8246 C.ar    1  UNL1        0.1897
     10 C         -24.3590   51.4512   -9.5264 C.ar    1  UNL1        0.1173
     11 O         -26.3394   51.5735  -10.9657 O.3     1  UNL1       -0.4669
     12 C         -27.7577   51.4627  -11.0979 C.3     1  UNL1        0.2527
     13 C         -28.2398   50.1257  -10.5241 C.3     1  UNL1        0.2526
     14 O         -27.6959   49.9259   -9.2177 O.3     1  UNL1       -0.4682
     15 C         -26.4534   48.9683   -6.7528 C.2     1  UNL1        0.2526
     16 O         -27.0066   47.9149   -7.1708 O.2     1  UNL1       -0.2697
     17 N         -26.5157   49.3190   -5.3585 N.am    1  UNL1       -0.2803
     18 H         -26.0139   50.1756   -5.0343 H       1  UNL1        0.1552
     19 C         -27.1621   48.5178   -4.3554 C.ar    1  UNL1        0.0506
     20 C         -28.2602   49.0032   -3.6265 C.ar    1  UNL1        0.0170
     21 C         -28.8521   48.2153   -2.6379 C.ar    1  UNL1        0.0309
     22 C         -28.3499   46.9426   -2.3559 C.ar    1  UNL1        0.1441
     23 F         -28.9408   46.1993   -1.3858 F       1  UNL1       -0.2042
     24 C         -27.2378   46.4460   -3.0604 C.ar    1  UNL1        0.1000
     25 C         -26.6434   47.2498   -4.0521 C.ar    1  UNL1        0.0208
     26 C         -26.6945   45.0760   -2.7314 C.3     1  UNL1        0.4207
     27 F         -25.5578   44.7837   -3.4657 F       1  UNL1       -0.1658
     28 F         -26.3765   45.0182   -1.3866 F       1  UNL1       -0.1658
     29 F         -27.6531   44.1185   -3.0102 F       1  UNL1       -0.1658
     30 N         -21.2064   53.0266   -9.6874 N.pl3   1  UNL1       -0.2814
     31 H         -21.3081   53.8876  -10.2705 H       1  UNL1        0.1551
     32 C         -19.8877   52.6598   -9.2517 C.ar    1  UNL1        0.0894
     33 C         -19.5903   52.7180   -7.8811 C.ar    1  UNL1        0.1543
     34 F         -20.5395   53.1056   -6.9923 F       1  UNL1       -0.2028
     35 C         -18.3274   52.3496   -7.4157 C.ar    1  UNL1        0.0315
     36 C         -17.3442   51.9337   -8.3124 C.ar    1  UNL1        0.0091
     37 C         -17.6095   51.8993   -9.6850 C.ar    1  UNL1        0.0334
     38 S         -16.3012   51.3802  -10.7996 S.3     1  UNL1       -0.1405
     39 C         -18.8794   52.2743  -10.1672 C.ar    1  UNL1        0.0787
     40 CL        -19.1713   52.3249  -11.9083 Cl      1  UNL1       -0.0804
     41 H         -16.7024   50.0331  -10.7270 H       1  UNL1        0.1072
@<TRIPOS>BOND
     1     1     2    1
     2     2     3   ar
     3     3    30    1
     4    30    32    1
     5    32    33   ar
     6    33    34    1
     7    33    35   ar
     8    35    36   ar
     9    36    37   ar
    10    37    38    1
    11    37    39   ar
    12    39    40    1
    13     3     4   ar
    14     4     5   ar
    15     5     6   ar
    16     6     7   ar
    17     7    15    1
    18    15    16    2
    19    15    17   am
    20    17    19    1
    21    19    20   ar
    22    20    21   ar
    23    21    22   ar
    24    22    23    1
    25    22    24   ar
    26    24    26    1
    27    26    27    1
    28    26    28    1
    29    26    29    1
    30    24    25   ar
    31     7     8   ar
    32     8     9   ar
    33     9    10   ar
    34     9    11    1
    35    11    12    1
    36    12    13    1
    37    13    14    1
    38    10     2   ar
    39    39    32   ar
    40    10     5   ar
    41    25    19   ar
    42    14     8    1
    43    30    31    1
    44    38    41    1
    45    17    18    1
@<TRIPOS>MOLECULE
*****
 41 45 0 0 0
SMALL
GASTEIGER

@<TRIPOS>ATOM
      1 C         -31.3854   50.0594   -8.6320 C.3     1  UNL1        0.1333
      2 N         -30.1272   50.3875   -7.9599 N.ar    1  UNL1       -0.2950
      3 C         -29.8476   50.3730   -6.6252 C.ar    1  UNL1        0.2019
      4 N         -28.5972   50.8075   -6.3260 N.ar    1  UNL1       -0.2134
      5 C         -28.0727   51.0715   -7.5353 C.ar    1  UNL1        0.1033
      6 C         -26.7845   51.5232   -7.8106 C.ar    1  UNL1        0.0284
      7 C         -26.4197   51.7329   -9.1596 C.ar    1  UNL1        0.0922
      8 C         -27.3549   51.4382  -10.1901 C.ar    1  UNL1        0.1782
      9 C         -28.6425   50.9558   -9.8721 C.ar    1  UNL1        0.1897
     10 C         -28.9793   50.8120   -8.5227 C.ar    1  UNL1        0.1173
     11 O         -29.5212   50.6152  -10.9050 O.3     1  UNL1       -0.4669
     12 C         -29.0624   50.4811  -12.2515 C.3     1  UNL1        0.2527
     13 C         -28.0164   51.5569  -12.5638 C.3     1  UNL1        0.2526
     14 O         -27.0182   51.5844  -11.5415 O.3     1  UNL1       -0.4682
     15 C         -25.0646   52.2347   -9.4686 C.2     1  UNL1        0.2526
     16 O         -24.9083   53.4646   -9.6992 O.2     1  UNL1       -0.2697
     17 N         -23.9400   51.3376   -9.5114 N.am    1  UNL1       -0.2803
     18 H         -24.0924   50.3316   -9.2762 H       1  UNL1        0.1552
     19 C         -22.5903   51.7517   -9.7808 C.ar    1  UNL1        0.0506
     20 C         -22.0601   51.7183  -11.0810 C.ar    1  UNL1        0.0170
     21 C         -20.7370   52.0990  -11.3112 C.ar    1  UNL1        0.0309
     22 C         -19.9249   52.5042  -10.2492 C.ar    1  UNL1        0.1441
     23 F         -18.6402   52.8641  -10.5001 F       1  UNL1       -0.2042
     24 C         -20.4306   52.5250   -8.9365 C.ar    1  UNL1        0.1000
     25 C         -21.7647   52.1339   -8.7126 C.ar    1  UNL1        0.0208
     26 C         -19.5351   52.9473   -7.7962 C.3     1  UNL1        0.4207
     27 F         -18.6865   51.9263   -7.4036 F       1  UNL1       -0.1658
     28 F         -18.7689   54.0294   -8.1897 F       1  UNL1       -0.1658
     29 F         -20.3098   53.3136   -6.7104 F       1  UNL1       -0.1658
     30 N         -30.7521   49.9265   -5.6038 N.pl3   1  UNL1       -0.2814
     31 H         -31.7202   50.3193   -5.6093 H       1  UNL1        0.1551
     32 C         -30.4039   49.0076   -4.5560 C.ar    1  UNL1        0.0894
     33 C         -30.4625   49.4496   -3.2250 C.ar    1  UNL1        0.1543
     34 F         -30.8505   50.7190   -2.9435 F       1  UNL1       -0.2028
     35 C         -30.1525   48.5812   -2.1777 C.ar    1  UNL1        0.0315
     36 C         -29.7669   47.2686   -2.4467 C.ar    1  UNL1        0.0091
     37 C         -29.6709   46.8176   -3.7669 C.ar    1  UNL1        0.0334
     38 S         -29.1457   45.1259   -4.0601 S.3     1  UNL1       -0.1405
     39 C         -29.9762   47.6870   -4.8330 C.ar    1  UNL1        0.0787
     40 CL        -29.7535   47.1388   -6.4969 Cl      1  UNL1       -0.0804
     41 H         -30.4717   44.6547   -4.0359 H       1  UNL1        0.1072
@<TRIPOS>BOND
     1     1     2    1
     2     2     3   ar
     3     3    30    1
     4    30    32    1
     5    32    33   ar
     6    33    34    1
     7    33    35   ar
     8    35    36   ar
     9    36    37   ar
    10    37    38    1
    11    37    39   ar
    12    39    40    1
    13     3     4   ar
    14     4     5   ar
    15     5     6   ar
    16     6     7   ar
    17     7    15    1
    18    15    16    2
    19    15    17   am
    20    17    19    1
    21    19    20   ar
    22    20    21   ar
    23    21    22   ar
    24    22    23    1
    25    22    24   ar
    26    24    26    1
    27    26    27    1
    28    26    28    1
    29    26    29    1
    30    24    25   ar
    31     7     8   ar
    32     8     9   ar
    33     9    10   ar
    34     9    11    1
    35    11    12    1
    36    12    13    1
    37    13    14    1
    38    10     2   ar
    39    39    32   ar
    40    10     5   ar
    41    25    19   ar
    42    14     8    1
    43    30    31    1
    44    38    41    1
    45    17    18    1
@<TRIPOS>MOLECULE
*****
 41 45 0 0 0
SMALL
GASTEIGER

@<TRIPOS>ATOM
      1 C         -23.6844   52.7108  -11.6428 C.3     1  UNL1        0.1333
      2 N         -23.4685   52.2186  -10.2814 N.ar    1  UNL1       -0.2950
      3 C         -22.3821   52.3948   -9.4761 C.ar    1  UNL1        0.2019
      4 N         -22.4704   51.7390   -8.2912 N.ar    1  UNL1       -0.2134
      5 C         -23.6811   51.1583   -8.3578 C.ar    1  UNL1        0.1033
      6 C         -24.2931   50.3796   -7.3789 C.ar    1  UNL1        0.0284
      7 C         -25.5829   49.8643   -7.6391 C.ar    1  UNL1        0.0922
      8 C         -26.2309   50.1883   -8.8632 C.ar    1  UNL1        0.1782
      9 C         -25.5885   51.0037   -9.8195 C.ar    1  UNL1        0.1897
     10 C         -24.2923   51.4495   -9.5435 C.ar    1  UNL1        0.1173
     11 O         -26.2712   51.3582  -10.9871 O.3     1  UNL1       -0.4669
     12 C         -27.6793   51.1508  -11.1119 C.3     1  UNL1        0.2527
     13 C         -28.0789   49.8242  -10.4564 C.3     1  UNL1        0.2526
     14 O         -27.5283   49.7400   -9.1403 O.3     1  UNL1       -0.4682
     15 C         -26.2373   49.0162   -6.6212 C.2     1  UNL1        0.2526
     16 O         -26.4810   47.8103   -6.8981 O.2     1  UNL1       -0.2697
     17 N         -26.5967   49.5546   -5.3358 N.am    1  UNL1       -0.2803
     18 H         -26.3460   50.5451   -5.1196 H       1  UNL1        0.1552
     19 C         -27.2131   48.7894   -4.2868 C.ar    1  UNL1        0.0506
     20 C         -26.5498   47.7090   -3.6821 C.ar    1  UNL1        0.0170
     21 C         -27.1820   46.9644   -2.6851 C.ar    1  UNL1        0.0309
     22 C         -28.4841   47.2788   -2.2887 C.ar    1  UNL1        0.1441
     23 F         -29.0776   46.5351   -1.3204 F       1  UNL1       -0.2042
     24 C         -29.1735   48.3442   -2.8962 C.ar    1  UNL1        0.1000
     25 C         -28.5303   49.0864   -3.9053 C.ar    1  UNL1        0.0208
     26 C         -30.5875   48.6602   -2.4705 C.3     1  UNL1        0.4207
     27 F         -30.6830   48.8463   -1.1020 F       1  UNL1       -0.1658
     28 F         -31.0106   49.8155   -3.1022 F       1  UNL1       -0.1658
     29 F         -31.4229   47.6177   -2.8292 F       1  UNL1       -0.1658
     30 N         -21.2439   53.2064   -9.8023 N.pl3   1  UNL1       -0.2814
     31 H         -21.3957   54.2354   -9.9009 H       1  UNL1        0.1551
     32 C         -19.9226   52.6947  -10.0384 C.ar    1  UNL1        0.0894
     33 C         -19.5515   52.3675  -11.3520 C.ar    1  UNL1        0.1543
     34 F         -20.4277   52.5433  -12.3731 F       1  UNL1       -0.2028
     35 C         -18.2701   51.8875  -11.6256 C.ar    1  UNL1        0.0315
     36 C         -17.3510   51.7150  -10.5915 C.ar    1  UNL1        0.0091
     37 C         -17.7109   52.0045   -9.2715 C.ar    1  UNL1        0.0334
     38 S         -16.4985   51.7413   -7.9737 S.3     1  UNL1       -0.1405
     39 C         -19.0038   52.4845   -8.9824 C.ar    1  UNL1        0.0787
     40 CL        -19.4806   52.7495   -7.3027 Cl      1  UNL1       -0.0804
     41 H         -16.0122   53.0570   -8.0892 H       1  UNL1        0.1072
@<TRIPOS>BOND
     1     1     2    1
     2     2     3   ar
     3     3    30    1
     4    30    32    1
     5    32    33   ar
     6    33    34    1
     7    33    35   ar
     8    35    36   ar
     9    36    37   ar
    10    37    38    1
    11    37    39   ar
    12    39    40    1
    13     3     4   ar
    14     4     5   ar
    15     5     6   ar
    16     6     7   ar
    17     7    15    1
    18    15    16    2
    19    15    17   am
    20    17    19    1
    21    19    20   ar
    22    20    21   ar
    23    21    22   ar
    24    22    23    1
    25    22    24   ar
    26    24    26    1
    27    26    27    1
    28    26    28    1
    29    26    29    1
    30    24    25   ar
    31     7     8   ar
    32     8     9   ar
    33     9    10   ar
    34     9    11    1
    35    11    12    1
    36    12    13    1
    37    13    14    1
    38    10     2   ar
    39    39    32   ar
    40    10     5   ar
    41    25    19   ar
    42    14     8    1
    43    30    31    1
    44    38    41    1
    45    17    18    1
@<TRIPOS>MOLECULE
*****
 41 45 0 0 0
SMALL
GASTEIGER

@<TRIPOS>ATOM
      1 C         -25.5608   51.4663  -12.3470 C.3     1  UNL1        0.1333
      2 N         -25.0897   51.3439  -10.9666 N.ar    1  UNL1       -0.2950
      3 C         -23.8398   51.5728  -10.4716 C.ar    1  UNL1        0.2019
      4 N         -23.7176   51.2914   -9.1496 N.ar    1  UNL1       -0.2134
      5 C         -24.9582   50.9014   -8.8088 C.ar    1  UNL1        0.1033
      6 C         -25.4011   50.5239   -7.5437 C.ar    1  UNL1        0.0284
      7 C         -26.7562   50.1542   -7.3886 C.ar    1  UNL1        0.0922
      8 C         -27.6306   50.2191   -8.5085 C.ar    1  UNL1        0.1782
      9 C         -27.1500   50.6331   -9.7693 C.ar    1  UNL1        0.1897
     10 C         -25.7913   50.9403   -9.8899 C.ar    1  UNL1        0.1173
     11 O         -28.0429   50.7478  -10.8392 O.3     1  UNL1       -0.4669
     12 C         -29.4559   50.7253  -10.6283 C.3     1  UNL1        0.2527
     13 C         -29.8124   49.7067   -9.5399 C.3     1  UNL1        0.2526
     14 O         -28.9910   49.9093   -8.3881 O.3     1  UNL1       -0.4682
     15 C         -27.2376   49.7279   -6.0580 C.2     1  UNL1        0.2526
     16 O         -26.5957   50.0876   -5.0340 O.2     1  UNL1       -0.2697
     17 N         -28.4160   48.9118   -5.9290 N.am    1  UNL1       -0.2803
     18 H         -28.9502   48.6632   -6.7912 H       1  UNL1        0.1552
     19 C         -28.9597   48.4769   -4.6715 C.ar    1  UNL1        0.0506
     20 C         -29.7390   49.3327   -3.8758 C.ar    1  UNL1        0.0170
     21 C         -30.2314   48.8947   -2.6454 C.ar    1  UNL1        0.0309
     22 C         -29.9431   47.6064   -2.1886 C.ar    1  UNL1        0.1441
     23 F         -30.4301   47.2075   -0.9859 F       1  UNL1       -0.2042
     24 C         -29.1472   46.7407   -2.9611 C.ar    1  UNL1        0.1000
     25 C         -28.6498   47.1928   -4.1985 C.ar    1  UNL1        0.0208
     26 C         -28.8284   45.3576   -2.4456 C.3     1  UNL1        0.4207
     27 F         -29.9759   44.6231   -2.2003 F       1  UNL1       -0.1658
     28 F         -28.0656   44.6827   -3.3812 F       1  UNL1       -0.1658
     29 F         -28.1125   45.4568   -1.2661 F       1  UNL1       -0.1658
     30 N         -22.7373   52.0841  -11.2357 N.pl3   1  UNL1       -0.2814
     31 H         -22.7485   51.9239  -12.2681 H       1  UNL1        0.1551
     32 C         -21.6055   52.7658  -10.6719 C.ar    1  UNL1        0.0894
     33 C         -21.7153   54.1371  -10.3929 C.ar    1  UNL1        0.1543
     34 F         -22.8748   54.7948  -10.6457 F       1  UNL1       -0.2028
     35 C         -20.6455   54.8306   -9.8254 C.ar    1  UNL1        0.0315
     36 C         -19.4514   54.1682   -9.5440 C.ar    1  UNL1        0.0091
     37 C         -19.3102   52.8096   -9.8440 C.ar    1  UNL1        0.0334
     38 S         -17.7434   52.0096   -9.4851 S.3     1  UNL1       -0.1405
     39 C         -20.3816   52.1001  -10.4222 C.ar    1  UNL1        0.0787
     40 CL        -20.1583   50.4120  -10.8905 Cl      1  UNL1       -0.0804
     41 H         -18.1675   51.6413   -8.1945 H       1  UNL1        0.1072
@<TRIPOS>BOND
     1     1     2    1
     2     2     3   ar
     3     3    30    1
     4    30    32    1
     5    32    33   ar
     6    33    34    1
     7    33    35   ar
     8    35    36   ar
     9    36    37   ar
    10    37    38    1
    11    37    39   ar
    12    39    40    1
    13     3     4   ar
    14     4     5   ar
    15     5     6   ar
    16     6     7   ar
    17     7    15    1
    18    15    16    2
    19    15    17   am
    20    17    19    1
    21    19    20   ar
    22    20    21   ar
    23    21    22   ar
    24    22    23    1
    25    22    24   ar
    26    24    26    1
    27    26    27    1
    28    26    28    1
    29    26    29    1
    30    24    25   ar
    31     7     8   ar
    32     8     9   ar
    33     9    10   ar
    34     9    11    1
    35    11    12    1
    36    12    13    1
    37    13    14    1
    38    10     2   ar
    39    39    32   ar
    40    10     5   ar
    41    25    19   ar
    42    14     8    1
    43    30    31    1
    44    38    41    1
    45    17    18    1
