@<TRIPOS>MOLECULE
*****
 26 28 0 0 0
SMALL
GASTEIGER

@<TRIPOS>ATOM
      1 C         -25.9610   -9.1404   -9.6786 C.ar    1  UNL1        0.3134
      2 N         -25.6369   -8.9669  -10.9722 N.ar    1  UNL1       -0.1854
      3 C         -26.5477   -8.0536  -11.3606 C.ar    1  UNL1        0.2051
      4 N         -27.3668   -7.6818  -10.3591 N.ar    1  UNL1       -0.0582
      5 O         -26.9757   -8.3818   -9.3379 O.2     1  UNL1       -0.3279
      6 O         -25.8973  -11.0887   -8.3737 O.2     1  UNL1       -0.2649
      7 C         -25.2788  -10.0544   -8.7408 C.2     1  UNL1        0.3025
      8 N         -23.9556   -9.8262   -8.2193 N.am    1  UNL1       -0.2930
      9 H         -23.5800  -10.5323   -7.5460 H       1  UNL1        0.1502
     10 C         -23.0993   -8.6766   -8.5175 C.3     1  UNL1        0.1168
     11 C         -21.8859   -9.0845   -9.3147 C.ar    1  UNL1        0.0005
     12 C         -21.9773  -10.0727  -10.3078 C.ar    1  UNL1        0.0181
     13 C         -20.8303  -10.4537  -11.0086 C.ar    1  UNL1        0.0986
     14 N         -19.6313   -9.8836  -10.7169 N.ar    1  UNL1       -0.2423
     15 C         -19.5086   -8.9414   -9.7449 C.ar    1  UNL1        0.0986
     16 C         -20.6297   -8.5335   -9.0189 C.ar    1  UNL1        0.0181
     17 C         -26.5806   -7.4559  -12.7282 C.3     1  UNL1        0.2245
     18 S         -25.8167   -5.8447  -12.7122 S.O2    1  UNL1        0.0162
     19 O         -25.9470   -5.2158  -14.0709 O.2     1  UNL1       -0.1682
     20 O         -26.5128   -4.9678  -11.7088 O.2     1  UNL1       -0.1682
     21 C         -24.1111   -5.9958  -12.2972 C.ar    1  UNL1        0.1062
     22 C         -23.3464   -7.0542  -12.8103 C.ar    1  UNL1        0.0184
     23 C         -21.9849   -7.1488  -12.5058 C.ar    1  UNL1        0.0013
     24 C         -21.3804   -6.1848  -11.6938 C.ar    1  UNL1        0.0001
     25 C         -22.1369   -5.1250  -11.1857 C.ar    1  UNL1        0.0013
     26 C         -23.4992   -5.0292  -11.4868 C.ar    1  UNL1        0.0184
@<TRIPOS>BOND
     1     6     7    2
     2     7     8   am
     3     8    10    1
     4    10    11    1
     5    11    12   ar
     6    12    13   ar
     7    13    14   ar
     8    14    15   ar
     9    15    16   ar
    10     7     1    1
    11     1     2   ar
    12     2     3   ar
    13     3    17    1
    14    17    18    1
    15    18    19    2
    16    18    20    2
    17    18    21    1
    18    21    22   ar
    19    22    23   ar
    20    23    24   ar
    21    24    25   ar
    22    25    26   ar
    23     3     4   ar
    24     4     5   ar
    25    16    11   ar
    26     5     1   ar
    27    26    21   ar
    28     8     9    1
@<TRIPOS>MOLECULE
*****
 26 28 0 0 0
SMALL
GASTEIGER

@<TRIPOS>ATOM
      1 C         -21.6283   -8.3858  -14.3006 C.ar    1  UNL1        0.3134
      2 N         -22.7175   -9.0067  -14.7874 N.ar    1  UNL1       -0.1854
      3 C         -22.4517   -9.0264  -16.1079 C.ar    1  UNL1        0.2051
      4 N         -21.2647   -8.4653  -16.4049 N.ar    1  UNL1       -0.0582
      5 O         -20.7902   -8.0754  -15.2610 O.2     1  UNL1       -0.3279
      6 O         -20.7166   -7.0494  -12.6020 O.2     1  UNL1       -0.2649
      7 C         -21.3803   -8.0844  -12.8765 C.2     1  UNL1        0.3025
      8 N         -21.8458   -8.9079  -11.7903 N.am    1  UNL1       -0.2930
      9 H         -21.5941   -8.6065  -10.8214 H       1  UNL1        0.1502
     10 C         -22.6107  -10.1499  -11.9181 C.3     1  UNL1        0.1168
     11 C         -21.7097  -11.3265  -12.1979 C.ar    1  UNL1        0.0005
     12 C         -21.8428  -12.0679  -13.3827 C.ar    1  UNL1        0.0181
     13 C         -21.0161  -13.1728  -13.6008 C.ar    1  UNL1        0.0986
     14 N         -20.1020  -13.5370  -12.6630 N.ar    1  UNL1       -0.2423
     15 C         -19.9668  -12.8521  -11.4968 C.ar    1  UNL1        0.0986
     16 C         -20.7749  -11.7430  -11.2378 C.ar    1  UNL1        0.0181
     17 C         -23.3379   -9.6819  -17.1148 C.3     1  UNL1        0.2245
     18 S         -22.9482  -11.4177  -17.2373 S.O2    1  UNL1        0.0162
     19 O         -23.1365  -11.8735  -18.6570 O.2     1  UNL1       -0.1682
     20 O         -21.5130  -11.6397  -16.8484 O.2     1  UNL1       -0.1682
     21 C         -24.0081  -12.3446  -16.1783 C.ar    1  UNL1        0.1062
     22 C         -23.8768  -13.7383  -16.0853 C.ar    1  UNL1        0.0184
     23 C         -24.6972  -14.4645  -15.2164 C.ar    1  UNL1        0.0013
     24 C         -25.6469  -13.8023  -14.4330 C.ar    1  UNL1        0.0001
     25 C         -25.7769  -12.4132  -14.5176 C.ar    1  UNL1        0.0013
     26 C         -24.9591  -11.6848  -15.3874 C.ar    1  UNL1        0.0184
@<TRIPOS>BOND
     1     6     7    2
     2     7     8   am
     3     8    10    1
     4    10    11    1
     5    11    12   ar
     6    12    13   ar
     7    13    14   ar
     8    14    15   ar
     9    15    16   ar
    10     7     1    1
    11     1     2   ar
    12     2     3   ar
    13     3    17    1
    14    17    18    1
    15    18    19    2
    16    18    20    2
    17    18    21    1
    18    21    22   ar
    19    22    23   ar
    20    23    24   ar
    21    24    25   ar
    22    25    26   ar
    23     3     4   ar
    24     4     5   ar
    25    16    11   ar
    26     5     1   ar
    27    26    21   ar
    28     8     9    1
@<TRIPOS>MOLECULE
*****
 26 28 0 0 0
SMALL
GASTEIGER

@<TRIPOS>ATOM
      1 C         -24.5443  -10.9319  -12.9450 C.ar    1  UNL1        0.3134
      2 N         -24.5300  -12.2750  -12.8774 N.ar    1  UNL1       -0.1854
      3 C         -25.3963  -12.6057  -13.8545 C.ar    1  UNL1        0.2051
      4 N         -25.8956  -11.5287  -14.4893 N.ar    1  UNL1       -0.0582
      5 O         -25.3494  -10.5132  -13.8925 O.2     1  UNL1       -0.3279
      6 O         -23.2840  -10.4933  -11.0159 O.2     1  UNL1       -0.2649
      7 C         -23.7632  -10.0235  -12.0820 C.2     1  UNL1        0.3025
      8 N         -23.5269   -8.6354  -12.3860 N.am    1  UNL1       -0.2930
      9 H         -22.9750   -8.0823  -11.6914 H       1  UNL1        0.1502
     10 C         -24.0184   -7.9162  -13.5628 C.3     1  UNL1        0.1168
     11 C         -22.9913   -7.8974  -14.6669 C.ar    1  UNL1        0.0005
     12 C         -21.6423   -8.1786  -14.3983 C.ar    1  UNL1        0.0181
     13 C         -20.7070   -8.1223  -15.4346 C.ar    1  UNL1        0.0986
     14 N         -21.0992   -7.7795  -16.6902 N.ar    1  UNL1       -0.2423
     15 C         -22.3941   -7.4795  -16.9746 C.ar    1  UNL1        0.0986
     16 C         -23.3605   -7.5214  -15.9674 C.ar    1  UNL1        0.0181
     17 C         -25.6947  -14.0152  -14.2459 C.3     1  UNL1        0.2245
     18 S         -24.4724  -14.6022  -15.4040 S.O2    1  UNL1        0.0162
     19 O         -23.5939  -15.6193  -14.7315 O.2     1  UNL1       -0.1682
     20 O         -25.1584  -15.2571  -16.5706 O.2     1  UNL1       -0.1682
     21 C         -23.4856  -13.2551  -15.9660 C.ar    1  UNL1        0.1062
     22 C         -23.8992  -12.4796  -17.0596 C.ar    1  UNL1        0.0184
     23 C         -23.1295  -11.3900  -17.4787 C.ar    1  UNL1        0.0013
     24 C         -21.9482  -11.0666  -16.8047 C.ar    1  UNL1        0.0001
     25 C         -21.5357  -11.8326  -15.7107 C.ar    1  UNL1        0.0013
     26 C         -22.3024  -12.9241  -15.2908 C.ar    1  UNL1        0.0184
@<TRIPOS>BOND
     1     6     7    2
     2     7     8   am
     3     8    10    1
     4    10    11    1
     5    11    12   ar
     6    12    13   ar
     7    13    14   ar
     8    14    15   ar
     9    15    16   ar
    10     7     1    1
    11     1     2   ar
    12     2     3   ar
    13     3    17    1
    14    17    18    1
    15    18    19    2
    16    18    20    2
    17    18    21    1
    18    21    22   ar
    19    22    23   ar
    20    23    24   ar
    21    24    25   ar
    22    25    26   ar
    23     3     4   ar
    24     4     5   ar
    25    16    11   ar
    26     5     1   ar
    27    26    21   ar
    28     8     9    1
@<TRIPOS>MOLECULE
*****
 26 28 0 0 0
SMALL
GASTEIGER

@<TRIPOS>ATOM
      1 C         -21.6739  -10.6535  -11.9227 C.ar    1  UNL1        0.3134
      2 N         -21.4134  -11.3485  -13.0442 N.ar    1  UNL1       -0.1854
      3 C         -22.6353  -11.8170  -13.3637 C.ar    1  UNL1        0.2051
      4 N         -23.5850  -11.4176  -12.4973 N.ar    1  UNL1       -0.0582
      5 O         -22.9487  -10.7061  -11.6173 O.2     1  UNL1       -0.3279
      6 O         -20.2173  -10.4763  -10.0925 O.2     1  UNL1       -0.2649
      7 C         -20.6764   -9.9151  -11.1227 C.2     1  UNL1        0.3025
      8 N         -20.2076   -8.5926  -11.4489 N.am    1  UNL1       -0.2930
      9 H         -19.5133   -8.1589  -10.7987 H       1  UNL1        0.1502
     10 C         -20.6401   -7.7831  -12.5897 C.3     1  UNL1        0.1168
     11 C         -21.8033   -6.8946  -12.2265 C.ar    1  UNL1        0.0005
     12 C         -23.1131   -7.2376  -12.5981 C.ar    1  UNL1        0.0181
     13 C         -24.1677   -6.3797  -12.2765 C.ar    1  UNL1        0.0986
     14 N         -23.9234   -5.2124  -11.6243 N.ar    1  UNL1       -0.2423
     15 C         -22.6633   -4.8434  -11.2728 C.ar    1  UNL1        0.0986
     16 C         -21.5803   -5.6708  -11.5773 C.ar    1  UNL1        0.0181
     17 C         -22.9137  -12.6140  -14.5950 C.3     1  UNL1        0.2245
     18 S         -23.6429  -11.5744  -15.8469 S.O2    1  UNL1        0.0162
     19 O         -23.7372  -12.3376  -17.1382 O.2     1  UNL1       -0.1682
     20 O         -25.0289  -11.1741  -15.4238 O.2     1  UNL1       -0.1682
     21 C         -22.6493  -10.1391  -16.0854 C.ar    1  UNL1        0.1062
     22 C         -23.2205   -8.8598  -16.0122 C.ar    1  UNL1        0.0184
     23 C         -22.4203   -7.7236  -16.1671 C.ar    1  UNL1        0.0013
     24 C         -21.0469   -7.8596  -16.3893 C.ar    1  UNL1        0.0001
     25 C         -20.4724   -9.1320  -16.4566 C.ar    1  UNL1        0.0013
     26 C         -21.2707  -10.2700  -16.3042 C.ar    1  UNL1        0.0184
@<TRIPOS>BOND
     1     6     7    2
     2     7     8   am
     3     8    10    1
     4    10    11    1
     5    11    12   ar
     6    12    13   ar
     7    13    14   ar
     8    14    15   ar
     9    15    16   ar
    10     7     1    1
    11     1     2   ar
    12     2     3   ar
    13     3    17    1
    14    17    18    1
    15    18    19    2
    16    18    20    2
    17    18    21    1
    18    21    22   ar
    19    22    23   ar
    20    23    24   ar
    21    24    25   ar
    22    25    26   ar
    23     3     4   ar
    24     4     5   ar
    25    16    11   ar
    26     5     1   ar
    27    26    21   ar
    28     8     9    1
@<TRIPOS>MOLECULE
*****
 26 28 0 0 0
SMALL
GASTEIGER

@<TRIPOS>ATOM
      1 C         -22.3708   -8.9371  -16.4668 C.ar    1  UNL1        0.3134
      2 N         -22.7336   -8.8530  -15.1745 N.ar    1  UNL1       -0.1854
      3 C         -21.6143   -8.3607  -14.6094 C.ar    1  UNL1        0.2051
      4 N         -20.6346   -8.1432  -15.5066 N.ar    1  UNL1       -0.0582
      5 O         -21.1397   -8.5189  -16.6421 O.2     1  UNL1       -0.3279
      6 O         -23.7794   -8.5716  -18.3065 O.2     1  UNL1       -0.2649
      7 C         -23.2267   -9.4275  -17.5656 C.2     1  UNL1        0.3025
      8 N         -23.4696  -10.8223  -17.8307 N.am    1  UNL1       -0.2930
      9 H         -24.1094  -11.0525  -18.6248 H       1  UNL1        0.1502
     10 C         -22.9307  -11.9501  -17.0681 C.3     1  UNL1        0.1168
     11 C         -23.9602  -12.5212  -16.1256 C.ar    1  UNL1        0.0005
     12 C         -24.1013  -13.9094  -15.9709 C.ar    1  UNL1        0.0181
     13 C         -25.0851  -14.4111  -15.1152 C.ar    1  UNL1        0.0986
     14 N         -25.9114  -13.5597  -14.4518 N.ar    1  UNL1       -0.2423
     15 C         -25.8133  -12.2121  -14.6000 C.ar    1  UNL1        0.0986
     16 C         -24.8451  -11.6691  -15.4473 C.ar    1  UNL1        0.0181
     17 C         -21.5102   -8.0108  -13.1618 C.3     1  UNL1        0.2245
     18 S         -22.3794   -9.2155  -12.1753 S.O2    1  UNL1        0.0162
     19 O         -22.3979   -8.7678  -10.7408 O.2     1  UNL1       -0.1682
     20 O         -23.7979   -9.3332  -12.6596 O.2     1  UNL1       -0.1682
     21 C         -21.5731  -10.7776  -12.2918 C.ar    1  UNL1        0.1062
     22 C         -20.7479  -11.2302  -11.2513 C.ar    1  UNL1        0.0184
     23 C         -20.1390  -12.4863  -11.3338 C.ar    1  UNL1        0.0013
     24 C         -20.3561  -13.2975  -12.4514 C.ar    1  UNL1        0.0001
     25 C         -21.1825  -12.8534  -13.4875 C.ar    1  UNL1        0.0013
     26 C         -21.7910  -11.5967  -13.4085 C.ar    1  UNL1        0.0184
@<TRIPOS>BOND
     1     6     7    2
     2     7     8   am
     3     8    10    1
     4    10    11    1
     5    11    12   ar
     6    12    13   ar
     7    13    14   ar
     8    14    15   ar
     9    15    16   ar
    10     7     1    1
    11     1     2   ar
    12     2     3   ar
    13     3    17    1
    14    17    18    1
    15    18    19    2
    16    18    20    2
    17    18    21    1
    18    21    22   ar
    19    22    23   ar
    20    23    24   ar
    21    24    25   ar
    22    25    26   ar
    23     3     4   ar
    24     4     5   ar
    25    16    11   ar
    26     5     1   ar
    27    26    21   ar
    28     8     9    1
@<TRIPOS>MOLECULE
*****
 26 28 0 0 0
SMALL
GASTEIGER

@<TRIPOS>ATOM
      1 C         -22.2917   -7.5523  -13.5291 C.ar    1  UNL1        0.3134
      2 N         -22.7721   -6.9928  -12.4043 N.ar    1  UNL1       -0.1854
      3 C         -21.6386   -6.7329  -11.7245 C.ar    1  UNL1        0.2051
      4 N         -20.5340   -7.0977  -12.4019 N.ar    1  UNL1       -0.0582
      5 O         -20.9811   -7.6065  -13.5096 O.2     1  UNL1       -0.3279
      6 O         -22.9415   -7.5073  -15.7826 O.2     1  UNL1       -0.2649
      7 C         -23.1088   -8.0453  -14.6558 C.2     1  UNL1        0.3025
      8 N         -24.0868   -9.0961  -14.5369 N.am    1  UNL1       -0.2930
      9 H         -24.6211   -9.3502  -15.3988 H       1  UNL1        0.1502
     10 C         -24.4284   -9.8194  -13.3105 C.3     1  UNL1        0.1168
     11 C         -25.4974   -9.1013  -12.5258 C.ar    1  UNL1        0.0005
     12 C         -26.5778   -8.4868  -13.1788 C.ar    1  UNL1        0.0181
     13 C         -27.5364   -7.8008  -12.4290 C.ar    1  UNL1        0.0986
     14 N         -27.4125   -7.7142  -11.0781 N.ar    1  UNL1       -0.2423
     15 C         -26.3651   -8.2792  -10.4215 C.ar    1  UNL1        0.0986
     16 C         -25.3835   -8.9721  -11.1332 C.ar    1  UNL1        0.0181
     17 C         -21.6134   -6.0332  -10.4059 C.3     1  UNL1        0.2245
     18 S         -21.5047   -7.2231   -9.0820 S.O2    1  UNL1        0.0162
     19 O         -20.4896   -6.7598   -8.0753 O.2     1  UNL1       -0.1682
     20 O         -22.8392   -7.3393   -8.3994 O.2     1  UNL1       -0.1682
     21 C         -21.0201   -8.7902   -9.7249 C.ar    1  UNL1        0.1062
     22 C         -21.9739   -9.6548  -10.2825 C.ar    1  UNL1        0.0184
     23 C         -21.5780  -10.8822  -10.8232 C.ar    1  UNL1        0.0013
     24 C         -20.2289  -11.2483  -10.8152 C.ar    1  UNL1        0.0001
     25 C         -19.2744  -10.3872  -10.2665 C.ar    1  UNL1        0.0013
     26 C         -19.6678   -9.1601   -9.7231 C.ar    1  UNL1        0.0184
@<TRIPOS>BOND
     1     6     7    2
     2     7     8   am
     3     8    10    1
     4    10    11    1
     5    11    12   ar
     6    12    13   ar
     7    13    14   ar
     8    14    15   ar
     9    15    16   ar
    10     7     1    1
    11     1     2   ar
    12     2     3   ar
    13     3    17    1
    14    17    18    1
    15    18    19    2
    16    18    20    2
    17    18    21    1
    18    21    22   ar
    19    22    23   ar
    20    23    24   ar
    21    24    25   ar
    22    25    26   ar
    23     3     4   ar
    24     4     5   ar
    25    16    11   ar
    26     5     1   ar
    27    26    21   ar
    28     8     9    1
@<TRIPOS>MOLECULE
*****
 26 28 0 0 0
SMALL
GASTEIGER

@<TRIPOS>ATOM
      1 C         -20.9403  -11.3503  -11.7302 C.ar    1  UNL1        0.3134
      2 N         -22.2177  -10.9359  -11.8042 N.ar    1  UNL1       -0.1854
      3 C         -22.1056   -9.6435  -11.4412 C.ar    1  UNL1        0.2051
      4 N         -20.8341   -9.2888  -11.1776 N.ar    1  UNL1       -0.0582
      5 O         -20.1455  -10.3740  -11.3611 O.2     1  UNL1       -0.3279
      6 O         -19.8295  -13.3252  -11.1234 O.2     1  UNL1       -0.2649
      7 C         -20.4660  -12.7173  -12.0247 C.2     1  UNL1        0.3025
      8 N         -20.6826  -13.3873  -13.2813 N.am    1  UNL1       -0.2930
      9 H         -20.2843  -14.3484  -13.3842 H       1  UNL1        0.1502
     10 C         -21.3801  -12.8332  -14.4433 C.3     1  UNL1        0.1168
     11 C         -22.7137  -13.5038  -14.6580 C.ar    1  UNL1        0.0005
     12 C         -22.8283  -14.6233  -15.4975 C.ar    1  UNL1        0.0181
     13 C         -24.0818  -15.2048  -15.7035 C.ar    1  UNL1        0.0986
     14 N         -25.1847  -14.6778  -15.1089 N.ar    1  UNL1       -0.2423
     15 C         -25.1074  -13.5809  -14.3100 C.ar    1  UNL1        0.0986
     16 C         -23.8742  -12.9675  -14.0794 C.ar    1  UNL1        0.0181
     17 C         -23.2559   -8.6921  -11.4244 C.3     1  UNL1        0.2245
     18 S         -23.0972   -7.5140  -12.7536 S.O2    1  UNL1        0.0162
     19 O         -24.3957   -6.7775  -12.9270 O.2     1  UNL1       -0.1682
     20 O         -22.0219   -6.5183  -12.4176 O.2     1  UNL1       -0.1682
     21 C         -22.6939   -8.3518  -14.2501 C.ar    1  UNL1        0.1062
     22 C         -21.4541   -8.1389  -14.8713 C.ar    1  UNL1        0.0184
     23 C         -21.1257   -8.8335  -16.0397 C.ar    1  UNL1        0.0013
     24 C         -22.0301   -9.7472  -16.5887 C.ar    1  UNL1        0.0001
     25 C         -23.2637   -9.9673  -15.9696 C.ar    1  UNL1        0.0013
     26 C         -23.5957   -9.2724  -14.8023 C.ar    1  UNL1        0.0184
@<TRIPOS>BOND
     1     6     7    2
     2     7     8   am
     3     8    10    1
     4    10    11    1
     5    11    12   ar
     6    12    13   ar
     7    13    14   ar
     8    14    15   ar
     9    15    16   ar
    10     7     1    1
    11     1     2   ar
    12     2     3   ar
    13     3    17    1
    14    17    18    1
    15    18    19    2
    16    18    20    2
    17    18    21    1
    18    21    22   ar
    19    22    23   ar
    20    23    24   ar
    21    24    25   ar
    22    25    26   ar
    23     3     4   ar
    24     4     5   ar
    25    16    11   ar
    26     5     1   ar
    27    26    21   ar
    28     8     9    1
@<TRIPOS>MOLECULE
*****
 26 28 0 0 0
SMALL
GASTEIGER

@<TRIPOS>ATOM
      1 C         -22.0577   -9.6174   -9.6721 C.ar    1  UNL1        0.3134
      2 N         -22.3301  -10.7776  -10.2953 N.ar    1  UNL1       -0.1854
      3 C         -21.4207  -10.7725  -11.2890 C.ar    1  UNL1        0.2051
      4 N         -20.6317   -9.6822  -11.2624 N.ar    1  UNL1       -0.0582
      5 O         -21.0624   -8.9896  -10.2521 O.2     1  UNL1       -0.3279
      6 O         -22.1013   -8.4277   -7.6509 O.2     1  UNL1       -0.2649
      7 C         -22.7664   -9.0963   -8.4862 C.2     1  UNL1        0.3025
      8 N         -24.1666   -9.3156   -8.2289 N.am    1  UNL1       -0.2930
      9 H         -24.5579   -8.9148   -7.3462 H       1  UNL1        0.1502
     10 C         -25.0876  -10.0793   -9.0730 C.3     1  UNL1        0.1168
     11 C         -25.6849   -9.2182  -10.1575 C.ar    1  UNL1        0.0005
     12 C         -26.8043   -8.4111   -9.8995 C.ar    1  UNL1        0.0181
     13 C         -27.3565   -7.6482  -10.9315 C.ar    1  UNL1        0.0986
     14 N         -26.8235   -7.7025  -12.1808 N.ar    1  UNL1       -0.2423
     15 C         -25.7546   -8.4925  -12.4652 C.ar    1  UNL1        0.0986
     16 C         -25.1737   -9.2728  -11.4632 C.ar    1  UNL1        0.0181
     17 C         -21.2518  -11.8990  -12.2541 C.3     1  UNL1        0.2245
     18 S         -22.0911  -11.5279  -13.7831 S.O2    1  UNL1        0.0162
     19 O         -22.6101  -10.1182  -13.7395 O.2     1  UNL1       -0.1682
     20 O         -21.1254  -11.6485  -14.9292 O.2     1  UNL1       -0.1682
     21 C         -23.4371  -12.6415  -14.0118 C.ar    1  UNL1        0.1062
     22 C         -24.6288  -12.4727  -13.2909 C.ar    1  UNL1        0.0184
     23 C         -25.7062  -13.3385  -13.5027 C.ar    1  UNL1        0.0013
     24 C         -25.6007  -14.3717  -14.4385 C.ar    1  UNL1        0.0001
     25 C         -24.4176  -14.5397  -15.1636 C.ar    1  UNL1        0.0013
     26 C         -23.3378  -13.6765  -14.9522 C.ar    1  UNL1        0.0184
@<TRIPOS>BOND
     1     6     7    2
     2     7     8   am
     3     8    10    1
     4    10    11    1
     5    11    12   ar
     6    12    13   ar
     7    13    14   ar
     8    14    15   ar
     9    15    16   ar
    10     7     1    1
    11     1     2   ar
    12     2     3   ar
    13     3    17    1
    14    17    18    1
    15    18    19    2
    16    18    20    2
    17    18    21    1
    18    21    22   ar
    19    22    23   ar
    20    23    24   ar
    21    24    25   ar
    22    25    26   ar
    23     3     4   ar
    24     4     5   ar
    25    16    11   ar
    26     5     1   ar
    27    26    21   ar
    28     8     9    1
@<TRIPOS>MOLECULE
*****
 26 28 0 0 0
SMALL
GASTEIGER

@<TRIPOS>ATOM
      1 C         -22.2084   -7.8775  -13.7273 C.ar    1  UNL1        0.3134
      2 N         -22.8880   -7.3671  -12.6851 N.ar    1  UNL1       -0.1854
      3 C         -21.8875   -6.9335  -11.8942 C.ar    1  UNL1        0.2051
      4 N         -20.6724   -7.1525  -12.4305 N.ar    1  UNL1       -0.0582
      5 O         -20.9139   -7.7443  -13.5606 O.2     1  UNL1       -0.3279
      6 O         -22.7236   -7.8953  -16.0157 O.2     1  UNL1       -0.2649
      7 C         -22.8139   -8.5068  -14.9180 C.2     1  UNL1        0.3025
      8 N         -23.5052   -9.7702  -14.8924 N.am    1  UNL1       -0.2930
      9 H         -23.9112  -10.1101  -15.7939 H       1  UNL1        0.1502
     10 C         -23.7235  -10.6083  -13.7118 C.3     1  UNL1        0.1168
     11 C         -24.0761  -12.0231  -14.0970 C.ar    1  UNL1        0.0005
     12 C         -25.3828  -12.5088  -13.9305 C.ar    1  UNL1        0.0181
     13 C         -25.6736  -13.8336  -14.2656 C.ar    1  UNL1        0.0986
     14 N         -24.6926  -14.6506  -14.7322 N.ar    1  UNL1       -0.2423
     15 C         -23.4139  -14.2146  -14.8817 C.ar    1  UNL1        0.0986
     16 C         -23.0800  -12.8982  -14.5562 C.ar    1  UNL1        0.0181
     17 C         -22.1117   -6.2082  -10.6087 C.3     1  UNL1        0.2245
     18 S         -21.7480   -7.2780   -9.2291 S.O2    1  UNL1        0.0162
     19 O         -20.7199   -6.6258   -8.3480 O.2     1  UNL1       -0.1682
     20 O         -22.9974   -7.5025   -8.4236 O.2     1  UNL1       -0.1682
     21 C         -21.1257   -8.8186   -9.8151 C.ar    1  UNL1        0.1062
     22 C         -21.9958   -9.7751  -10.3594 C.ar    1  UNL1        0.0184
     23 C         -21.4916  -10.9815  -10.8552 C.ar    1  UNL1        0.0013
     24 C         -20.1175  -11.2351  -10.8154 C.ar    1  UNL1        0.0001
     25 C         -19.2462  -10.2823  -10.2799 C.ar    1  UNL1        0.0013
     26 C         -19.7480   -9.0759   -9.7813 C.ar    1  UNL1        0.0184
@<TRIPOS>BOND
     1     6     7    2
     2     7     8   am
     3     8    10    1
     4    10    11    1
     5    11    12   ar
     6    12    13   ar
     7    13    14   ar
     8    14    15   ar
     9    15    16   ar
    10     7     1    1
    11     1     2   ar
    12     2     3   ar
    13     3    17    1
    14    17    18    1
    15    18    19    2
    16    18    20    2
    17    18    21    1
    18    21    22   ar
    19    22    23   ar
    20    23    24   ar
    21    24    25   ar
    22    25    26   ar
    23     3     4   ar
    24     4     5   ar
    25    16    11   ar
    26     5     1   ar
    27    26    21   ar
    28     8     9    1
