@<TRIPOS>MOLECULE
*****
 50 55 0 0 0
SMALL
GASTEIGER

@<TRIPOS>ATOM
      1 O         -61.6638  -45.4730  -27.7792 O.2     1  UNL1       -0.2701
      2 C         -62.5094  -44.5397  -27.7030 C.2     1  UNL1        0.2484
      3 N         -63.3549  -44.2502  -28.8268 N.am    1  UNL1       -0.2945
      4 H         -64.2092  -43.6673  -28.6751 H       1  UNL1        0.1501
      5 C         -62.6381  -43.7787  -26.4402 C.ar    1  UNL1        0.0813
      6 C         -62.1523  -44.3329  -25.2434 C.ar    1  UNL1        0.0138
      7 C         -62.2658  -43.6367  -24.0352 C.ar    1  UNL1        0.0436
      8 I         -61.4976  -44.5297  -22.2759 I       1  UNL1       -0.0412
      9 C         -62.8630  -42.3655  -24.0147 C.ar    1  UNL1        0.0556
     10 C         -63.3283  -41.7993  -25.2069 C.ar    1  UNL1        0.0447
     11 C         -63.2168  -42.4949  -26.4139 C.ar    1  UNL1        0.1457
     12 F         -63.6304  -41.8894  -27.5555 F       1  UNL1       -0.2040
     13 N         -62.9945  -41.6347  -22.7898 N.pl3   1  UNL1       -0.3037
     14 C         -64.2229  -41.7464  -22.0005 C.3     1  UNL1        0.1123
     15 C         -64.6579  -40.3599  -21.5188 C.3     1  UNL1        0.1136
     16 N         -63.5406  -39.6158  -20.9081 N.pl3   1  UNL1       -0.2897
     17 C         -62.1745  -40.1615  -20.9734 C.3     1  UNL1        0.1136
     18 C         -61.8965  -40.7664  -22.3542 C.3     1  UNL1        0.1123
     19 C         -63.8016  -38.4407  -20.1061 C.ar    1  UNL1        0.1318
     20 C         -64.8209  -38.4251  -19.1376 C.ar    1  UNL1        0.0343
     21 C         -65.0402  -37.2716  -18.3829 C.ar    1  UNL1        0.0083
     22 C         -64.2632  -36.1248  -18.6011 C.ar    1  UNL1        0.0906
     23 C         -63.2409  -36.1860  -19.5597 C.ar    1  UNL1        0.1041
     24 N         -63.0443  -37.3210  -20.2809 N.ar    1  UNL1       -0.2292
     25 C         -64.4573  -34.8902  -17.7582 C.3     1  UNL1        0.4200
     26 F         -64.7673  -35.2337  -16.4537 F       1  UNL1       -0.1658
     27 F         -63.2916  -34.1474  -17.7637 F       1  UNL1       -0.1658
     28 F         -65.4890  -34.1146  -18.2585 F       1  UNL1       -0.1658
     29 C         -63.1543  -44.8835  -30.1337 C.3     1  UNL1        0.1535
     30 C         -64.0784  -46.0626  -30.2765 C.2     1  UNL1        0.2443
     31 O         -64.0649  -46.9640  -29.3950 O.2     1  UNL1       -0.2730
     32 N         -64.9911  -46.1402  -31.3846 N.am    1  UNL1       -0.2825
     33 H         -65.1728  -45.2685  -31.9316 H       1  UNL1        0.1549
     34 C         -65.7521  -47.3128  -31.7202 C.ar    1  UNL1        0.0535
     35 C         -66.2087  -47.4848  -33.0341 C.ar    1  UNL1        0.0353
     36 C         -66.9284  -48.6336  -33.3713 C.ar    1  UNL1        0.1002
     37 N         -67.1692  -49.5873  -32.4334 N.ar    1  UNL1       -0.2422
     38 C         -66.7220  -49.4584  -31.1562 C.ar    1  UNL1        0.1002
     39 C         -65.9995  -48.3243  -30.7767 C.ar    1  UNL1        0.0353
     40 C         -63.3953  -43.8787  -31.2738 C.3     1  UNL1        0.0569
     41 C         -62.2145  -43.8139  -32.1989 C.ar    1  UNL1       -0.0017
     42 C         -62.2057  -43.3169  -33.4989 C.ar    1  UNL1        0.0681
     43 N         -60.9514  -43.3394  -34.0044 N.ar    1  UNL1       -0.3523
     44 C         -60.1678  -43.8372  -33.0319 C.ar    1  UNL1        0.0563
     45 C         -58.7882  -44.0336  -33.0759 C.ar    1  UNL1        0.0170
     46 C         -58.1613  -44.5527  -31.9281 C.ar    1  UNL1        0.0015
     47 C         -58.9180  -44.8573  -30.7747 C.ar    1  UNL1        0.0001
     48 C         -60.3089  -44.6467  -30.7585 C.ar    1  UNL1        0.0012
     49 C         -60.9023  -44.1351  -31.9127 C.ar    1  UNL1        0.0131
     50 H         -60.6540  -43.0191  -34.9527 H       1  UNL1        0.1660
@<TRIPOS>BOND
     1     1     2    2
     2     2     3   am
     3     3    29    1
     4    29    40    1
     5    40    41    1
     6    41    42   ar
     7    42    43   ar
     8    43    44   ar
     9    44    45   ar
    10    45    46   ar
    11    46    47   ar
    12    47    48   ar
    13    48    49   ar
    14    29    30    1
    15    30    31    2
    16    30    32   am
    17    32    34    1
    18    34    35   ar
    19    35    36   ar
    20    36    37   ar
    21    37    38   ar
    22    38    39   ar
    23     2     5    1
    24     5     6   ar
    25     6     7   ar
    26     7     8    1
    27     7     9   ar
    28     9    13    1
    29    13    14    1
    30    14    15    1
    31    15    16    1
    32    16    19    1
    33    19    20   ar
    34    20    21   ar
    35    21    22   ar
    36    22    25    1
    37    25    26    1
    38    25    27    1
    39    25    28    1
    40    22    23   ar
    41    23    24   ar
    42    16    17    1
    43    17    18    1
    44     9    10   ar
    45    10    11   ar
    46    11    12    1
    47    49    41   ar
    48    39    34   ar
    49    11     5   ar
    50    49    44   ar
    51    18    13    1
    52    24    19   ar
    53     3     4    1
    54    43    50    1
    55    32    33    1
@<TRIPOS>MOLECULE
*****
 50 55 0 0 0
SMALL
GASTEIGER

@<TRIPOS>ATOM
      1 O         -60.5390  -46.2546  -26.6613 O.2     1  UNL1       -0.2701
      2 C         -61.5633  -45.5182  -26.6535 C.2     1  UNL1        0.2484
      3 N         -62.4905  -45.5747  -27.7483 N.am    1  UNL1       -0.2945
      4 H         -63.4449  -45.1683  -27.6193 H       1  UNL1        0.1501
      5 C         -61.8091  -44.6297  -25.4956 C.ar    1  UNL1        0.0813
      6 C         -62.6271  -43.4973  -25.6512 C.ar    1  UNL1        0.0138
      7 C         -62.8715  -42.6384  -24.5743 C.ar    1  UNL1        0.0436
      8 I         -64.1259  -40.9607  -24.8817 I       1  UNL1       -0.0412
      9 C         -62.3026  -42.9117  -23.3195 C.ar    1  UNL1        0.0556
     10 C         -61.5056  -44.0499  -23.1532 C.ar    1  UNL1        0.0447
     11 C         -61.2596  -44.9075  -24.2289 C.ar    1  UNL1        0.1457
     12 F         -60.5267  -46.0288  -24.0139 F       1  UNL1       -0.2040
     13 N         -62.5348  -42.0454  -22.2026 N.pl3   1  UNL1       -0.3037
     14 C         -63.7635  -42.1790  -21.4173 C.3     1  UNL1        0.1123
     15 C         -64.3464  -40.7938  -21.1261 C.3     1  UNL1        0.1136
     16 N         -63.3237  -39.8661  -20.6079 N.pl3   1  UNL1       -0.2897
     17 C         -61.9086  -40.2727  -20.5878 C.3     1  UNL1        0.1136
     18 C         -61.5398  -41.0200  -21.8744 C.3     1  UNL1        0.1123
     19 C         -63.7197  -38.6299  -19.9698 C.ar    1  UNL1        0.1318
     20 C         -64.8283  -38.5720  -19.1067 C.ar    1  UNL1        0.0343
     21 C         -65.1771  -37.3598  -18.5092 C.ar    1  UNL1        0.0083
     22 C         -64.4402  -36.1984  -18.7822 C.ar    1  UNL1        0.0906
     23 C         -63.3273  -36.3003  -19.6301 C.ar    1  UNL1        0.1041
     24 N         -63.0052  -37.4919  -20.1986 N.ar    1  UNL1       -0.2292
     25 C         -64.7766  -34.8947  -18.1042 C.3     1  UNL1        0.4200
     26 F         -63.6841  -34.0448  -18.1115 F       1  UNL1       -0.1658
     27 F         -65.8228  -34.2895  -18.7750 F       1  UNL1       -0.1658
     28 F         -65.1486  -35.1104  -16.7885 F       1  UNL1       -0.1658
     29 C         -62.2037  -46.3308  -28.9712 C.3     1  UNL1        0.1535
     30 C         -63.4205  -47.1145  -29.3837 C.2     1  UNL1        0.2443
     31 O         -63.7820  -48.1003  -28.6857 O.2     1  UNL1       -0.2730
     32 N         -64.1817  -46.7200  -30.5378 N.am    1  UNL1       -0.2825
     33 H         -64.0262  -45.7611  -30.9230 H       1  UNL1        0.1549
     34 C         -65.2202  -47.5193  -31.1287 C.ar    1  UNL1        0.0535
     35 C         -65.6581  -47.2284  -32.4280 C.ar    1  UNL1        0.0353
     36 C         -66.6505  -48.0164  -33.0160 C.ar    1  UNL1        0.1002
     37 N         -67.1758  -49.0702  -32.3372 N.ar    1  UNL1       -0.2422
     38 C         -66.7574  -49.3895  -31.0840 C.ar    1  UNL1        0.1002
     39 C         -65.7678  -48.6265  -30.4588 C.ar    1  UNL1        0.0353
     40 C         -61.7667  -45.3909  -30.1084 C.3     1  UNL1        0.0569
     41 C         -61.9263  -43.9510  -29.7141 C.ar    1  UNL1       -0.0017
     42 C         -60.9233  -43.0991  -29.2609 C.ar    1  UNL1        0.0681
     43 N         -61.4111  -41.8510  -29.0779 N.ar    1  UNL1       -0.3523
     44 C         -62.7100  -41.9058  -29.4204 C.ar    1  UNL1        0.0563
     45 C         -63.6300  -40.8581  -29.4164 C.ar    1  UNL1        0.0170
     46 C         -64.9442  -41.1358  -29.8351 C.ar    1  UNL1        0.0015
     47 C         -65.3044  -42.4384  -30.2467 C.ar    1  UNL1        0.0001
     48 C         -64.3542  -43.4757  -30.2424 C.ar    1  UNL1        0.0012
     49 C         -63.0608  -43.1706  -29.8180 C.ar    1  UNL1        0.0131
     50 H         -60.8791  -41.0137  -28.7518 H       1  UNL1        0.1660
@<TRIPOS>BOND
     1     1     2    2
     2     2     3   am
     3     3    29    1
     4    29    40    1
     5    40    41    1
     6    41    42   ar
     7    42    43   ar
     8    43    44   ar
     9    44    45   ar
    10    45    46   ar
    11    46    47   ar
    12    47    48   ar
    13    48    49   ar
    14    29    30    1
    15    30    31    2
    16    30    32   am
    17    32    34    1
    18    34    35   ar
    19    35    36   ar
    20    36    37   ar
    21    37    38   ar
    22    38    39   ar
    23     2     5    1
    24     5     6   ar
    25     6     7   ar
    26     7     8    1
    27     7     9   ar
    28     9    13    1
    29    13    14    1
    30    14    15    1
    31    15    16    1
    32    16    19    1
    33    19    20   ar
    34    20    21   ar
    35    21    22   ar
    36    22    25    1
    37    25    26    1
    38    25    27    1
    39    25    28    1
    40    22    23   ar
    41    23    24   ar
    42    16    17    1
    43    17    18    1
    44     9    10   ar
    45    10    11   ar
    46    11    12    1
    47    49    41   ar
    48    39    34   ar
    49    11     5   ar
    50    49    44   ar
    51    18    13    1
    52    24    19   ar
    53     3     4    1
    54    43    50    1
    55    32    33    1
@<TRIPOS>MOLECULE
*****
 50 55 0 0 0
SMALL
GASTEIGER

@<TRIPOS>ATOM
      1 O         -60.8562  -41.6929  -19.4931 O.2     1  UNL1       -0.2701
      2 C         -61.7909  -41.5726  -20.3318 C.2     1  UNL1        0.2484
      3 N         -63.0805  -41.1110  -19.9010 N.am    1  UNL1       -0.2945
      4 H         -63.7581  -40.7711  -20.6206 H       1  UNL1        0.1501
      5 C         -61.5313  -41.8789  -21.7563 C.ar    1  UNL1        0.0813
      6 C         -62.5219  -41.6084  -22.7160 C.ar    1  UNL1        0.0138
      7 C         -62.3040  -41.8929  -24.0684 C.ar    1  UNL1        0.0436
      8 I         -63.8376  -41.4443  -25.4574 I       1  UNL1       -0.0412
      9 C         -61.0798  -42.4468  -24.4775 C.ar    1  UNL1        0.0556
     10 C         -60.0814  -42.6974  -23.5292 C.ar    1  UNL1        0.0447
     11 C         -60.2990  -42.4151  -22.1779 C.ar    1  UNL1        0.1457
     12 F         -59.2872  -42.6216  -21.2980 F       1  UNL1       -0.2040
     13 N         -60.8342  -42.7507  -25.8555 N.pl3   1  UNL1       -0.3037
     14 C         -60.0885  -41.8065  -26.6902 C.3     1  UNL1        0.1123
     15 C         -60.7765  -41.6606  -28.0500 C.3     1  UNL1        0.1136
     16 N         -61.0926  -42.9709  -28.6483 N.pl3   1  UNL1       -0.2897
     17 C         -60.8944  -44.2013  -27.8640 C.3     1  UNL1        0.1136
     18 C         -61.3539  -44.0020  -26.4152 C.3     1  UNL1        0.1123
     19 C         -61.4377  -43.0663  -30.0497 C.ar    1  UNL1        0.1318
     20 C         -60.6058  -43.7333  -30.9664 C.ar    1  UNL1        0.0343
     21 C         -60.9751  -43.8047  -32.3105 C.ar    1  UNL1        0.0083
     22 C         -62.1595  -43.1974  -32.7522 C.ar    1  UNL1        0.0906
     23 C         -62.9747  -42.5611  -31.8044 C.ar    1  UNL1        0.1041
     24 N         -62.5957  -42.5063  -30.5004 N.ar    1  UNL1       -0.2292
     25 C         -62.5937  -43.3107  -34.1913 C.3     1  UNL1        0.4200
     26 F         -63.5352  -44.3145  -34.3393 F       1  UNL1       -0.1658
     27 F         -63.1474  -42.1104  -34.5955 F       1  UNL1       -0.1658
     28 F         -61.5139  -43.6065  -35.0053 F       1  UNL1       -0.1658
     29 C         -63.4107  -40.9405  -18.4828 C.3     1  UNL1        0.1535
     30 C         -63.9563  -39.5576  -18.2488 C.2     1  UNL1        0.2443
     31 O         -64.8135  -39.3808  -17.3412 O.2     1  UNL1       -0.2730
     32 N         -63.4776  -38.4467  -19.0258 N.am    1  UNL1       -0.2825
     33 H         -62.5898  -38.5709  -19.5629 H       1  UNL1        0.1549
     34 C         -64.0831  -37.1429  -19.0243 C.ar    1  UNL1        0.0535
     35 C         -63.3579  -36.0473  -18.5361 C.ar    1  UNL1        0.0353
     36 C         -63.9326  -34.7742  -18.5541 C.ar    1  UNL1        0.1002
     37 N         -65.1822  -34.5971  -19.0584 N.ar    1  UNL1       -0.2422
     38 C         -65.9022  -35.6365  -19.5574 C.ar    1  UNL1        0.1002
     39 C         -65.3652  -36.9264  -19.5573 C.ar    1  UNL1        0.0353
     40 C         -64.4302  -41.9981  -18.0252 C.3     1  UNL1        0.0569
     41 C         -65.1506  -42.6004  -19.1967 C.ar    1  UNL1       -0.0017
     42 C         -65.3694  -43.9552  -19.4286 C.ar    1  UNL1        0.0681
     43 N         -66.1237  -44.1285  -20.5377 N.ar    1  UNL1       -0.3523
     44 C         -66.3904  -42.8953  -21.0021 C.ar    1  UNL1        0.0563
     45 C         -67.1540  -42.5599  -22.1193 C.ar    1  UNL1        0.0170
     46 C         -67.3220  -41.1945  -22.4148 C.ar    1  UNL1        0.0015
     47 C         -66.7324  -40.2066  -21.5949 C.ar    1  UNL1        0.0001
     48 C         -65.9685  -40.5748  -20.4724 C.ar    1  UNL1        0.0012
     49 C         -65.8164  -41.9360  -20.2077 C.ar    1  UNL1        0.0131
     50 H         -66.4450  -45.0373  -20.9392 H       1  UNL1        0.1660
@<TRIPOS>BOND
     1     1     2    2
     2     2     3   am
     3     3    29    1
     4    29    40    1
     5    40    41    1
     6    41    42   ar
     7    42    43   ar
     8    43    44   ar
     9    44    45   ar
    10    45    46   ar
    11    46    47   ar
    12    47    48   ar
    13    48    49   ar
    14    29    30    1
    15    30    31    2
    16    30    32   am
    17    32    34    1
    18    34    35   ar
    19    35    36   ar
    20    36    37   ar
    21    37    38   ar
    22    38    39   ar
    23     2     5    1
    24     5     6   ar
    25     6     7   ar
    26     7     8    1
    27     7     9   ar
    28     9    13    1
    29    13    14    1
    30    14    15    1
    31    15    16    1
    32    16    19    1
    33    19    20   ar
    34    20    21   ar
    35    21    22   ar
    36    22    25    1
    37    25    26    1
    38    25    27    1
    39    25    28    1
    40    22    23   ar
    41    23    24   ar
    42    16    17    1
    43    17    18    1
    44     9    10   ar
    45    10    11   ar
    46    11    12    1
    47    49    41   ar
    48    39    34   ar
    49    11     5   ar
    50    49    44   ar
    51    18    13    1
    52    24    19   ar
    53     3     4    1
    54    43    50    1
    55    32    33    1
@<TRIPOS>MOLECULE
*****
 50 55 0 0 0
SMALL
GASTEIGER

@<TRIPOS>ATOM
      1 O         -62.7581  -43.8048  -19.6918 O.2     1  UNL1       -0.2701
      2 C         -62.7749  -42.9295  -20.6003 C.2     1  UNL1        0.2484
      3 N         -62.9644  -41.5484  -20.2564 N.am    1  UNL1       -0.2945
      4 H         -62.7223  -40.8174  -20.9632 H       1  UNL1        0.1501
      5 C         -62.5652  -43.3397  -22.0068 C.ar    1  UNL1        0.0813
      6 C         -62.1709  -44.6579  -22.2938 C.ar    1  UNL1        0.0138
      7 C         -61.9610  -45.0701  -23.6141 C.ar    1  UNL1        0.0436
      8 I         -61.3822  -47.0755  -23.9690 I       1  UNL1       -0.0412
      9 C         -62.1540  -44.1624  -24.6685 C.ar    1  UNL1        0.0556
     10 C         -62.5683  -42.8549  -24.3901 C.ar    1  UNL1        0.0447
     11 C         -62.7764  -42.4420  -23.0713 C.ar    1  UNL1        0.1457
     12 F         -63.2298  -41.1831  -22.8466 F       1  UNL1       -0.2040
     13 N         -61.9418  -44.5592  -26.0284 N.pl3   1  UNL1       -0.3037
     14 C         -60.6646  -45.1563  -26.4244 C.3     1  UNL1        0.1123
     15 C         -60.1969  -44.5492  -27.7497 C.3     1  UNL1        0.1136
     16 N         -61.2708  -44.5451  -28.7605 N.pl3   1  UNL1       -0.2897
     17 C         -62.6391  -44.9313  -28.3772 C.3     1  UNL1        0.1136
     18 C         -63.0075  -44.3416  -27.0111 C.3     1  UNL1        0.1123
     19 C         -60.9561  -44.3245  -30.1549 C.ar    1  UNL1        0.1318
     20 C         -61.8965  -43.7682  -31.0401 C.ar    1  UNL1        0.0343
     21 C         -61.5535  -43.5697  -32.3784 C.ar    1  UNL1        0.0083
     22 C         -60.2848  -43.9413  -32.8464 C.ar    1  UNL1        0.0906
     23 C         -59.3660  -44.4717  -31.9288 C.ar    1  UNL1        0.1041
     24 N         -59.7217  -44.6537  -30.6297 N.ar    1  UNL1       -0.2292
     25 C         -59.8857  -43.6857  -34.2774 C.3     1  UNL1        0.4200
     26 F         -59.2837  -44.8061  -34.8237 F       1  UNL1       -0.1658
     27 F         -61.0123  -43.3745  -35.0155 F       1  UNL1       -0.1658
     28 F         -58.9908  -42.6325  -34.3541 F       1  UNL1       -0.1658
     29 C         -63.3193  -41.1277  -18.8976 C.3     1  UNL1        0.1535
     30 C         -63.1895  -39.6333  -18.7760 C.2     1  UNL1        0.2443
     31 O         -63.0049  -39.1233  -17.6377 O.2     1  UNL1       -0.2730
     32 N         -63.2380  -38.8022  -19.9481 N.am    1  UNL1       -0.2825
     33 H         -63.1138  -39.2604  -20.8791 H       1  UNL1        0.1549
     34 C         -63.3372  -37.3684  -19.9148 C.ar    1  UNL1        0.0535
     35 C         -64.3939  -36.7671  -19.2175 C.ar    1  UNL1        0.0353
     36 C         -64.4820  -35.3741  -19.1620 C.ar    1  UNL1        0.1002
     37 N         -63.5375  -34.6065  -19.7671 N.ar    1  UNL1       -0.2422
     38 C         -62.4902  -35.1603  -20.4335 C.ar    1  UNL1        0.1002
     39 C         -62.3652  -36.5495  -20.5142 C.ar    1  UNL1        0.0353
     40 C         -64.7505  -41.5671  -18.5426 C.3     1  UNL1        0.0569
     41 C         -65.5085  -41.9889  -19.7681 C.ar    1  UNL1       -0.0017
     42 C         -65.9187  -43.2803  -20.0861 C.ar    1  UNL1        0.0681
     43 N         -66.6485  -43.2768  -21.2248 N.ar    1  UNL1       -0.3523
     44 C         -66.7100  -41.9941  -21.6228 C.ar    1  UNL1        0.0563
     45 C         -67.3726  -41.4867  -22.7396 C.ar    1  UNL1        0.0170
     46 C         -67.3232  -40.0977  -22.9584 C.ar    1  UNL1        0.0015
     47 C         -66.6236  -39.2565  -22.0647 C.ar    1  UNL1        0.0001
     48 C         -65.9659  -39.7965  -20.9445 C.ar    1  UNL1        0.0012
     49 C         -66.0292  -41.1773  -20.7566 C.ar    1  UNL1        0.0131
     50 H         -67.0868  -44.1033  -21.6886 H       1  UNL1        0.1660
@<TRIPOS>BOND
     1     1     2    2
     2     2     3   am
     3     3    29    1
     4    29    40    1
     5    40    41    1
     6    41    42   ar
     7    42    43   ar
     8    43    44   ar
     9    44    45   ar
    10    45    46   ar
    11    46    47   ar
    12    47    48   ar
    13    48    49   ar
    14    29    30    1
    15    30    31    2
    16    30    32   am
    17    32    34    1
    18    34    35   ar
    19    35    36   ar
    20    36    37   ar
    21    37    38   ar
    22    38    39   ar
    23     2     5    1
    24     5     6   ar
    25     6     7   ar
    26     7     8    1
    27     7     9   ar
    28     9    13    1
    29    13    14    1
    30    14    15    1
    31    15    16    1
    32    16    19    1
    33    19    20   ar
    34    20    21   ar
    35    21    22   ar
    36    22    25    1
    37    25    26    1
    38    25    27    1
    39    25    28    1
    40    22    23   ar
    41    23    24   ar
    42    16    17    1
    43    17    18    1
    44     9    10   ar
    45    10    11   ar
    46    11    12    1
    47    49    41   ar
    48    39    34   ar
    49    11     5   ar
    50    49    44   ar
    51    18    13    1
    52    24    19   ar
    53     3     4    1
    54    43    50    1
    55    32    33    1
@<TRIPOS>MOLECULE
*****
 50 55 0 0 0
SMALL
GASTEIGER

@<TRIPOS>ATOM
      1 O         -60.8244  -47.5538  -25.2724 O.2     1  UNL1       -0.2701
      2 C         -61.6439  -46.6218  -25.4992 C.2     1  UNL1        0.2484
      3 N         -62.3552  -46.5854  -26.7460 N.am    1  UNL1       -0.2945
      4 H         -63.2023  -45.9779  -26.8230 H       1  UNL1        0.1501
      5 C         -61.8830  -45.5968  -24.4587 C.ar    1  UNL1        0.0813
      6 C         -62.4278  -44.3532  -24.8219 C.ar    1  UNL1        0.0138
      7 C         -62.6590  -43.3651  -23.8589 C.ar    1  UNL1        0.0436
      8 I         -63.4956  -41.5219  -24.4798 I       1  UNL1       -0.0412
      9 C         -62.3533  -43.6175  -22.5114 C.ar    1  UNL1        0.0556
     10 C         -61.8316  -44.8621  -22.1408 C.ar    1  UNL1        0.0447
     11 C         -61.5987  -45.8490  -23.1025 C.ar    1  UNL1        0.1457
     12 F         -61.1431  -47.0606  -22.6958 F       1  UNL1       -0.2040
     13 N         -62.5773  -42.6207  -21.5074 N.pl3   1  UNL1       -0.3037
     14 C         -63.8186  -42.6321  -20.7307 C.3     1  UNL1        0.1123
     15 C         -64.3699  -41.2088  -20.6128 C.3     1  UNL1        0.1136
     16 N         -63.3306  -40.2510  -20.1914 N.pl3   1  UNL1       -0.2897
     17 C         -61.9266  -40.6859  -20.1022 C.3     1  UNL1        0.1136
     18 C         -61.5608  -41.5877  -21.2865 C.3     1  UNL1        0.1123
     19 C         -63.7030  -38.9394  -19.7087 C.ar    1  UNL1        0.1318
     20 C         -64.7246  -38.7705  -18.7573 C.ar    1  UNL1        0.0343
     21 C         -65.0533  -37.4879  -18.3157 C.ar    1  UNL1        0.0083
     22 C         -64.3840  -36.3687  -18.8315 C.ar    1  UNL1        0.0906
     23 C         -63.3553  -36.5787  -19.7617 C.ar    1  UNL1        0.1041
     24 N         -63.0511  -37.8371  -20.1753 N.ar    1  UNL1       -0.2292
     25 C         -64.6955  -34.9833  -18.3256 C.3     1  UNL1        0.4200
     26 F         -65.6187  -34.3599  -19.1472 F       1  UNL1       -0.1658
     27 F         -65.2164  -35.0716  -17.0482 F       1  UNL1       -0.1658
     28 F         -63.5504  -34.2063  -18.2933 F       1  UNL1       -0.1658
     29 C         -62.0359  -47.4962  -27.8496 C.3     1  UNL1        0.1535
     30 C         -63.3021  -47.9201  -28.5438 C.2     1  UNL1        0.2443
     31 O         -63.9641  -48.8867  -28.0779 O.2     1  UNL1       -0.2730
     32 N         -63.7693  -47.2070  -29.7015 N.am    1  UNL1       -0.2825
     33 H         -63.3626  -46.2637  -29.8930 H       1  UNL1        0.1549
     34 C         -64.8374  -47.6611  -30.5497 C.ar    1  UNL1        0.0535
     35 C         -65.1405  -46.9475  -31.7174 C.ar    1  UNL1        0.0353
     36 C         -66.1619  -47.3975  -32.5575 C.ar    1  UNL1        0.1002
     37 N         -66.8461  -48.5314  -32.2521 N.ar    1  UNL1       -0.2422
     38 C         -66.5618  -49.2559  -31.1377 C.ar    1  UNL1        0.1002
     39 C         -65.5488  -48.8403  -30.2698 C.ar    1  UNL1        0.0353
     40 C         -61.0780  -46.8296  -28.8523 C.3     1  UNL1        0.0569
     41 C         -61.0860  -45.3360  -28.7000 C.ar    1  UNL1       -0.0017
     42 C         -60.3728  -44.5940  -27.7629 C.ar    1  UNL1        0.0681
     43 N         -60.5562  -43.2702  -27.9705 N.ar    1  UNL1       -0.3523
     44 C         -61.3708  -43.1704  -29.0354 C.ar    1  UNL1        0.0563
     45 C         -61.8308  -42.0018  -29.6409 C.ar    1  UNL1        0.0170
     46 C         -62.6661  -42.1293  -30.7659 C.ar    1  UNL1        0.0015
     47 C         -63.0161  -43.4070  -31.2567 C.ar    1  UNL1        0.0001
     48 C         -62.5351  -44.5691  -30.6265 C.ar    1  UNL1        0.0012
     49 C         -61.7126  -44.4105  -29.5109 C.ar    1  UNL1        0.0131
     50 H         -60.1354  -42.4875  -27.4221 H       1  UNL1        0.1660
@<TRIPOS>BOND
     1     1     2    2
     2     2     3   am
     3     3    29    1
     4    29    40    1
     5    40    41    1
     6    41    42   ar
     7    42    43   ar
     8    43    44   ar
     9    44    45   ar
    10    45    46   ar
    11    46    47   ar
    12    47    48   ar
    13    48    49   ar
    14    29    30    1
    15    30    31    2
    16    30    32   am
    17    32    34    1
    18    34    35   ar
    19    35    36   ar
    20    36    37   ar
    21    37    38   ar
    22    38    39   ar
    23     2     5    1
    24     5     6   ar
    25     6     7   ar
    26     7     8    1
    27     7     9   ar
    28     9    13    1
    29    13    14    1
    30    14    15    1
    31    15    16    1
    32    16    19    1
    33    19    20   ar
    34    20    21   ar
    35    21    22   ar
    36    22    25    1
    37    25    26    1
    38    25    27    1
    39    25    28    1
    40    22    23   ar
    41    23    24   ar
    42    16    17    1
    43    17    18    1
    44     9    10   ar
    45    10    11   ar
    46    11    12    1
    47    49    41   ar
    48    39    34   ar
    49    11     5   ar
    50    49    44   ar
    51    18    13    1
    52    24    19   ar
    53     3     4    1
    54    43    50    1
    55    32    33    1
@<TRIPOS>MOLECULE
*****
 50 55 0 0 0
SMALL
GASTEIGER

@<TRIPOS>ATOM
      1 O         -63.0226  -54.6888  -22.2729 O.2     1  UNL1       -0.2701
      2 C         -63.9591  -53.9302  -22.6459 C.2     1  UNL1        0.2484
      3 N         -65.3223  -54.3016  -22.3901 N.am    1  UNL1       -0.2945
      4 H         -66.0642  -53.5689  -22.4632 H       1  UNL1        0.1501
      5 C         -63.6335  -52.6501  -23.3136 C.ar    1  UNL1        0.0813
      6 C         -62.6627  -51.8024  -22.7531 C.ar    1  UNL1        0.0138
      7 C         -62.3397  -50.5846  -23.3614 C.ar    1  UNL1        0.0436
      8 I         -60.8565  -49.3674  -22.4661 I       1  UNL1       -0.0412
      9 C         -62.9839  -50.2049  -24.5504 C.ar    1  UNL1        0.0556
     10 C         -63.9352  -51.0554  -25.1250 C.ar    1  UNL1        0.0447
     11 C         -64.2596  -52.2713  -24.5171 C.ar    1  UNL1        0.1457
     12 F         -65.1468  -53.0919  -25.1337 F       1  UNL1       -0.2040
     13 N         -62.6735  -48.9614  -25.1900 N.pl3   1  UNL1       -0.3037
     14 C         -63.7153  -47.9460  -25.3576 C.3     1  UNL1        0.1123
     15 C         -63.6411  -47.3544  -26.7676 C.3     1  UNL1        0.1136
     16 N         -62.2656  -46.9611  -27.1259 N.pl3   1  UNL1       -0.2897
     17 C         -61.1478  -47.3104  -26.2332 C.3     1  UNL1        0.1136
     18 C         -61.3132  -48.7329  -25.6865 C.3     1  UNL1        0.1123
     19 C         -62.0288  -46.0955  -28.2602 C.ar    1  UNL1        0.1318
     20 C         -60.7344  -45.6560  -28.5901 C.ar    1  UNL1        0.0343
     21 C         -60.5475  -44.8224  -29.6938 C.ar    1  UNL1        0.0083
     22 C         -61.6455  -44.4060  -30.4603 C.ar    1  UNL1        0.0906
     23 C         -62.9182  -44.8837  -30.1141 C.ar    1  UNL1        0.1041
     24 N         -63.0757  -45.6966  -29.0364 N.ar    1  UNL1       -0.2292
     25 C         -61.4505  -43.5470  -31.6835 C.3     1  UNL1        0.4200
     26 F         -60.2862  -43.8971  -32.3452 F       1  UNL1       -0.1658
     27 F         -62.5236  -43.7205  -32.5374 F       1  UNL1       -0.1658
     28 F         -61.3642  -42.2106  -31.3330 F       1  UNL1       -0.1658
     29 C         -65.6825  -55.6225  -21.8659 C.3     1  UNL1        0.1535
     30 C         -66.6884  -55.4740  -20.7564 C.2     1  UNL1        0.2443
     31 O         -66.6584  -56.2810  -19.7880 O.2     1  UNL1       -0.2730
     32 N         -67.6465  -54.4025  -20.7831 N.am    1  UNL1       -0.2825
     33 H         -67.4723  -53.6057  -21.4364 H       1  UNL1        0.1549
     34 C         -68.7699  -54.3047  -19.8915 C.ar    1  UNL1        0.0535
     35 C         -69.9357  -53.6560  -20.3211 C.ar    1  UNL1        0.0353
     36 C         -71.0387  -53.5786  -19.4673 C.ar    1  UNL1        0.1002
     37 N         -70.9866  -54.1450  -18.2330 N.ar    1  UNL1       -0.2422
     38 C         -69.8776  -54.7982  -17.7958 C.ar    1  UNL1        0.1002
     39 C         -68.7520  -54.8975  -18.6175 C.ar    1  UNL1        0.0353
     40 C         -66.2491  -56.5198  -22.9800 C.3     1  UNL1        0.0569
     41 C         -67.3446  -55.8228  -23.7339 C.ar    1  UNL1       -0.0017
     42 C         -67.1933  -55.0076  -24.8517 C.ar    1  UNL1        0.0681
     43 N         -68.4013  -54.6164  -25.3176 N.ar    1  UNL1       -0.3523
     44 C         -69.3131  -55.1848  -24.5095 C.ar    1  UNL1        0.0563
     45 C         -70.7009  -55.0890  -24.6020 C.ar    1  UNL1        0.0170
     46 C         -71.4726  -55.7869  -23.6549 C.ar    1  UNL1        0.0015
     47 C         -70.8472  -56.5586  -22.6503 C.ar    1  UNL1        0.0001
     48 C         -69.4443  -56.6387  -22.5827 C.ar    1  UNL1        0.0012
     49 C         -68.7064  -55.9323  -23.5327 C.ar    1  UNL1        0.0131
     50 H         -68.5843  -54.0088  -26.1469 H       1  UNL1        0.1660
@<TRIPOS>BOND
     1     1     2    2
     2     2     3   am
     3     3    29    1
     4    29    40    1
     5    40    41    1
     6    41    42   ar
     7    42    43   ar
     8    43    44   ar
     9    44    45   ar
    10    45    46   ar
    11    46    47   ar
    12    47    48   ar
    13    48    49   ar
    14    29    30    1
    15    30    31    2
    16    30    32   am
    17    32    34    1
    18    34    35   ar
    19    35    36   ar
    20    36    37   ar
    21    37    38   ar
    22    38    39   ar
    23     2     5    1
    24     5     6   ar
    25     6     7   ar
    26     7     8    1
    27     7     9   ar
    28     9    13    1
    29    13    14    1
    30    14    15    1
    31    15    16    1
    32    16    19    1
    33    19    20   ar
    34    20    21   ar
    35    21    22   ar
    36    22    25    1
    37    25    26    1
    38    25    27    1
    39    25    28    1
    40    22    23   ar
    41    23    24   ar
    42    16    17    1
    43    17    18    1
    44     9    10   ar
    45    10    11   ar
    46    11    12    1
    47    49    41   ar
    48    39    34   ar
    49    11     5   ar
    50    49    44   ar
    51    18    13    1
    52    24    19   ar
    53     3     4    1
    54    43    50    1
    55    32    33    1
@<TRIPOS>MOLECULE
*****
 50 55 0 0 0
SMALL
GASTEIGER

@<TRIPOS>ATOM
      1 O         -61.2771  -45.2908  -27.4435 O.2     1  UNL1       -0.2701
      2 C         -62.4157  -45.0264  -26.9690 C.2     1  UNL1        0.2484
      3 N         -63.5880  -45.6021  -27.5656 N.am    1  UNL1       -0.2945
      4 H         -64.4828  -45.5919  -27.0253 H       1  UNL1        0.1501
      5 C         -62.5209  -44.1504  -25.7808 C.ar    1  UNL1        0.0813
      6 C         -62.0559  -44.6098  -24.5366 C.ar    1  UNL1        0.0138
      7 C         -62.1480  -43.8038  -23.3968 C.ar    1  UNL1        0.0436
      8 I         -61.4129  -44.5590  -21.5605 I       1  UNL1       -0.0412
      9 C         -62.7024  -42.5169  -23.4939 C.ar    1  UNL1        0.0556
     10 C         -63.1465  -42.0457  -24.7346 C.ar    1  UNL1        0.0447
     11 C         -63.0565  -42.8509  -25.8733 C.ar    1  UNL1        0.1457
     12 F         -63.4477  -42.3378  -27.0668 F       1  UNL1       -0.2040
     13 N         -62.8113  -41.6743  -22.3407 N.pl3   1  UNL1       -0.3037
     14 C         -63.9063  -41.8756  -21.3895 C.3     1  UNL1        0.1123
     15 C         -64.5053  -40.5234  -20.9941 C.3     1  UNL1        0.1136
     16 N         -63.4631  -39.5523  -20.6124 N.pl3   1  UNL1       -0.2897
     17 C         -62.0424  -39.8896  -20.8027 C.3     1  UNL1        0.1136
     18 C         -61.8285  -40.6050  -22.1414 C.3     1  UNL1        0.1123
     19 C         -63.8202  -38.3433  -19.9032 C.ar    1  UNL1        0.1318
     20 C         -64.8768  -38.3220  -18.9755 C.ar    1  UNL1        0.0343
     21 C         -65.1893  -37.1353  -18.3104 C.ar    1  UNL1        0.0083
     22 C         -64.4685  -35.9627  -18.5788 C.ar    1  UNL1        0.0906
     23 C         -63.4068  -36.0287  -19.4933 C.ar    1  UNL1        0.1041
     24 N         -63.1194  -37.1960  -20.1271 N.ar    1  UNL1       -0.2292
     25 C         -64.7638  -34.6879  -17.8305 C.3     1  UNL1        0.4200
     26 F         -63.6805  -33.8280  -17.8847 F       1  UNL1       -0.1658
     27 F         -65.8598  -34.0684  -18.4014 F       1  UNL1       -0.1658
     28 F         -65.0385  -34.9549  -16.5003 F       1  UNL1       -0.1658
     29 C         -63.5312  -46.3512  -28.8246 C.3     1  UNL1        0.1535
     30 C         -62.9565  -45.4816  -29.9101 C.2     1  UNL1        0.2443
     31 O         -63.7379  -44.9141  -30.7208 O.2     1  UNL1       -0.2730
     32 N         -61.5370  -45.2714  -29.9973 N.am    1  UNL1       -0.2825
     33 H         -60.9530  -45.5200  -29.1671 H       1  UNL1        0.1549
     34 C         -60.8836  -44.6402  -31.1114 C.ar    1  UNL1        0.0535
     35 C         -59.5179  -44.8689  -31.3288 C.ar    1  UNL1        0.0353
     36 C         -58.8832  -44.2770  -32.4234 C.ar    1  UNL1        0.1002
     37 N         -59.5912  -43.4973  -33.2825 N.ar    1  UNL1       -0.2422
     38 C         -60.9207  -43.2734  -33.1096 C.ar    1  UNL1        0.1002
     39 C         -61.5938  -43.8453  -32.0271 C.ar    1  UNL1        0.0353
     40 C         -62.6887  -47.6289  -28.6659 C.3     1  UNL1        0.0569
     41 C         -63.0796  -48.3868  -27.4302 C.ar    1  UNL1       -0.0017
     42 C         -64.1632  -49.2496  -27.2944 C.ar    1  UNL1        0.0681
     43 N         -64.1620  -49.8195  -26.0678 N.ar    1  UNL1       -0.3523
     44 C         -63.0826  -49.3311  -25.4322 C.ar    1  UNL1        0.0563
     45 C         -62.6486  -49.6405  -24.1439 C.ar    1  UNL1        0.0170
     46 C         -61.4721  -49.0233  -23.6807 C.ar    1  UNL1        0.0015
     47 C         -60.7623  -48.1238  -24.5071 C.ar    1  UNL1        0.0001
     48 C         -61.2229  -47.8321  -25.8039 C.ar    1  UNL1        0.0012
     49 C         -62.3944  -48.4561  -26.2333 C.ar    1  UNL1        0.0131
     50 H         -64.8526  -50.5104  -25.6991 H       1  UNL1        0.1660
@<TRIPOS>BOND
     1     1     2    2
     2     2     3   am
     3     3    29    1
     4    29    40    1
     5    40    41    1
     6    41    42   ar
     7    42    43   ar
     8    43    44   ar
     9    44    45   ar
    10    45    46   ar
    11    46    47   ar
    12    47    48   ar
    13    48    49   ar
    14    29    30    1
    15    30    31    2
    16    30    32   am
    17    32    34    1
    18    34    35   ar
    19    35    36   ar
    20    36    37   ar
    21    37    38   ar
    22    38    39   ar
    23     2     5    1
    24     5     6   ar
    25     6     7   ar
    26     7     8    1
    27     7     9   ar
    28     9    13    1
    29    13    14    1
    30    14    15    1
    31    15    16    1
    32    16    19    1
    33    19    20   ar
    34    20    21   ar
    35    21    22   ar
    36    22    25    1
    37    25    26    1
    38    25    27    1
    39    25    28    1
    40    22    23   ar
    41    23    24   ar
    42    16    17    1
    43    17    18    1
    44     9    10   ar
    45    10    11   ar
    46    11    12    1
    47    49    41   ar
    48    39    34   ar
    49    11     5   ar
    50    49    44   ar
    51    18    13    1
    52    24    19   ar
    53     3     4    1
    54    43    50    1
    55    32    33    1
@<TRIPOS>MOLECULE
*****
 50 55 0 0 0
SMALL
GASTEIGER

@<TRIPOS>ATOM
      1 O         -60.6089  -47.4508  -24.7690 O.2     1  UNL1       -0.2701
      2 C         -61.3464  -46.4751  -25.0783 C.2     1  UNL1        0.2484
      3 N         -61.8820  -46.3792  -26.4071 N.am    1  UNL1       -0.2945
      4 H         -62.6820  -45.7291  -26.5801 H       1  UNL1        0.1501
      5 C         -61.6747  -45.4600  -24.0525 C.ar    1  UNL1        0.0813
      6 C         -62.2903  -44.2570  -24.4387 C.ar    1  UNL1        0.0138
      7 C         -62.6066  -43.2788  -23.4898 C.ar    1  UNL1        0.0436
      8 I         -63.5461  -41.4983  -24.1455 I       1  UNL1       -0.0412
      9 C         -62.3159  -43.5010  -22.1337 C.ar    1  UNL1        0.0556
     10 C         -61.7235  -44.7064  -21.7406 C.ar    1  UNL1        0.0447
     11 C         -61.4056  -45.6833  -22.6881 C.ar    1  UNL1        0.1457
     12 F         -60.8822  -46.8598  -22.2607 F       1  UNL1       -0.2040
     13 N         -62.6265  -42.5133  -21.1438 N.pl3   1  UNL1       -0.3037
     14 C         -63.9528  -42.4925  -20.5235 C.3     1  UNL1        0.1123
     15 C         -64.4658  -41.0523  -20.4438 C.3     1  UNL1        0.1136
     16 N         -63.4536  -40.1399  -19.8799 N.pl3   1  UNL1       -0.2897
     17 C         -62.0865  -40.6266  -19.6304 C.3     1  UNL1        0.1136
     18 C         -61.6101  -41.5215  -20.7802 C.3     1  UNL1        0.1123
     19 C         -63.8374  -38.8237  -19.4188 C.ar    1  UNL1        0.1318
     20 C         -64.8493  -38.6490  -18.4582 C.ar    1  UNL1        0.0343
     21 C         -65.1894  -37.3621  -18.0382 C.ar    1  UNL1        0.0083
     22 C         -64.5414  -36.2449  -18.5846 C.ar    1  UNL1        0.0906
     23 C         -63.5215  -36.4603  -19.5233 C.ar    1  UNL1        0.1041
     24 N         -63.2059  -37.7227  -19.9154 N.ar    1  UNL1       -0.2292
     25 C         -64.8649  -34.8538  -18.1025 C.3     1  UNL1        0.4200
     26 F         -63.7636  -34.0250  -18.2291 F       1  UNL1       -0.1658
     27 F         -65.9038  -34.3409  -18.8565 F       1  UNL1       -0.1658
     28 F         -65.2410  -34.8737  -16.7705 F       1  UNL1       -0.1658
     29 C         -61.4606  -47.2830  -27.4818 C.3     1  UNL1        0.1535
     30 C         -62.5632  -47.4173  -28.4971 C.2     1  UNL1        0.2443
     31 O         -62.8959  -48.5668  -28.8942 O.2     1  UNL1       -0.2730
     32 N         -63.2529  -46.2515  -28.9791 N.am    1  UNL1       -0.2825
     33 H         -63.1494  -45.3629  -28.4390 H       1  UNL1        0.1549
     34 C         -64.1618  -46.2569  -30.0928 C.ar    1  UNL1        0.0535
     35 C         -64.4420  -45.0559  -30.7589 C.ar    1  UNL1        0.0353
     36 C         -65.3062  -45.0592  -31.8565 C.ar    1  UNL1        0.1002
     37 N         -65.8583  -46.2244  -32.2862 N.ar    1  UNL1       -0.2422
     38 C         -65.5899  -47.4077  -31.6735 C.ar    1  UNL1        0.1002
     39 C         -64.7321  -47.4487  -30.5715 C.ar    1  UNL1        0.0353
     40 C         -60.1760  -46.7719  -28.1572 C.3     1  UNL1        0.0569
     41 C         -60.4407  -45.5290  -28.9568 C.ar    1  UNL1       -0.0017
     42 C         -60.6603  -45.4568  -30.3293 C.ar    1  UNL1        0.0681
     43 N         -60.9464  -44.1867  -30.6954 N.ar    1  UNL1       -0.3523
     44 C         -60.9184  -43.4590  -29.5653 C.ar    1  UNL1        0.0563
     45 C         -61.1701  -42.0941  -29.4326 C.ar    1  UNL1        0.0170
     46 C         -61.1051  -41.5360  -28.1426 C.ar    1  UNL1        0.0015
     47 C         -60.7967  -42.3459  -27.0269 C.ar    1  UNL1        0.0001
     48 C         -60.5494  -43.7210  -27.1907 C.ar    1  UNL1        0.0012
     49 C         -60.6169  -44.2443  -28.4821 C.ar    1  UNL1        0.0131
     50 H         -61.1608  -43.8474  -31.6594 H       1  UNL1        0.1660
@<TRIPOS>BOND
     1     1     2    2
     2     2     3   am
     3     3    29    1
     4    29    40    1
     5    40    41    1
     6    41    42   ar
     7    42    43   ar
     8    43    44   ar
     9    44    45   ar
    10    45    46   ar
    11    46    47   ar
    12    47    48   ar
    13    48    49   ar
    14    29    30    1
    15    30    31    2
    16    30    32   am
    17    32    34    1
    18    34    35   ar
    19    35    36   ar
    20    36    37   ar
    21    37    38   ar
    22    38    39   ar
    23     2     5    1
    24     5     6   ar
    25     6     7   ar
    26     7     8    1
    27     7     9   ar
    28     9    13    1
    29    13    14    1
    30    14    15    1
    31    15    16    1
    32    16    19    1
    33    19    20   ar
    34    20    21   ar
    35    21    22   ar
    36    22    25    1
    37    25    26    1
    38    25    27    1
    39    25    28    1
    40    22    23   ar
    41    23    24   ar
    42    16    17    1
    43    17    18    1
    44     9    10   ar
    45    10    11   ar
    46    11    12    1
    47    49    41   ar
    48    39    34   ar
    49    11     5   ar
    50    49    44   ar
    51    18    13    1
    52    24    19   ar
    53     3     4    1
    54    43    50    1
    55    32    33    1
@<TRIPOS>MOLECULE
*****
 50 55 0 0 0
SMALL
GASTEIGER

@<TRIPOS>ATOM
      1 O         -60.3589  -41.3205  -21.8031 O.2     1  UNL1       -0.2701
      2 C         -61.5416  -41.4724  -22.2152 C.2     1  UNL1        0.2484
      3 N         -62.6124  -40.7461  -21.5929 N.am    1  UNL1       -0.2945
      4 H         -63.5279  -40.6755  -22.0924 H       1  UNL1        0.1501
      5 C         -61.8008  -42.3751  -23.3591 C.ar    1  UNL1        0.0813
      6 C         -61.1032  -43.5915  -23.4552 C.ar    1  UNL1        0.0138
      7 C         -61.3257  -44.4606  -24.5287 C.ar    1  UNL1        0.0436
      8 I         -60.2478  -46.2815  -24.5976 I       1  UNL1       -0.0412
      9 C         -62.2624  -44.1221  -25.5191 C.ar    1  UNL1        0.0556
     10 C         -62.9762  -42.9227  -25.4167 C.ar    1  UNL1        0.0447
     11 C         -62.7532  -42.0532  -24.3456 C.ar    1  UNL1        0.1457
     12 F         -63.5037  -40.9267  -24.2536 F       1  UNL1       -0.2040
     13 N         -62.5052  -44.9933  -26.6299 N.pl3   1  UNL1       -0.3037
     14 C         -61.9751  -44.6557  -27.9526 C.3     1  UNL1        0.1123
     15 C         -63.0450  -44.9039  -29.0191 C.3     1  UNL1        0.1136
     16 N         -63.6686  -46.2323  -28.8719 N.pl3   1  UNL1       -0.2897
     17 C         -63.3554  -47.0623  -27.6966 C.3     1  UNL1        0.1136
     18 C         -63.3019  -46.2067  -26.4258 C.3     1  UNL1        0.1123
     19 C         -64.4536  -46.7907  -29.9507 C.ar    1  UNL1        0.1318
     20 C         -64.8641  -46.0051  -31.0423 C.ar    1  UNL1        0.0343
     21 C         -65.6196  -46.5820  -32.0643 C.ar    1  UNL1        0.0083
     22 C         -65.9871  -47.9336  -31.9962 C.ar    1  UNL1        0.0906
     23 C         -65.5397  -48.6906  -30.9033 C.ar    1  UNL1        0.1041
     24 N         -64.8030  -48.1078  -29.9211 N.ar    1  UNL1       -0.2292
     25 C         -66.7598  -48.5799  -33.1176 C.3     1  UNL1        0.4200
     26 F         -67.0916  -49.8840  -32.7934 F       1  UNL1       -0.1658
     27 F         -67.9197  -47.8627  -33.3436 F       1  UNL1       -0.1658
     28 F         -66.0083  -48.6005  -34.2799 F       1  UNL1       -0.1658
     29 C         -62.4118  -39.9613  -20.3709 C.3     1  UNL1        0.1535
     30 C         -63.5531  -38.9972  -20.1906 C.2     1  UNL1        0.2443
     31 O         -64.6222  -39.1838  -20.8325 O.2     1  UNL1       -0.2730
     32 N         -63.4380  -37.8994  -19.2694 N.am    1  UNL1       -0.2825
     33 H         -62.6680  -37.9307  -18.5636 H       1  UNL1        0.1549
     34 C         -64.3792  -36.8159  -19.1867 C.ar    1  UNL1        0.0535
     35 C         -63.9956  -35.6157  -18.5726 C.ar    1  UNL1        0.0353
     36 C         -64.8983  -34.5514  -18.5104 C.ar    1  UNL1        0.1002
     37 N         -66.1361  -34.6742  -19.0581 N.ar    1  UNL1       -0.2422
     38 C         -66.5299  -35.8180  -19.6778 C.ar    1  UNL1        0.1002
     39 C         -65.6585  -36.9070  -19.7610 C.ar    1  UNL1        0.0353
     40 C         -62.2927  -40.8793  -19.1419 C.3     1  UNL1        0.0569
     41 C         -63.5705  -41.6292  -18.8986 C.ar    1  UNL1       -0.0017
     42 C         -64.6549  -41.1963  -18.1411 C.ar    1  UNL1        0.0681
     43 N         -65.6653  -42.0928  -18.2078 N.ar    1  UNL1       -0.3523
     44 C         -65.2317  -43.0825  -19.0078 C.ar    1  UNL1        0.0563
     45 C         -65.9311  -44.2254  -19.3931 C.ar    1  UNL1        0.0170
     46 C         -65.2883  -45.1283  -20.2599 C.ar    1  UNL1        0.0015
     47 C         -63.9776  -44.8700  -20.7193 C.ar    1  UNL1        0.0001
     48 C         -63.2969  -43.7070  -20.3154 C.ar    1  UNL1        0.0012
     49 C         -63.9585  -42.8332  -19.4524 C.ar    1  UNL1        0.0131
     50 H         -66.5976  -42.0193  -17.7433 H       1  UNL1        0.1660
@<TRIPOS>BOND
     1     1     2    2
     2     2     3   am
     3     3    29    1
     4    29    40    1
     5    40    41    1
     6    41    42   ar
     7    42    43   ar
     8    43    44   ar
     9    44    45   ar
    10    45    46   ar
    11    46    47   ar
    12    47    48   ar
    13    48    49   ar
    14    29    30    1
    15    30    31    2
    16    30    32   am
    17    32    34    1
    18    34    35   ar
    19    35    36   ar
    20    36    37   ar
    21    37    38   ar
    22    38    39   ar
    23     2     5    1
    24     5     6   ar
    25     6     7   ar
    26     7     8    1
    27     7     9   ar
    28     9    13    1
    29    13    14    1
    30    14    15    1
    31    15    16    1
    32    16    19    1
    33    19    20   ar
    34    20    21   ar
    35    21    22   ar
    36    22    25    1
    37    25    26    1
    38    25    27    1
    39    25    28    1
    40    22    23   ar
    41    23    24   ar
    42    16    17    1
    43    17    18    1
    44     9    10   ar
    45    10    11   ar
    46    11    12    1
    47    49    41   ar
    48    39    34   ar
    49    11     5   ar
    50    49    44   ar
    51    18    13    1
    52    24    19   ar
    53     3     4    1
    54    43    50    1
    55    32    33    1
