@<TRIPOS>MOLECULE
*****
 50 55 0 0 0
SMALL
GASTEIGER

@<TRIPOS>ATOM
      1 C          -8.9687  -11.6992   30.6318 C.2     1  UNL1        0.2483
      2 O          -9.4125  -10.5613   30.3151 O.2     1  UNL1       -0.2701
      3 N          -8.9786  -12.1017   32.0103 N.am    1  UNL1       -0.2945
      4 H          -8.9499  -13.1234   32.2235 H       1  UNL1        0.1501
      5 C          -7.5593  -14.2764   27.4777 C.ar    1  UNL1        0.0502
      6 C          -8.8965  -14.3181   27.8982 C.ar    1  UNL1        0.0148
      7 C          -9.3403  -13.4847   28.9277 C.ar    1  UNL1        0.0080
      8 C          -8.4547  -12.5996   29.5682 C.ar    1  UNL1        0.0808
      9 C          -7.1091  -12.5608   29.1428 C.ar    1  UNL1        0.1457
     10 F          -6.2199  -11.6905   29.6825 F       1  UNL1       -0.2040
     11 C          -6.6721  -13.3939   28.1088 C.ar    1  UNL1        0.0443
     12 N          -6.2247  -16.2895   24.0458 N.pl3   1  UNL1       -0.3041
     13 C          -7.6387  -15.9104   24.1501 C.3     1  UNL1        0.1122
     14 C          -8.0641  -15.8950   25.6168 C.3     1  UNL1        0.1122
     15 N          -7.0983  -15.1231   26.4082 N.pl3   1  UNL1       -0.3040
     16 C          -5.6798  -15.4864   26.3050 C.3     1  UNL1        0.1122
     17 C          -5.2500  -15.5284   24.8364 C.3     1  UNL1        0.1122
     18 C          -3.9936  -17.9898   21.5402 C.ar    1  UNL1       -0.0099
     19 C          -4.4489  -17.1483   22.5750 C.ar    1  UNL1        0.0111
     20 C          -5.7877  -17.1597   22.9851 C.ar    1  UNL1        0.0485
     21 C          -6.6919  -18.0178   22.3491 C.ar    1  UNL1        0.0267
     22 C          -6.2679  -18.8595   21.3191 C.ar    1  UNL1        0.0691
     23 CL         -7.4555  -19.9170   20.5643 Cl      1  UNL1       -0.0813
     24 C          -4.9221  -18.8547   20.9059 C.ar    1  UNL1        0.0643
     25 CL         -4.4348  -19.9364   19.5958 Cl      1  UNL1       -0.0817
     26 C          -1.9047  -16.5777   21.4763 C.3     1  UNL1        0.0047
     27 C          -2.5249  -17.9375   21.1314 C.3     1  UNL1        0.0233
     28 C          -1.7301  -19.0836   21.7709 C.3     1  UNL1        0.0047
     29 C          -9.1408  -11.1329   33.1053 C.3     1  UNL1        0.1535
     30 C          -8.3452   -9.8730   32.8516 C.2     1  UNL1        0.2443
     31 O          -8.9349   -8.7619   32.7543 O.2     1  UNL1       -0.2730
     32 N          -6.9101   -9.9343   32.8255 N.am    1  UNL1       -0.2825
     33 H          -6.4530  -10.7934   33.2074 H       1  UNL1        0.1549
     34 C          -6.0645   -8.8439   32.4217 C.ar    1  UNL1        0.0535
     35 C          -5.4148   -8.0283   33.3640 C.ar    1  UNL1        0.0353
     36 C          -4.6220   -6.9652   32.9244 C.ar    1  UNL1        0.1002
     37 N          -4.4924   -6.7142   31.5948 N.ar    1  UNL1       -0.2422
     38 C          -5.1239   -7.4748   30.6621 C.ar    1  UNL1        0.1002
     39 C          -5.9271   -8.5467   31.0589 C.ar    1  UNL1        0.0353
     40 C         -10.6297  -10.8057   33.3577 C.3     1  UNL1        0.0569
     41 C         -11.5692  -11.8129   32.7507 C.ar    1  UNL1       -0.0017
     42 C         -12.2785  -11.6735   31.5608 C.ar    1  UNL1        0.0681
     43 N         -12.9718  -12.8018   31.2879 N.ar    1  UNL1       -0.3523
     44 C         -12.7104  -13.6518   32.2955 C.ar    1  UNL1        0.0563
     45 C         -13.1856  -14.9541   32.4450 C.ar    1  UNL1        0.0170
     46 C         -12.7740  -15.6789   33.5782 C.ar    1  UNL1        0.0015
     47 C         -11.9132  -15.0899   34.5299 C.ar    1  UNL1        0.0001
     48 C         -11.4527  -13.7726   34.3553 C.ar    1  UNL1        0.0012
     49 C         -11.8645  -13.0826   33.2133 C.ar    1  UNL1        0.0131
     50 H         -13.5791  -12.9762   30.4565 H       1  UNL1        0.1660
@<TRIPOS>BOND
     1    26    27    1
     2    27    28    1
     3    27    18    1
     4    18    19   ar
     5    19    20   ar
     6    20    12    1
     7    12    13    1
     8    13    14    1
     9    14    15    1
    10    15     5    1
    11     5     6   ar
    12     6     7   ar
    13     7     8   ar
    14     8     1    1
    15     1     2    2
    16     1     3   am
    17     3    29    1
    18    29    40    1
    19    40    41    1
    20    41    42   ar
    21    42    43   ar
    22    43    44   ar
    23    44    45   ar
    24    45    46   ar
    25    46    47   ar
    26    47    48   ar
    27    48    49   ar
    28    29    30    1
    29    30    31    2
    30    30    32   am
    31    32    34    1
    32    34    35   ar
    33    35    36   ar
    34    36    37   ar
    35    37    38   ar
    36    38    39   ar
    37     8     9   ar
    38     9    10    1
    39     9    11   ar
    40    15    16    1
    41    16    17    1
    42    20    21   ar
    43    21    22   ar
    44    22    23    1
    45    22    24   ar
    46    24    25    1
    47    24    18   ar
    48    17    12    1
    49    11     5   ar
    50    49    41   ar
    51    39    34   ar
    52    49    44   ar
    53     3     4    1
    54    43    50    1
    55    32    33    1
@<TRIPOS>MOLECULE
*****
 50 55 0 0 0
SMALL
GASTEIGER

@<TRIPOS>ATOM
      1 C          -9.1499  -11.9067   30.5989 C.2     1  UNL1        0.2483
      2 O         -10.2396  -11.3032   30.3982 O.2     1  UNL1       -0.2701
      3 N          -8.4786  -11.7504   31.8587 N.am    1  UNL1       -0.2945
      4 H          -7.8011  -12.4901   32.1490 H       1  UNL1        0.1501
      5 C          -7.6133  -14.3857   27.4255 C.ar    1  UNL1        0.0502
      6 C          -8.9557  -14.4732   27.8219 C.ar    1  UNL1        0.0148
      7 C          -9.4408  -13.6714   28.8578 C.ar    1  UNL1        0.0080
      8 C          -8.5921  -12.7729   29.5290 C.ar    1  UNL1        0.0808
      9 C          -7.2412  -12.6880   29.1278 C.ar    1  UNL1        0.1457
     10 F          -6.3868  -11.8024   29.6980 F       1  UNL1       -0.2040
     11 C          -6.7629  -13.4896   28.0872 C.ar    1  UNL1        0.0443
     12 N          -6.1593  -16.2973   23.9841 N.pl3   1  UNL1       -0.3041
     13 C          -7.5837  -15.9530   24.0652 C.3     1  UNL1        0.1122
     14 C          -8.0404  -15.9773   25.5223 C.3     1  UNL1        0.1122
     15 N          -7.1100  -15.1996   26.3497 N.pl3   1  UNL1       -0.3040
     16 C          -5.6814  -15.5279   26.2701 C.3     1  UNL1        0.1122
     17 C          -5.2198  -15.5301   24.8106 C.3     1  UNL1        0.1122
     18 C          -3.8356  -17.8964   21.4961 C.ar    1  UNL1       -0.0099
     19 C          -4.3324  -17.0867   22.5373 C.ar    1  UNL1        0.0111
     20 C          -5.6796  -17.1354   22.9160 C.ar    1  UNL1        0.0485
     21 C          -6.5502  -17.9989   22.2417 C.ar    1  UNL1        0.0267
     22 C          -6.0848  -18.8095   21.2048 C.ar    1  UNL1        0.0691
     23 CL         -7.2318  -19.8759   20.4011 Cl      1  UNL1       -0.0813
     24 C          -4.7305  -18.7673   20.8228 C.ar    1  UNL1        0.0643
     25 CL         -4.1902  -19.8104   19.5023 Cl      1  UNL1       -0.0817
     26 C          -1.7750  -16.4420   21.5170 C.3     1  UNL1        0.0047
     27 C          -2.3595  -17.8042   21.1225 C.3     1  UNL1        0.0233
     28 C          -1.5560  -18.9510   21.7496 C.3     1  UNL1        0.0047
     29 C          -8.8009  -10.6536   32.7843 C.3     1  UNL1        0.1535
     30 C          -8.6568   -9.3054   32.1162 C.2     1  UNL1        0.2443
     31 O          -7.5496   -8.7012   32.1442 O.2     1  UNL1       -0.2730
     32 N          -9.7555   -8.7665   31.3637 N.am    1  UNL1       -0.2825
     33 H         -10.5341   -9.4153   31.1074 H       1  UNL1        0.1549
     34 C          -9.7932   -7.4283   30.8392 C.ar    1  UNL1        0.0535
     35 C          -8.6305   -6.7832   30.3840 C.ar    1  UNL1        0.0353
     36 C          -8.7124   -5.4733   29.9049 C.ar    1  UNL1        0.1002
     37 N          -9.9064   -4.8238   29.8932 N.ar    1  UNL1       -0.2422
     38 C         -11.0432   -5.4164   30.3446 C.ar    1  UNL1        0.1002
     39 C         -11.0053   -6.7246   30.8331 C.ar    1  UNL1        0.0353
     40 C         -10.2110  -10.8211   33.3938 C.3     1  UNL1        0.0569
     41 C         -10.4614  -12.2021   33.9377 C.ar    1  UNL1       -0.0017
     42 C          -9.7693  -12.8234   34.9738 C.ar    1  UNL1        0.0681
     43 N         -10.3071  -14.0345   35.2430 N.ar    1  UNL1       -0.3523
     44 C         -11.3301  -14.1863   34.3847 C.ar    1  UNL1        0.0563
     45 C         -12.2003  -15.2719   34.2933 C.ar    1  UNL1        0.0170
     46 C         -13.2182  -15.2196   33.3238 C.ar    1  UNL1        0.0015
     47 C         -13.3373  -14.1001   32.4717 C.ar    1  UNL1        0.0001
     48 C         -12.4426  -13.0209   32.5838 C.ar    1  UNL1        0.0012
     49 C         -11.4522  -13.0927   33.5655 C.ar    1  UNL1        0.0131
     50 H          -9.9932  -14.7083   35.9763 H       1  UNL1        0.1660
@<TRIPOS>BOND
     1    26    27    1
     2    27    28    1
     3    27    18    1
     4    18    19   ar
     5    19    20   ar
     6    20    12    1
     7    12    13    1
     8    13    14    1
     9    14    15    1
    10    15     5    1
    11     5     6   ar
    12     6     7   ar
    13     7     8   ar
    14     8     1    1
    15     1     2    2
    16     1     3   am
    17     3    29    1
    18    29    40    1
    19    40    41    1
    20    41    42   ar
    21    42    43   ar
    22    43    44   ar
    23    44    45   ar
    24    45    46   ar
    25    46    47   ar
    26    47    48   ar
    27    48    49   ar
    28    29    30    1
    29    30    31    2
    30    30    32   am
    31    32    34    1
    32    34    35   ar
    33    35    36   ar
    34    36    37   ar
    35    37    38   ar
    36    38    39   ar
    37     8     9   ar
    38     9    10    1
    39     9    11   ar
    40    15    16    1
    41    16    17    1
    42    20    21   ar
    43    21    22   ar
    44    22    23    1
    45    22    24   ar
    46    24    25    1
    47    24    18   ar
    48    17    12    1
    49    11     5   ar
    50    49    41   ar
    51    39    34   ar
    52    49    44   ar
    53     3     4    1
    54    43    50    1
    55    32    33    1
@<TRIPOS>MOLECULE
*****
 50 55 0 0 0
SMALL
GASTEIGER

@<TRIPOS>ATOM
      1 C          -9.3316  -12.0886   30.5337 C.2     1  UNL1        0.2483
      2 O         -10.4624  -11.5721   30.3182 O.2     1  UNL1       -0.2701
      3 N          -8.6939  -11.8858   31.8044 N.am    1  UNL1       -0.2945
      4 H          -7.9645  -12.5709   32.1025 H       1  UNL1        0.1501
      5 C          -7.5539  -14.4207   27.3749 C.ar    1  UNL1        0.0502
      6 C          -8.9000  -14.5941   27.7279 C.ar    1  UNL1        0.0148
      7 C          -9.4634  -13.8393   28.7595 C.ar    1  UNL1        0.0080
      8 C          -8.6908  -12.9028   29.4695 C.ar    1  UNL1        0.0808
      9 C          -7.3358  -12.7314   29.1119 C.ar    1  UNL1        0.1457
     10 F          -6.5536  -11.8060   29.7210 F       1  UNL1       -0.2040
     11 C          -6.7791  -13.4864   28.0755 C.ar    1  UNL1        0.0443
     12 N          -5.8104  -16.1706   23.9823 N.pl3   1  UNL1       -0.3041
     13 C          -7.2175  -15.7565   23.9323 C.3     1  UNL1        0.1122
     14 C          -7.8362  -15.8547   25.3251 C.3     1  UNL1        0.1122
     15 N          -6.9703  -15.1859   26.3039 N.pl3   1  UNL1       -0.3040
     16 C          -5.5585  -15.5845   26.3570 C.3     1  UNL1        0.1122
     17 C          -4.9358  -15.5128   24.9605 C.3     1  UNL1        0.1122
     18 C          -5.5584  -18.5828   21.1074 C.ar    1  UNL1       -0.0099
     19 C          -6.0776  -17.8006   22.1586 C.ar    1  UNL1        0.0111
     20 C          -5.2523  -16.9592   22.9146 C.ar    1  UNL1        0.0485
     21 C          -3.8844  -16.9008   22.6253 C.ar    1  UNL1        0.0267
     22 C          -3.3436  -17.6675   21.5915 C.ar    1  UNL1        0.0691
     23 CL         -1.6159  -17.5439   21.2777 Cl      1  UNL1       -0.0813
     24 C          -4.1698  -18.5119   20.8259 C.ar    1  UNL1        0.0643
     25 CL         -3.4376  -19.4648   19.5298 Cl      1  UNL1       -0.0817
     26 C          -6.1932  -20.9641   20.5707 C.3     1  UNL1        0.0047
     27 C          -6.5010  -19.4834   20.3153 C.3     1  UNL1        0.0233
     28 C          -7.9683  -19.1635   20.6296 C.3     1  UNL1        0.0047
     29 C          -9.1161  -10.8223   32.7288 C.3     1  UNL1        0.1535
     30 C          -8.9431   -9.4529   32.1127 C.2     1  UNL1        0.2443
     31 O          -7.8607   -8.8230   32.2659 O.2     1  UNL1       -0.2730
     32 N          -9.9763   -8.9198   31.2688 N.am    1  UNL1       -0.2825
     33 H         -10.7081   -9.5799   30.9200 H       1  UNL1        0.1549
     34 C          -9.9979   -7.5688   30.7774 C.ar    1  UNL1        0.0535
     35 C          -8.8677   -6.9846   30.1803 C.ar    1  UNL1        0.0353
     36 C          -8.9289   -5.6603   29.7393 C.ar    1  UNL1        0.1002
     37 N         -10.0696   -4.9389   29.9004 N.ar    1  UNL1       -0.2422
     38 C         -11.1714   -5.4722   30.4911 C.ar    1  UNL1        0.1002
     39 C         -11.1524   -6.7923   30.9473 C.ar    1  UNL1        0.0353
     40 C         -10.5692  -11.0327   33.2104 C.3     1  UNL1        0.0569
     41 C         -10.8057  -12.3959   33.8032 C.ar    1  UNL1       -0.0017
     42 C         -10.1046  -12.9746   34.8577 C.ar    1  UNL1        0.0681
     43 N         -10.6309  -14.1800   35.1712 N.ar    1  UNL1       -0.3523
     44 C         -11.6556  -14.3705   34.3227 C.ar    1  UNL1        0.0563
     45 C         -12.5166  -15.4661   34.2727 C.ar    1  UNL1        0.0170
     46 C         -13.5384  -15.4565   33.3059 C.ar    1  UNL1        0.0015
     47 C         -13.6703  -14.3686   32.4156 C.ar    1  UNL1        0.0001
     48 C         -12.7846  -13.2784   32.4864 C.ar    1  UNL1        0.0012
     49 C         -11.7901  -13.3074   33.4662 C.ar    1  UNL1        0.0131
     50 H         -10.3085  -14.8251   35.9264 H       1  UNL1        0.1660
@<TRIPOS>BOND
     1    26    27    1
     2    27    28    1
     3    27    18    1
     4    18    19   ar
     5    19    20   ar
     6    20    12    1
     7    12    13    1
     8    13    14    1
     9    14    15    1
    10    15     5    1
    11     5     6   ar
    12     6     7   ar
    13     7     8   ar
    14     8     1    1
    15     1     2    2
    16     1     3   am
    17     3    29    1
    18    29    40    1
    19    40    41    1
    20    41    42   ar
    21    42    43   ar
    22    43    44   ar
    23    44    45   ar
    24    45    46   ar
    25    46    47   ar
    26    47    48   ar
    27    48    49   ar
    28    29    30    1
    29    30    31    2
    30    30    32   am
    31    32    34    1
    32    34    35   ar
    33    35    36   ar
    34    36    37   ar
    35    37    38   ar
    36    38    39   ar
    37     8     9   ar
    38     9    10    1
    39     9    11   ar
    40    15    16    1
    41    16    17    1
    42    20    21   ar
    43    21    22   ar
    44    22    23    1
    45    22    24   ar
    46    24    25    1
    47    24    18   ar
    48    17    12    1
    49    11     5   ar
    50    49    41   ar
    51    39    34   ar
    52    49    44   ar
    53     3     4    1
    54    43    50    1
    55    32    33    1
@<TRIPOS>MOLECULE
*****
 50 55 0 0 0
SMALL
GASTEIGER

@<TRIPOS>ATOM
      1 C          -9.5316  -11.9011   30.5290 C.2     1  UNL1        0.2483
      2 O          -9.1750  -11.9703   31.7374 O.2     1  UNL1       -0.2701
      3 N         -10.5605  -10.9742   30.1491 N.am    1  UNL1       -0.2945
      4 H         -10.6043  -10.6715   29.1507 H       1  UNL1        0.1501
      5 C          -7.6926  -14.4074   27.5434 C.ar    1  UNL1        0.0502
      6 C          -9.0548  -14.5354   27.8514 C.ar    1  UNL1        0.0148
      7 C          -9.6383  -13.7240   28.8274 C.ar    1  UNL1        0.0080
      8 C          -8.8708  -12.7749   29.5260 C.ar    1  UNL1        0.0808
      9 C          -7.4997  -12.6493   29.2139 C.ar    1  UNL1        0.1457
     10 F          -6.7192  -11.7157   29.8126 F       1  UNL1       -0.2040
     11 C          -6.9226  -13.4608   28.2329 C.ar    1  UNL1        0.0443
     12 N          -5.8891  -16.3457   24.2874 N.pl3   1  UNL1       -0.3041
     13 C          -7.3002  -15.9530   24.1959 C.3     1  UNL1        0.1122
     14 C          -7.9341  -15.9709   25.5852 C.3     1  UNL1        0.1122
     15 N          -7.0876  -15.2312   26.5293 N.pl3   1  UNL1       -0.3040
     16 C          -5.6720  -15.6082   26.6230 C.3     1  UNL1        0.1122
     17 C          -5.0338  -15.6169   25.2317 C.3     1  UNL1        0.1122
     18 C          -5.5928  -18.6854   21.3574 C.ar    1  UNL1       -0.0099
     19 C          -6.1332  -17.8510   22.3564 C.ar    1  UNL1        0.0111
     20 C          -5.3093  -17.1930   23.2778 C.ar    1  UNL1        0.0485
     21 C          -3.9234  -17.3747   23.2096 C.ar    1  UNL1        0.0267
     22 C          -3.3623  -18.1982   22.2319 C.ar    1  UNL1        0.0691
     23 CL         -1.6117  -18.3800   22.1993 Cl      1  UNL1       -0.0813
     24 C          -4.1859  -18.8587   21.3007 C.ar    1  UNL1        0.0643
     25 CL         -3.4283  -19.8928   20.0839 Cl      1  UNL1       -0.0817
     26 C          -6.3762  -20.9035   20.4473 C.3     1  UNL1        0.0047
     27 C          -6.5349  -19.3794   20.3787 C.3     1  UNL1        0.0233
     28 C          -7.9920  -18.9657   20.6235 C.3     1  UNL1        0.0047
     29 C         -11.4652  -10.3645   31.1359 C.3     1  UNL1        0.1535
     30 C         -11.9740  -11.3870   32.1260 C.2     1  UNL1        0.2443
     31 O         -12.4673  -11.0118   33.2249 O.2     1  UNL1       -0.2730
     32 N         -11.9868  -12.7775   31.7652 N.am    1  UNL1       -0.2825
     33 H         -11.8626  -13.0191   30.7557 H       1  UNL1        0.1549
     34 C         -12.2800  -13.8451   32.6826 C.ar    1  UNL1        0.0535
     35 C         -13.1311  -14.9062   32.3292 C.ar    1  UNL1        0.0353
     36 C         -13.4058  -15.9088   33.2627 C.ar    1  UNL1        0.1002
     37 N         -12.8642  -15.8494   34.5080 N.ar    1  UNL1       -0.2422
     38 C         -12.0528  -14.8255   34.8830 C.ar    1  UNL1        0.1002
     39 C         -11.7536  -13.8019   33.9808 C.ar    1  UNL1        0.0353
     40 C         -10.7952   -9.1766   31.8623 C.3     1  UNL1        0.0569
     41 C         -10.9724   -7.8660   31.1435 C.ar    1  UNL1       -0.0017
     42 C         -12.1763   -7.3062   30.7243 C.ar    1  UNL1        0.0681
     43 N         -11.9663   -6.0895   30.1732 N.ar    1  UNL1       -0.3523
     44 C         -10.6409   -5.8762   30.2367 C.ar    1  UNL1        0.0563
     45 C          -9.9471   -4.7452   29.8081 C.ar    1  UNL1        0.0170
     46 C          -8.5514   -4.7241   29.9818 C.ar    1  UNL1        0.0015
     47 C          -7.8868   -5.8246   30.5656 C.ar    1  UNL1        0.0001
     48 C          -8.6118   -6.9543   30.9851 C.ar    1  UNL1        0.0012
     49 C          -9.9977   -6.9410   30.8151 C.ar    1  UNL1        0.0131
     50 H         -12.6913   -5.4455   29.7859 H       1  UNL1        0.1660
@<TRIPOS>BOND
     1    26    27    1
     2    27    28    1
     3    27    18    1
     4    18    19   ar
     5    19    20   ar
     6    20    12    1
     7    12    13    1
     8    13    14    1
     9    14    15    1
    10    15     5    1
    11     5     6   ar
    12     6     7   ar
    13     7     8   ar
    14     8     1    1
    15     1     2    2
    16     1     3   am
    17     3    29    1
    18    29    40    1
    19    40    41    1
    20    41    42   ar
    21    42    43   ar
    22    43    44   ar
    23    44    45   ar
    24    45    46   ar
    25    46    47   ar
    26    47    48   ar
    27    48    49   ar
    28    29    30    1
    29    30    31    2
    30    30    32   am
    31    32    34    1
    32    34    35   ar
    33    35    36   ar
    34    36    37   ar
    35    37    38   ar
    36    38    39   ar
    37     8     9   ar
    38     9    10    1
    39     9    11   ar
    40    15    16    1
    41    16    17    1
    42    20    21   ar
    43    21    22   ar
    44    22    23    1
    45    22    24   ar
    46    24    25    1
    47    24    18   ar
    48    17    12    1
    49    11     5   ar
    50    49    41   ar
    51    39    34   ar
    52    49    44   ar
    53     3     4    1
    54    43    50    1
    55    32    33    1
@<TRIPOS>MOLECULE
*****
 50 55 0 0 0
SMALL
GASTEIGER

@<TRIPOS>ATOM
      1 C          -9.4525  -11.9777   30.4721 C.2     1  UNL1        0.2483
      2 O          -9.1069  -12.1135   31.6780 O.2     1  UNL1       -0.2701
      3 N         -10.4249  -10.9796   30.1251 N.am    1  UNL1       -0.2945
      4 H         -10.4460  -10.6368   29.1390 H       1  UNL1        0.1501
      5 C          -7.7447  -14.4705   27.3986 C.ar    1  UNL1        0.0502
      6 C          -9.1074  -14.5545   27.7194 C.ar    1  UNL1        0.0148
      7 C          -9.6483  -13.7482   28.7237 C.ar    1  UNL1        0.0080
      8 C          -8.8371  -12.8486   29.4382 C.ar    1  UNL1        0.0808
      9 C          -7.4656  -12.7672   29.1131 C.ar    1  UNL1        0.1457
     10 F          -6.6430  -11.8809   29.7272 F       1  UNL1       -0.2040
     11 C          -6.9311  -13.5733   28.1038 C.ar    1  UNL1        0.0443
     12 N          -6.1528  -16.4100   24.0348 N.pl3   1  UNL1       -0.3041
     13 C          -7.5979  -16.1631   24.1028 C.3     1  UNL1        0.1122
     14 C          -8.0552  -16.1618   25.5599 C.3     1  UNL1        0.1122
     15 N          -7.1833  -15.2890   26.3556 N.pl3   1  UNL1       -0.3040
     16 C          -5.7351  -15.5197   26.2884 C.3     1  UNL1        0.1122
     17 C          -5.2710  -15.5472   24.8300 C.3     1  UNL1        0.1122
     18 C          -3.7207  -17.9310   21.6019 C.ar    1  UNL1       -0.0099
     19 C          -4.2752  -17.1178   22.6106 C.ar    1  UNL1        0.0111
     20 C          -5.6132  -17.2541   23.0004 C.ar    1  UNL1        0.0485
     21 C          -6.4165  -18.2109   22.3699 C.ar    1  UNL1        0.0267
     22 C          -5.8933  -19.0272   21.3655 C.ar    1  UNL1        0.0691
     23 CL         -6.9569  -20.2130   20.6164 Cl      1  UNL1       -0.0813
     24 C          -4.5477  -18.8969   20.9728 C.ar    1  UNL1        0.0643
     25 CL         -3.9327  -19.9514   19.6947 Cl      1  UNL1       -0.0817
     26 C          -1.7704  -16.3319   21.5743 C.3     1  UNL1        0.0047
     27 C          -2.2576  -17.7411   21.2145 C.3     1  UNL1        0.0233
     28 C          -1.3693  -18.8127   21.8602 C.3     1  UNL1        0.0047
     29 C         -11.2988  -10.3577   31.1317 C.3     1  UNL1        0.1535
     30 C         -11.7746  -11.3674   32.1510 C.2     1  UNL1        0.2443
     31 O         -12.1098  -10.9888   33.3068 O.2     1  UNL1       -0.2730
     32 N         -11.9402  -12.7410   31.7638 N.am    1  UNL1       -0.2825
     33 H         -11.9497  -12.9604   30.7418 H       1  UNL1        0.1549
     34 C         -12.2143  -13.8101   32.6853 C.ar    1  UNL1        0.0535
     35 C         -13.0993  -14.8525   32.3609 C.ar    1  UNL1        0.0353
     36 C         -13.3530  -15.8572   33.2980 C.ar    1  UNL1        0.1002
     37 N         -12.7583  -15.8176   34.5196 N.ar    1  UNL1       -0.2422
     38 C         -11.9128  -14.8118   34.8672 C.ar    1  UNL1        0.1002
     39 C         -11.6328  -13.7868   33.9603 C.ar    1  UNL1        0.0353
     40 C         -10.6077   -9.1596   31.8207 C.3     1  UNL1        0.0569
     41 C         -10.9169   -7.8401   31.1657 C.ar    1  UNL1       -0.0017
     42 C         -12.1817   -7.3164   30.9120 C.ar    1  UNL1        0.0681
     43 N         -12.0830   -6.0800   30.3737 N.ar    1  UNL1       -0.3523
     44 C         -10.7680   -5.8185   30.2813 C.ar    1  UNL1        0.0563
     45 C         -10.1715   -4.6524   29.8032 C.ar    1  UNL1        0.0170
     46 C          -8.7666   -4.5828   29.8062 C.ar    1  UNL1        0.0015
     47 C          -7.9978   -5.6709   30.2738 C.ar    1  UNL1        0.0001
     48 C          -8.6264   -6.8366   30.7467 C.ar    1  UNL1        0.0012
     49 C         -10.0224   -6.8716   30.7471 C.ar    1  UNL1        0.0131
     50 H         -12.8719   -5.4549   30.0957 H       1  UNL1        0.1660
@<TRIPOS>BOND
     1    26    27    1
     2    27    28    1
     3    27    18    1
     4    18    19   ar
     5    19    20   ar
     6    20    12    1
     7    12    13    1
     8    13    14    1
     9    14    15    1
    10    15     5    1
    11     5     6   ar
    12     6     7   ar
    13     7     8   ar
    14     8     1    1
    15     1     2    2
    16     1     3   am
    17     3    29    1
    18    29    40    1
    19    40    41    1
    20    41    42   ar
    21    42    43   ar
    22    43    44   ar
    23    44    45   ar
    24    45    46   ar
    25    46    47   ar
    26    47    48   ar
    27    48    49   ar
    28    29    30    1
    29    30    31    2
    30    30    32   am
    31    32    34    1
    32    34    35   ar
    33    35    36   ar
    34    36    37   ar
    35    37    38   ar
    36    38    39   ar
    37     8     9   ar
    38     9    10    1
    39     9    11   ar
    40    15    16    1
    41    16    17    1
    42    20    21   ar
    43    21    22   ar
    44    22    23    1
    45    22    24   ar
    46    24    25    1
    47    24    18   ar
    48    17    12    1
    49    11     5   ar
    50    49    41   ar
    51    39    34   ar
    52    49    44   ar
    53     3     4    1
    54    43    50    1
    55    32    33    1
@<TRIPOS>MOLECULE
*****
 50 55 0 0 0
SMALL
GASTEIGER

@<TRIPOS>ATOM
      1 C          -9.0153  -11.7076   30.5713 C.2     1  UNL1        0.2483
      2 O          -9.5132  -10.6065   30.2082 O.2     1  UNL1       -0.2701
      3 N          -9.0197  -12.0588   31.9638 N.am    1  UNL1       -0.2945
      4 H          -8.9411  -13.0691   32.2155 H       1  UNL1        0.1501
      5 C          -7.4398  -14.3210   27.5275 C.ar    1  UNL1        0.0502
      6 C          -8.7880  -14.3890   27.9077 C.ar    1  UNL1        0.0148
      7 C          -9.2858  -13.5433   28.9019 C.ar    1  UNL1        0.0080
      8 C          -8.4445  -12.6191   29.5469 C.ar    1  UNL1        0.0808
      9 C          -7.0877  -12.5539   29.1621 C.ar    1  UNL1        0.1457
     10 F          -6.2393  -11.6470   29.7070 F       1  UNL1       -0.2040
     11 C          -6.5966  -13.3996   28.1632 C.ar    1  UNL1        0.0443
     12 N          -5.7624  -16.3627   24.2673 N.pl3   1  UNL1       -0.3041
     13 C          -7.0365  -15.6557   24.0917 C.3     1  UNL1        0.1122
     14 C          -7.8041  -15.6359   25.4119 C.3     1  UNL1        0.1122
     15 N          -6.9232  -15.1804   26.4942 N.pl3   1  UNL1       -0.3040
     16 C          -5.6416  -15.8733   26.6739 C.3     1  UNL1        0.1122
     17 C          -4.8754  -15.9199   25.3496 C.3     1  UNL1        0.1122
     18 C          -5.7262  -18.7095   21.3282 C.ar    1  UNL1       -0.0099
     19 C          -6.1747  -17.8477   22.3492 C.ar    1  UNL1        0.0111
     20 C          -5.2758  -17.2396   23.2340 C.ar    1  UNL1        0.0485
     21 C          -3.9067  -17.4997   23.1062 C.ar    1  UNL1        0.0267
     22 C          -3.4360  -18.3518   22.1057 C.ar    1  UNL1        0.0691
     23 CL         -1.7016  -18.6329   21.9978 Cl      1  UNL1       -0.0813
     24 C          -4.3352  -18.9625   21.2111 C.ar    1  UNL1        0.0643
     25 CL         -3.6907  -20.0356   19.9633 Cl      1  UNL1       -0.0817
     26 C          -6.5801  -20.8709   20.3479 C.3     1  UNL1        0.0047
     27 C          -6.7475  -19.3468   20.3913 C.3     1  UNL1        0.0233
     28 C          -8.1790  -18.9608   20.7863 C.3     1  UNL1        0.0047
     29 C          -9.2429  -11.0598   33.0202 C.3     1  UNL1        0.1535
     30 C          -8.4310   -9.8079   32.7783 C.2     1  UNL1        0.2443
     31 O          -9.0119   -8.7013   32.6061 O.2     1  UNL1       -0.2730
     32 N          -6.9974   -9.8685   32.8486 N.am    1  UNL1       -0.2825
     33 H          -6.5673  -10.7141   33.2876 H       1  UNL1        0.1549
     34 C          -6.1259   -8.7909   32.4658 C.ar    1  UNL1        0.0535
     35 C          -5.4187   -8.0414   33.4214 C.ar    1  UNL1        0.0353
     36 C          -4.6020   -6.9877   33.0034 C.ar    1  UNL1        0.1002
     37 N          -4.5045   -6.6818   31.6826 N.ar    1  UNL1       -0.2422
     38 C          -5.1913   -7.3776   30.7384 C.ar    1  UNL1        0.1002
     39 C          -6.0199   -8.4377   31.1136 C.ar    1  UNL1        0.0353
     40 C         -10.7432  -10.7246   33.1765 C.3     1  UNL1        0.0569
     41 C         -11.6498  -11.8009   32.6423 C.ar    1  UNL1       -0.0017
     42 C         -12.3734  -11.7612   31.4535 C.ar    1  UNL1        0.0681
     43 N         -13.0267  -12.9287   31.2577 N.ar    1  UNL1       -0.3523
     44 C         -12.7261  -13.7047   32.3130 C.ar    1  UNL1        0.0563
     45 C         -13.1517  -15.0117   32.5472 C.ar    1  UNL1        0.0170
     46 C         -12.7045  -15.6495   33.7185 C.ar    1  UNL1        0.0015
     47 C         -11.8584  -14.9719   34.6233 C.ar    1  UNL1        0.0001
     48 C         -11.4482  -13.6521   34.3632 C.ar    1  UNL1        0.0012
     49 C         -11.8943  -13.0495   33.1852 C.ar    1  UNL1        0.0131
     50 H         -13.6339  -13.1761   30.4450 H       1  UNL1        0.1660
@<TRIPOS>BOND
     1    26    27    1
     2    27    28    1
     3    27    18    1
     4    18    19   ar
     5    19    20   ar
     6    20    12    1
     7    12    13    1
     8    13    14    1
     9    14    15    1
    10    15     5    1
    11     5     6   ar
    12     6     7   ar
    13     7     8   ar
    14     8     1    1
    15     1     2    2
    16     1     3   am
    17     3    29    1
    18    29    40    1
    19    40    41    1
    20    41    42   ar
    21    42    43   ar
    22    43    44   ar
    23    44    45   ar
    24    45    46   ar
    25    46    47   ar
    26    47    48   ar
    27    48    49   ar
    28    29    30    1
    29    30    31    2
    30    30    32   am
    31    32    34    1
    32    34    35   ar
    33    35    36   ar
    34    36    37   ar
    35    37    38   ar
    36    38    39   ar
    37     8     9   ar
    38     9    10    1
    39     9    11   ar
    40    15    16    1
    41    16    17    1
    42    20    21   ar
    43    21    22   ar
    44    22    23    1
    45    22    24   ar
    46    24    25    1
    47    24    18   ar
    48    17    12    1
    49    11     5   ar
    50    49    41   ar
    51    39    34   ar
    52    49    44   ar
    53     3     4    1
    54    43    50    1
    55    32    33    1
@<TRIPOS>MOLECULE
*****
 50 55 0 0 0
SMALL
GASTEIGER

@<TRIPOS>ATOM
      1 C          -8.2579  -11.5570   30.7496 C.2     1  UNL1        0.2483
      2 O          -7.9954  -10.3342   30.5822 O.2     1  UNL1       -0.2701
      3 N          -8.6801  -12.0174   32.0427 N.am    1  UNL1       -0.2945
      4 H          -9.2167  -12.9117   32.0942 H       1  UNL1        0.1501
      5 C          -7.8085  -14.3159   27.4688 C.ar    1  UNL1        0.0502
      6 C          -6.7161  -13.5733   27.9400 C.ar    1  UNL1        0.0148
      7 C          -6.8753  -12.6751   28.9980 C.ar    1  UNL1        0.0080
      8 C          -8.1324  -12.4901   29.6008 C.ar    1  UNL1        0.0808
      9 C          -9.2300  -13.2389   29.1235 C.ar    1  UNL1        0.1457
     10 F         -10.4547  -13.1465   29.6985 F       1  UNL1       -0.2040
     11 C          -9.0634  -14.1396   28.0675 C.ar    1  UNL1        0.0443
     12 N          -7.5749  -16.6611   23.9965 N.pl3   1  UNL1       -0.3041
     13 C          -8.8720  -16.4934   24.6623 C.3     1  UNL1        0.1122
     14 C          -8.6624  -16.2905   26.1614 C.3     1  UNL1        0.1122
     15 N          -7.6487  -15.2531   26.3874 N.pl3   1  UNL1       -0.3040
     16 C          -6.3505  -15.4045   25.7192 C.3     1  UNL1        0.1122
     17 C          -6.5513  -15.6329   24.2190 C.3     1  UNL1        0.1122
     18 C          -8.4473  -19.1329   21.2990 C.ar    1  UNL1       -0.0099
     19 C          -8.5617  -18.1895   22.3399 C.ar    1  UNL1        0.0111
     20 C          -7.4279  -17.6234   22.9355 C.ar    1  UNL1        0.0485
     21 C          -6.1572  -18.0085   22.4935 C.ar    1  UNL1        0.0267
     22 C          -6.0155  -18.9433   21.4664 C.ar    1  UNL1        0.0691
     23 CL         -4.3887  -19.3806   20.9556 Cl      1  UNL1       -0.0813
     24 C          -7.1522  -19.5124   20.8615 C.ar    1  UNL1        0.0643
     25 CL         -6.9209  -20.6935   19.5672 Cl      1  UNL1       -0.0817
     26 C         -10.8449  -19.7940   21.7190 C.3     1  UNL1        0.0047
     27 C          -9.7144  -19.7196   20.6849 C.3     1  UNL1        0.0233
     28 C         -10.1509  -18.9239   19.4478 C.3     1  UNL1        0.0047
     29 C          -8.4785  -11.2173   33.2604 C.3     1  UNL1        0.1535
     30 C          -7.8187   -9.8933   32.9496 C.2     1  UNL1        0.2443
     31 O          -8.4923   -8.8272   32.9868 O.2     1  UNL1       -0.2730
     32 N          -6.4023   -9.8455   32.7139 N.am    1  UNL1       -0.2825
     33 H          -5.8353  -10.6798   32.9882 H       1  UNL1        0.1549
     34 C          -5.7034   -8.6818   32.2401 C.ar    1  UNL1        0.0535
     35 C          -5.6163   -8.3828   30.8696 C.ar    1  UNL1        0.0353
     36 C          -4.9059   -7.2535   30.4549 C.ar    1  UNL1        0.1002
     37 N          -4.2919   -6.4586   31.3708 N.ar    1  UNL1       -0.2422
     38 C          -4.3438   -6.7339   32.7008 C.ar    1  UNL1        0.1002
     39 C          -5.0425   -7.8539   33.1578 C.ar    1  UNL1        0.0353
     40 C          -9.8031  -11.0085   34.0282 C.3     1  UNL1        0.0569
     41 C         -10.9892  -11.6351   33.3453 C.ar    1  UNL1       -0.0017
     42 C         -11.7213  -11.0934   32.2922 C.ar    1  UNL1        0.0681
     43 N         -12.6753  -11.9603   31.8837 N.ar    1  UNL1       -0.3523
     44 C         -12.5557  -13.0430   32.6707 C.ar    1  UNL1        0.0563
     45 C         -13.3115  -14.2134   32.6156 C.ar    1  UNL1        0.0170
     46 C         -13.0087  -15.2363   33.5326 C.ar    1  UNL1        0.0015
     47 C         -11.9746  -15.0653   34.4787 C.ar    1  UNL1        0.0001
     48 C         -11.2310  -13.8722   34.5139 C.ar    1  UNL1        0.0012
     49 C         -11.5428  -12.8805   33.5815 C.ar    1  UNL1        0.0131
     50 H         -13.3588  -11.8166   31.1074 H       1  UNL1        0.1660
@<TRIPOS>BOND
     1    26    27    1
     2    27    28    1
     3    27    18    1
     4    18    19   ar
     5    19    20   ar
     6    20    12    1
     7    12    13    1
     8    13    14    1
     9    14    15    1
    10    15     5    1
    11     5     6   ar
    12     6     7   ar
    13     7     8   ar
    14     8     1    1
    15     1     2    2
    16     1     3   am
    17     3    29    1
    18    29    40    1
    19    40    41    1
    20    41    42   ar
    21    42    43   ar
    22    43    44   ar
    23    44    45   ar
    24    45    46   ar
    25    46    47   ar
    26    47    48   ar
    27    48    49   ar
    28    29    30    1
    29    30    31    2
    30    30    32   am
    31    32    34    1
    32    34    35   ar
    33    35    36   ar
    34    36    37   ar
    35    37    38   ar
    36    38    39   ar
    37     8     9   ar
    38     9    10    1
    39     9    11   ar
    40    15    16    1
    41    16    17    1
    42    20    21   ar
    43    21    22   ar
    44    22    23    1
    45    22    24   ar
    46    24    25    1
    47    24    18   ar
    48    17    12    1
    49    11     5   ar
    50    49    41   ar
    51    39    34   ar
    52    49    44   ar
    53     3     4    1
    54    43    50    1
    55    32    33    1
@<TRIPOS>MOLECULE
*****
 50 55 0 0 0
SMALL
GASTEIGER

@<TRIPOS>ATOM
      1 C          -7.6473  -11.7452   30.6473 C.2     1  UNL1        0.2483
      2 O          -6.5157  -11.3513   31.0426 O.2     1  UNL1       -0.2701
      3 N          -8.8288  -11.2916   31.3260 N.am    1  UNL1       -0.2945
      4 H          -9.7352  -11.3240   30.8085 H       1  UNL1        0.1501
      5 C          -7.8016  -14.4652   27.3075 C.ar    1  UNL1        0.0502
      6 C          -6.6075  -13.8159   27.6528 C.ar    1  UNL1        0.0148
      7 C          -6.5712  -12.9292   28.7316 C.ar    1  UNL1        0.0080
      8 C          -7.7304  -12.6624   29.4820 C.ar    1  UNL1        0.0808
      9 C          -8.9308  -13.3174   29.1312 C.ar    1  UNL1        0.1457
     10 F         -10.0684  -13.1448   29.8491 F       1  UNL1       -0.2040
     11 C          -8.9597  -14.2072   28.0534 C.ar    1  UNL1        0.0443
     12 N          -8.2665  -16.8021   23.8529 N.pl3   1  UNL1       -0.3041
     13 C          -9.3526  -16.7563   24.8388 C.3     1  UNL1        0.1122
     14 C          -8.7765  -16.5230   26.2338 C.3     1  UNL1        0.1122
     15 N          -7.8431  -15.3904   26.2050 N.pl3   1  UNL1       -0.3040
     16 C          -6.7580  -15.4199   25.2167 C.3     1  UNL1        0.1122
     17 C          -7.3236  -15.6778   23.8178 C.3     1  UNL1        0.1122
     18 C          -7.1728  -18.9572   20.9707 C.ar    1  UNL1       -0.0099
     19 C          -7.1568  -18.0302   22.0323 C.ar    1  UNL1        0.0111
     20 C          -8.3125  -17.7533   22.7729 C.ar    1  UNL1        0.0485
     21 C          -9.5077  -18.4040   22.4466 C.ar    1  UNL1        0.0267
     22 C          -9.5520  -19.3243   21.3978 C.ar    1  UNL1        0.0691
     23 CL        -11.0865  -20.1103   21.0425 Cl      1  UNL1       -0.0813
     24 C          -8.3920  -19.6093   20.6528 C.ar    1  UNL1        0.0643
     25 CL         -8.4995  -20.7796   19.3327 Cl      1  UNL1       -0.0817
     26 C          -4.9487  -18.0091   20.2525 C.3     1  UNL1        0.0047
     27 C          -5.8860  -19.2218   20.1954 C.3     1  UNL1        0.0233
     28 C          -5.1821  -20.4866   20.7043 C.3     1  UNL1        0.0047
     29 C          -8.7760  -10.6875   32.6661 C.3     1  UNL1        0.1535
     30 C          -7.9540   -9.4189   32.6692 C.2     1  UNL1        0.2443
     31 O          -8.5257   -8.2952   32.6225 O.2     1  UNL1       -0.2730
     32 N          -6.5286   -9.4987   32.8292 N.am    1  UNL1       -0.2825
     33 H          -6.1270  -10.4027   33.1672 H       1  UNL1        0.1549
     34 C          -5.6366   -8.3821   32.6716 C.ar    1  UNL1        0.0535
     35 C          -4.7717   -7.9796   33.7036 C.ar    1  UNL1        0.0353
     36 C          -3.9398   -6.8734   33.5128 C.ar    1  UNL1        0.1002
     37 N          -3.9783   -6.1838   32.3421 N.ar    1  UNL1       -0.2422
     38 C          -4.8181   -6.5391   31.3342 C.ar    1  UNL1        0.1002
     39 C          -5.6673   -7.6381   31.4841 C.ar    1  UNL1        0.0353
     40 C         -10.1919  -10.4306   33.2291 C.3     1  UNL1        0.0569
     41 C         -11.2142  -11.4194   32.7363 C.ar    1  UNL1       -0.0017
     42 C         -12.0338  -11.2779   31.6197 C.ar    1  UNL1        0.0681
     43 N         -12.7814  -12.3897   31.4372 N.ar    1  UNL1       -0.3523
     44 C         -12.4449  -13.2312   32.4296 C.ar    1  UNL1        0.0563
     45 C         -12.9385  -14.5166   32.6492 C.ar    1  UNL1        0.0170
     46 C         -12.4367  -15.2353   33.7494 C.ar    1  UNL1        0.0015
     47 C         -11.4701  -14.6568   34.6006 C.ar    1  UNL1        0.0001
     48 C         -10.9931  -13.3564   34.3573 C.ar    1  UNL1        0.0012
     49 C         -11.4969  -12.6726   33.2490 C.ar    1  UNL1        0.0131
     50 H         -13.4726  -12.5592   30.6731 H       1  UNL1        0.1660
@<TRIPOS>BOND
     1    26    27    1
     2    27    28    1
     3    27    18    1
     4    18    19   ar
     5    19    20   ar
     6    20    12    1
     7    12    13    1
     8    13    14    1
     9    14    15    1
    10    15     5    1
    11     5     6   ar
    12     6     7   ar
    13     7     8   ar
    14     8     1    1
    15     1     2    2
    16     1     3   am
    17     3    29    1
    18    29    40    1
    19    40    41    1
    20    41    42   ar
    21    42    43   ar
    22    43    44   ar
    23    44    45   ar
    24    45    46   ar
    25    46    47   ar
    26    47    48   ar
    27    48    49   ar
    28    29    30    1
    29    30    31    2
    30    30    32   am
    31    32    34    1
    32    34    35   ar
    33    35    36   ar
    34    36    37   ar
    35    37    38   ar
    36    38    39   ar
    37     8     9   ar
    38     9    10    1
    39     9    11   ar
    40    15    16    1
    41    16    17    1
    42    20    21   ar
    43    21    22   ar
    44    22    23    1
    45    22    24   ar
    46    24    25    1
    47    24    18   ar
    48    17    12    1
    49    11     5   ar
    50    49    41   ar
    51    39    34   ar
    52    49    44   ar
    53     3     4    1
    54    43    50    1
    55    32    33    1
@<TRIPOS>MOLECULE
*****
 50 55 0 0 0
SMALL
GASTEIGER

@<TRIPOS>ATOM
      1 C          -8.7311  -11.6300   30.6858 C.2     1  UNL1        0.2483
      2 O          -8.2425  -11.8189   31.8337 O.2     1  UNL1       -0.2701
      3 N          -9.6821  -10.5721   30.4893 N.am    1  UNL1       -0.2945
      4 H          -9.8097  -10.2002   29.5220 H       1  UNL1        0.1501
      5 C          -7.4017  -14.1950   27.4873 C.ar    1  UNL1        0.0502
      6 C          -6.5312  -13.2646   28.0734 C.ar    1  UNL1        0.0148
      7 C          -6.9754  -12.4319   29.1032 C.ar    1  UNL1        0.0080
      8 C          -8.3030  -12.5020   29.5622 C.ar    1  UNL1        0.0808
      9 C          -9.1767  -13.4393   28.9695 C.ar    1  UNL1        0.1457
     10 F         -10.4518  -13.5935   29.4048 F       1  UNL1       -0.2040
     11 C          -8.7249  -14.2731   27.9425 C.ar    1  UNL1        0.0443
     12 N          -6.0949  -16.2865   24.0918 N.pl3   1  UNL1       -0.3041
     13 C          -7.5114  -15.9205   24.2071 C.3     1  UNL1        0.1122
     14 C          -7.9151  -15.8697   25.6792 C.3     1  UNL1        0.1122
     15 N          -6.9468  -15.0655   26.4345 N.pl3   1  UNL1       -0.3040
     16 C          -5.5258  -15.4155   26.3197 C.3     1  UNL1        0.1122
     17 C          -5.1175  -15.4930   24.8465 C.3     1  UNL1        0.1122
     18 C          -3.8904  -18.0045   21.5747 C.ar    1  UNL1       -0.0099
     19 C          -4.3400  -17.1406   22.5935 C.ar    1  UNL1        0.0111
     20 C          -5.6635  -17.1805   23.0487 C.ar    1  UNL1        0.0485
     21 C          -6.5584  -18.0904   22.4747 C.ar    1  UNL1        0.0267
     22 C          -6.1400  -18.9552   21.4618 C.ar    1  UNL1        0.0691
     23 CL         -7.3153  -20.0779   20.7858 Cl      1  UNL1       -0.0813
     24 C          -4.8094  -18.9219   21.0034 C.ar    1  UNL1        0.0643
     25 CL         -4.3288  -20.0347   19.7171 Cl      1  UNL1       -0.0817
     26 C          -1.8299  -16.5544   21.4598 C.3     1  UNL1        0.0047
     27 C          -2.4384  -17.9195   21.1149 C.3     1  UNL1        0.0233
     28 C          -1.6015  -19.0612   21.7069 C.3     1  UNL1        0.0047
     29 C         -10.3836   -9.9341   31.6138 C.3     1  UNL1        0.1535
     30 C         -11.1567  -10.9453   32.4290 C.2     1  UNL1        0.2443
     31 O         -11.8899  -10.5618   33.3815 O.2     1  UNL1       -0.2730
     32 N         -11.1321  -12.3303   32.0481 N.am    1  UNL1       -0.2825
     33 H         -10.7736  -12.5662   31.0949 H       1  UNL1        0.1549
     34 C         -11.6802  -13.3945   32.8445 C.ar    1  UNL1        0.0535
     35 C         -11.2684  -13.6083   34.1711 C.ar    1  UNL1        0.0353
     36 C         -11.8118  -14.6704   34.8982 C.ar    1  UNL1        0.1002
     37 N         -12.7217  -15.4987   34.3206 N.ar    1  UNL1       -0.2422
     38 C         -13.1243  -15.3269   33.0338 C.ar    1  UNL1        0.1002
     39 C         -12.6049  -14.2781   32.2711 C.ar    1  UNL1        0.0353
     40 C          -9.4116   -9.1304   32.5067 C.3     1  UNL1        0.0569
     41 C          -8.7759   -7.9672   31.7935 C.ar    1  UNL1       -0.0017
     42 C          -7.4142   -7.7671   31.5835 C.ar    1  UNL1        0.0681
     43 N          -7.2075   -6.6518   30.8475 N.ar    1  UNL1       -0.3523
     44 C          -8.4252   -6.1429   30.5935 C.ar    1  UNL1        0.0563
     45 C          -8.7241   -5.0023   29.8493 C.ar    1  UNL1        0.0170
     46 C         -10.0780   -4.6526   29.6959 C.ar    1  UNL1        0.0015
     47 C         -11.0908   -5.4370   30.2896 C.ar    1  UNL1        0.0001
     48 C         -10.7597   -6.5804   31.0385 C.ar    1  UNL1        0.0012
     49 C          -9.4089   -6.9126   31.1607 C.ar    1  UNL1        0.0131
     50 H          -6.2867   -6.2714   30.5348 H       1  UNL1        0.1660
@<TRIPOS>BOND
     1    26    27    1
     2    27    28    1
     3    27    18    1
     4    18    19   ar
     5    19    20   ar
     6    20    12    1
     7    12    13    1
     8    13    14    1
     9    14    15    1
    10    15     5    1
    11     5     6   ar
    12     6     7   ar
    13     7     8   ar
    14     8     1    1
    15     1     2    2
    16     1     3   am
    17     3    29    1
    18    29    40    1
    19    40    41    1
    20    41    42   ar
    21    42    43   ar
    22    43    44   ar
    23    44    45   ar
    24    45    46   ar
    25    46    47   ar
    26    47    48   ar
    27    48    49   ar
    28    29    30    1
    29    30    31    2
    30    30    32   am
    31    32    34    1
    32    34    35   ar
    33    35    36   ar
    34    36    37   ar
    35    37    38   ar
    36    38    39   ar
    37     8     9   ar
    38     9    10    1
    39     9    11   ar
    40    15    16    1
    41    16    17    1
    42    20    21   ar
    43    21    22   ar
    44    22    23    1
    45    22    24   ar
    46    24    25    1
    47    24    18   ar
    48    17    12    1
    49    11     5   ar
    50    49    41   ar
    51    39    34   ar
    52    49    44   ar
    53     3     4    1
    54    43    50    1
    55    32    33    1
