@<TRIPOS>MOLECULE
*****
 35 38 0 0 0
SMALL
GASTEIGER

@<TRIPOS>ATOM
      1 N         -29.1175   47.4224   -6.0032 N.am    1  UNL1       -0.2685
      2 C         -28.1664   47.0063   -7.0018 C.2     1  UNL1        0.2676
      3 O         -28.1888   45.8256   -7.4399 O.2     1  UNL1       -0.2682
      4 C         -27.1419   47.9475   -7.4818 C.ar    1  UNL1        0.1400
      5 N         -26.3283   48.5199   -6.5556 N.ar    1  UNL1       -0.2388
      6 C         -25.3951   49.4473   -6.8772 C.ar    1  UNL1        0.0990
      7 C         -25.2514   49.8655   -8.2015 C.ar    1  UNL1        0.0196
      8 C         -24.3118   50.8531   -8.5338 C.ar    1  UNL1        0.0016
      9 C         -24.1852   51.2834   -9.8546 C.ar    1  UNL1        0.0000
     10 C         -24.9898   50.7301  -10.8504 C.ar    1  UNL1        0.0000
     11 C         -25.9283   49.7442  -10.5331 C.ar    1  UNL1        0.0005
     12 C         -26.0775   49.2976   -9.2037 C.ar    1  UNL1        0.0085
     13 C         -27.0367   48.3209   -8.8408 C.ar    1  UNL1        0.0522
     14 I         -28.4070   47.5168  -10.2767 I       1  UNL1       -0.0408
     15 C         -30.2528   47.3911   -3.7991 C.3     1  UNL1        0.0265
     16 C         -29.1960   46.7335   -4.7010 C.3     1  UNL1        0.1007
     17 C         -27.8167   46.6174   -4.0658 C.ar    1  UNL1        0.0234
     18 C         -27.1879   47.7125   -3.4349 C.ar    1  UNL1        0.0019
     19 C         -25.9058   47.5813   -2.8939 C.ar    1  UNL1        0.0295
     20 C         -25.2282   46.3646   -2.9821 C.ar    1  UNL1        0.1424
     21 F         -23.9838   46.2415   -2.4581 F       1  UNL1       -0.2041
     22 C         -25.8294   45.2768   -3.6172 C.ar    1  UNL1        0.0590
     23 C         -27.1117   45.3993   -4.1616 C.ar    1  UNL1        0.1399
     24 F         -27.6633   44.3265   -4.7835 F       1  UNL1       -0.2044
     25 C         -30.0621   48.5025   -6.3317 C.3     1  UNL1        0.1207
     26 C         -29.3437   49.8179   -6.4764 C.ar    1  UNL1       -0.0021
     27 C         -28.7867   50.4404   -5.3504 C.ar    1  UNL1       -0.0026
     28 C         -28.0487   51.6169   -5.4910 C.ar    1  UNL1       -0.0001
     29 C         -27.8508   52.1763   -6.7559 C.ar    1  UNL1        0.0064
     30 C         -28.4017   51.5672   -7.8973 C.ar    1  UNL1        0.0752
     31 C         -29.1626   50.3951   -7.7450 C.ar    1  UNL1        0.0038
     32 C         -28.1571   52.1278   -9.2445 C.2     1  UNL1        0.3380
     33 O         -28.9380   51.8628  -10.1981 O.2     1  UNL1       -0.2451
     34 O         -27.0675   52.9654   -9.4689 O.3     1  UNL1       -0.4771
     35 H         -26.9003   53.3681  -10.3832 H       1  UNL1        0.2954
@<TRIPOS>BOND
     1    15    16    1
     2    16    17    1
     3    17    18   ar
     4    18    19   ar
     5    19    20   ar
     6    20    21    1
     7    20    22   ar
     8    22    23   ar
     9    23    24    1
    10    16     1    1
    11     1    25    1
    12    25    26    1
    13    26    27   ar
    14    27    28   ar
    15    28    29   ar
    16    29    30   ar
    17    30    32    1
    18    32    33    2
    19    32    34    1
    20    30    31   ar
    21     1     2   am
    22     2     3    2
    23     2     4    1
    24     4     5   ar
    25     5     6   ar
    26     6     7   ar
    27     7     8   ar
    28     8     9   ar
    29     9    10   ar
    30    10    11   ar
    31    11    12   ar
    32    12    13   ar
    33    13    14    1
    34    23    17   ar
    35    31    26   ar
    36    13     4   ar
    37    12     7   ar
    38    34    35    1
@<TRIPOS>MOLECULE
*****
 35 38 0 0 0
SMALL
GASTEIGER

@<TRIPOS>ATOM
      1 N         -29.8869   47.6343   -5.6761 N.am    1  UNL1       -0.2685
      2 C         -29.5446   47.8339   -7.0609 C.2     1  UNL1        0.2676
      3 O         -30.3321   47.4505   -7.9662 O.2     1  UNL1       -0.2682
      4 C         -28.2568   48.4488   -7.4209 C.ar    1  UNL1        0.1400
      5 N         -27.1313   47.9234   -6.8691 N.ar    1  UNL1       -0.2388
      6 C         -25.9012   48.4496   -7.0792 C.ar    1  UNL1        0.0990
      7 C         -25.7531   49.5872   -7.8750 C.ar    1  UNL1        0.0196
      8 C         -24.4856   50.1578   -8.0652 C.ar    1  UNL1        0.0016
      9 C         -24.3441   51.3063   -8.8441 C.ar    1  UNL1        0.0000
     10 C         -25.4623   51.8891   -9.4399 C.ar    1  UNL1        0.0000
     11 C         -26.7304   51.3295   -9.2601 C.ar    1  UNL1        0.0005
     12 C         -26.8981   50.1718   -8.4724 C.ar    1  UNL1        0.0085
     13 C         -28.1707   49.5934   -8.2454 C.ar    1  UNL1        0.0522
     14 I         -29.9573   50.4970   -9.0054 I       1  UNL1       -0.0408
     15 C         -31.5839   46.1657   -4.6217 C.3     1  UNL1        0.0265
     16 C         -30.1446   46.2807   -5.1490 C.3     1  UNL1        0.1007
     17 C         -29.0756   45.8793   -4.1413 C.ar    1  UNL1        0.0234
     18 C         -29.2924   45.9560   -2.7486 C.ar    1  UNL1        0.0019
     19 C         -28.2769   45.6143   -1.8510 C.ar    1  UNL1        0.0295
     20 C         -27.0306   45.2028   -2.3250 C.ar    1  UNL1        0.1424
     21 F         -26.0472   44.8742   -1.4514 F       1  UNL1       -0.2041
     22 C         -26.7948   45.1373   -3.6991 C.ar    1  UNL1        0.0590
     23 C         -27.8050   45.4777   -4.6043 C.ar    1  UNL1        0.1399
     24 F         -27.5398   45.4153   -5.9339 F       1  UNL1       -0.2044
     25 C         -30.0473   48.8133   -4.8094 C.3     1  UNL1        0.1207
     26 C         -28.7258   49.5005   -4.5887 C.ar    1  UNL1       -0.0021
     27 C         -28.4514   50.7160   -5.2314 C.ar    1  UNL1       -0.0026
     28 C         -27.2630   51.3984   -4.9662 C.ar    1  UNL1       -0.0001
     29 C         -26.3436   50.8805   -4.0505 C.ar    1  UNL1        0.0064
     30 C         -26.6004   49.6627   -3.3960 C.ar    1  UNL1        0.0752
     31 C         -27.7890   48.9701   -3.6852 C.ar    1  UNL1        0.0038
     32 C         -25.6537   49.1318   -2.3905 C.2     1  UNL1        0.3380
     33 O         -25.1205   49.9014   -1.5462 O.2     1  UNL1       -0.2451
     34 O         -25.3526   47.7726   -2.3590 O.3     1  UNL1       -0.4771
     35 H         -24.7189   47.3959   -1.6643 H       1  UNL1        0.2954
@<TRIPOS>BOND
     1    15    16    1
     2    16    17    1
     3    17    18   ar
     4    18    19   ar
     5    19    20   ar
     6    20    21    1
     7    20    22   ar
     8    22    23   ar
     9    23    24    1
    10    16     1    1
    11     1    25    1
    12    25    26    1
    13    26    27   ar
    14    27    28   ar
    15    28    29   ar
    16    29    30   ar
    17    30    32    1
    18    32    33    2
    19    32    34    1
    20    30    31   ar
    21     1     2   am
    22     2     3    2
    23     2     4    1
    24     4     5   ar
    25     5     6   ar
    26     6     7   ar
    27     7     8   ar
    28     8     9   ar
    29     9    10   ar
    30    10    11   ar
    31    11    12   ar
    32    12    13   ar
    33    13    14    1
    34    23    17   ar
    35    31    26   ar
    36    13     4   ar
    37    12     7   ar
    38    34    35    1
@<TRIPOS>MOLECULE
*****
 35 38 0 0 0
SMALL
GASTEIGER

@<TRIPOS>ATOM
      1 N         -29.7307   47.0286   -6.8814 N.am    1  UNL1       -0.2685
      2 C         -28.5945   46.7287   -7.7145 C.2     1  UNL1        0.2676
      3 O         -28.4414   45.5671   -8.1768 O.2     1  UNL1       -0.2682
      4 C         -27.5899   47.7675   -7.9933 C.ar    1  UNL1        0.1400
      5 N         -26.6023   47.9512   -7.0777 N.ar    1  UNL1       -0.2388
      6 C         -25.6642   48.9203   -7.2003 C.ar    1  UNL1        0.0990
      7 C         -25.6970   49.7922   -8.2903 C.ar    1  UNL1        0.0196
      8 C         -24.7498   50.8211   -8.4024 C.ar    1  UNL1        0.0016
      9 C         -24.7980   51.7032   -9.4819 C.ar    1  UNL1        0.0000
     10 C         -25.7861   51.5626  -10.4560 C.ar    1  UNL1        0.0000
     11 C         -26.7345   50.5407  -10.3574 C.ar    1  UNL1        0.0005
     12 C         -26.7084   49.6406   -9.2719 C.ar    1  UNL1        0.0085
     13 C         -27.6694   48.6108   -9.1245 C.ar    1  UNL1        0.0522
     14 I         -29.3017   48.4048  -10.4955 I       1  UNL1       -0.0408
     15 C         -31.4695   46.1094   -5.3717 C.3     1  UNL1        0.0265
     16 C         -29.9643   46.2879   -5.6271 C.3     1  UNL1        0.1007
     17 C         -29.2055   46.9268   -4.4715 C.ar    1  UNL1        0.0234
     18 C         -29.7924   47.9043   -3.6392 C.ar    1  UNL1        0.0019
     19 C         -29.0557   48.4971   -2.6099 C.ar    1  UNL1        0.0295
     20 C         -27.7245   48.1345   -2.4010 C.ar    1  UNL1        0.1424
     21 F         -27.0123   48.7131   -1.4029 F       1  UNL1       -0.2041
     22 C         -27.1245   47.1814   -3.2255 C.ar    1  UNL1        0.0590
     23 C         -27.8540   46.5836   -4.2581 C.ar    1  UNL1        0.1399
     24 F         -27.2378   45.6696   -5.0498 F       1  UNL1       -0.2044
     25 C         -30.6975   48.0395   -7.3398 C.3     1  UNL1        0.1207
     26 C         -30.5208   49.3313   -6.5867 C.ar    1  UNL1       -0.0021
     27 C         -31.5834   49.8583   -5.8390 C.ar    1  UNL1       -0.0026
     28 C         -31.3999   51.0105   -5.0728 C.ar    1  UNL1       -0.0001
     29 C         -30.1533   51.6405   -5.0370 C.ar    1  UNL1        0.0064
     30 C         -29.0754   51.1275   -5.7802 C.ar    1  UNL1        0.0752
     31 C         -29.2741   49.9798   -6.5671 C.ar    1  UNL1        0.0038
     32 C         -27.7405   51.7619   -5.7103 C.2     1  UNL1        0.3380
     33 O         -26.8634   51.3191   -4.9204 O.2     1  UNL1       -0.2451
     34 O         -27.4359   52.8476   -6.5274 O.3     1  UNL1       -0.4771
     35 H         -26.5197   53.2788   -6.4998 H       1  UNL1        0.2954
@<TRIPOS>BOND
     1    15    16    1
     2    16    17    1
     3    17    18   ar
     4    18    19   ar
     5    19    20   ar
     6    20    21    1
     7    20    22   ar
     8    22    23   ar
     9    23    24    1
    10    16     1    1
    11     1    25    1
    12    25    26    1
    13    26    27   ar
    14    27    28   ar
    15    28    29   ar
    16    29    30   ar
    17    30    32    1
    18    32    33    2
    19    32    34    1
    20    30    31   ar
    21     1     2   am
    22     2     3    2
    23     2     4    1
    24     4     5   ar
    25     5     6   ar
    26     6     7   ar
    27     7     8   ar
    28     8     9   ar
    29     9    10   ar
    30    10    11   ar
    31    11    12   ar
    32    12    13   ar
    33    13    14    1
    34    23    17   ar
    35    31    26   ar
    36    13     4   ar
    37    12     7   ar
    38    34    35    1
@<TRIPOS>MOLECULE
*****
 35 38 0 0 0
SMALL
GASTEIGER

@<TRIPOS>ATOM
      1 N         -29.0526   50.1629   -4.6252 N.am    1  UNL1       -0.2685
      2 C         -29.9517   49.0476   -4.4748 C.2     1  UNL1        0.2676
      3 O         -30.4229   48.4764   -5.4938 O.2     1  UNL1       -0.2682
      4 C         -30.3530   48.5999   -3.1315 C.ar    1  UNL1        0.1400
      5 N         -30.6438   49.5552   -2.2094 N.ar    1  UNL1       -0.2388
      6 C         -30.9610   49.2589   -0.9265 C.ar    1  UNL1        0.0990
      7 C         -30.9809   47.9297   -0.4996 C.ar    1  UNL1        0.0196
      8 C         -31.2723   47.6201    0.8375 C.ar    1  UNL1        0.0016
      9 C         -31.2711   46.2925    1.2654 C.ar    1  UNL1        0.0000
     10 C         -30.9841   45.2676    0.3641 C.ar    1  UNL1        0.0000
     11 C         -30.6942   45.5623   -0.9710 C.ar    1  UNL1        0.0005
     12 C         -30.6842   46.8975   -1.4248 C.ar    1  UNL1        0.0085
     13 C         -30.3677   47.2356   -2.7632 C.ar    1  UNL1        0.0522
     14 I         -29.7808   45.7419   -4.1811 I       1  UNL1       -0.0408
     15 C         -30.9941   51.5582   -5.2822 C.3     1  UNL1        0.0265
     16 C         -29.4694   51.3765   -5.3531 C.3     1  UNL1        0.1007
     17 C         -28.9043   51.3807   -6.7673 C.ar    1  UNL1        0.0234
     18 C         -29.5703   50.7532   -7.8421 C.ar    1  UNL1        0.0019
     19 C         -29.0058   50.7443   -9.1207 C.ar    1  UNL1        0.0295
     20 C         -27.7685   51.3491   -9.3456 C.ar    1  UNL1        0.1424
     21 F         -27.2230   51.3367  -10.5868 F       1  UNL1       -0.2041
     22 C         -27.0894   51.9597   -8.2901 C.ar    1  UNL1        0.0590
     23 C         -27.6466   51.9728   -7.0075 C.ar    1  UNL1        0.1399
     24 F         -26.9552   52.5639   -6.0003 F       1  UNL1       -0.2044
     25 C         -27.6819   50.0428   -4.1021 C.3     1  UNL1        0.1207
     26 C         -27.0928   48.7000   -4.4444 C.ar    1  UNL1       -0.0021
     27 C         -26.9566   48.3151   -5.7857 C.ar    1  UNL1       -0.0026
     28 C         -26.3358   47.1079   -6.1107 C.ar    1  UNL1       -0.0001
     29 C         -25.8362   46.2799   -5.1023 C.ar    1  UNL1        0.0064
     30 C         -25.9634   46.6481   -3.7512 C.ar    1  UNL1        0.0752
     31 C         -26.6099   47.8545   -3.4308 C.ar    1  UNL1        0.0038
     32 C         -25.3954   45.7992   -2.6807 C.2     1  UNL1        0.3380
     33 O         -24.1748   45.4839   -2.6955 O.2     1  UNL1       -0.2451
     34 O         -26.2023   45.3510   -1.6380 O.3     1  UNL1       -0.4771
     35 H         -25.8200   44.7834   -0.8912 H       1  UNL1        0.2954
@<TRIPOS>BOND
     1    15    16    1
     2    16    17    1
     3    17    18   ar
     4    18    19   ar
     5    19    20   ar
     6    20    21    1
     7    20    22   ar
     8    22    23   ar
     9    23    24    1
    10    16     1    1
    11     1    25    1
    12    25    26    1
    13    26    27   ar
    14    27    28   ar
    15    28    29   ar
    16    29    30   ar
    17    30    32    1
    18    32    33    2
    19    32    34    1
    20    30    31   ar
    21     1     2   am
    22     2     3    2
    23     2     4    1
    24     4     5   ar
    25     5     6   ar
    26     6     7   ar
    27     7     8   ar
    28     8     9   ar
    29     9    10   ar
    30    10    11   ar
    31    11    12   ar
    32    12    13   ar
    33    13    14    1
    34    23    17   ar
    35    31    26   ar
    36    13     4   ar
    37    12     7   ar
    38    34    35    1
@<TRIPOS>MOLECULE
*****
 35 38 0 0 0
SMALL
GASTEIGER

@<TRIPOS>ATOM
      1 N         -29.7974   47.3875   -8.5453 N.am    1  UNL1       -0.2685
      2 C         -29.9494   47.5862   -7.1268 C.2     1  UNL1        0.2676
      3 O         -30.7584   46.8748   -6.4741 O.2     1  UNL1       -0.2682
      4 C         -29.1905   48.6472   -6.4454 C.ar    1  UNL1        0.1400
      5 N         -29.3336   49.9186   -6.9041 N.ar    1  UNL1       -0.2388
      6 C         -28.6354   50.9614   -6.3948 C.ar    1  UNL1        0.0990
      7 C         -27.7114   50.7509   -5.3694 C.ar    1  UNL1        0.0196
      8 C         -26.9587   51.8217   -4.8642 C.ar    1  UNL1        0.0016
      9 C         -26.0217   51.6042   -3.8540 C.ar    1  UNL1        0.0000
     10 C         -25.8328   50.3216   -3.3399 C.ar    1  UNL1        0.0000
     11 C         -26.5776   49.2466   -3.8329 C.ar    1  UNL1        0.0005
     12 C         -27.5266   49.4419   -4.8577 C.ar    1  UNL1        0.0085
     13 C         -28.2791   48.3721   -5.4009 C.ar    1  UNL1        0.0522
     14 I         -27.9584   46.3508   -4.7703 I       1  UNL1       -0.0408
     15 C         -31.1935   46.2123  -10.2240 C.3     1  UNL1        0.0265
     16 C         -30.9512   47.5210   -9.4549 C.3     1  UNL1        0.1007
     17 C         -30.8018   48.7493  -10.3426 C.ar    1  UNL1        0.0234
     18 C         -30.2938   48.6665  -11.6570 C.ar    1  UNL1        0.0019
     19 C         -30.1354   49.8188  -12.4321 C.ar    1  UNL1        0.0295
     20 C         -30.4693   51.0683  -11.9081 C.ar    1  UNL1        0.1424
     21 F         -30.3124   52.1841  -12.6621 F       1  UNL1       -0.2041
     22 C         -30.9575   51.1691  -10.6045 C.ar    1  UNL1        0.0590
     23 C         -31.1187   50.0214   -9.8217 C.ar    1  UNL1        0.1399
     24 F         -31.5840   50.1548   -8.5538 F       1  UNL1       -0.2044
     25 C         -28.4832   46.9764   -9.0658 C.3     1  UNL1        0.1207
     26 C         -27.4598   48.0606   -8.8553 C.ar    1  UNL1       -0.0021
     27 C         -26.3105   47.8022   -8.0950 C.ar    1  UNL1       -0.0026
     28 C         -25.3196   48.7769   -7.9659 C.ar    1  UNL1       -0.0001
     29 C         -25.4612   50.0127   -8.6022 C.ar    1  UNL1        0.0064
     30 C         -26.6067   50.2910   -9.3688 C.ar    1  UNL1        0.0752
     31 C         -27.6105   49.3128   -9.4755 C.ar    1  UNL1        0.0038
     32 C         -26.7419   51.5794  -10.0836 C.2     1  UNL1        0.3380
     33 O         -27.1822   51.6116  -11.2645 O.2     1  UNL1       -0.2451
     34 O         -26.3959   52.7717   -9.4528 O.3     1  UNL1       -0.4771
     35 H         -26.5005   53.6607   -9.9269 H       1  UNL1        0.2954
@<TRIPOS>BOND
     1    15    16    1
     2    16    17    1
     3    17    18   ar
     4    18    19   ar
     5    19    20   ar
     6    20    21    1
     7    20    22   ar
     8    22    23   ar
     9    23    24    1
    10    16     1    1
    11     1    25    1
    12    25    26    1
    13    26    27   ar
    14    27    28   ar
    15    28    29   ar
    16    29    30   ar
    17    30    32    1
    18    32    33    2
    19    32    34    1
    20    30    31   ar
    21     1     2   am
    22     2     3    2
    23     2     4    1
    24     4     5   ar
    25     5     6   ar
    26     6     7   ar
    27     7     8   ar
    28     8     9   ar
    29     9    10   ar
    30    10    11   ar
    31    11    12   ar
    32    12    13   ar
    33    13    14    1
    34    23    17   ar
    35    31    26   ar
    36    13     4   ar
    37    12     7   ar
    38    34    35    1
@<TRIPOS>MOLECULE
*****
 35 38 0 0 0
SMALL
GASTEIGER

@<TRIPOS>ATOM
      1 N         -29.5220   48.5267   -6.3269 N.am    1  UNL1       -0.2685
      2 C         -30.4465   47.6714   -5.6278 C.2     1  UNL1        0.2676
      3 O         -31.4557   47.2125   -6.2258 O.2     1  UNL1       -0.2682
      4 C         -30.2357   47.3657   -4.2037 C.ar    1  UNL1        0.1400
      5 N         -29.8429   46.1052   -3.8810 N.ar    1  UNL1       -0.2388
      6 C         -29.6821   45.6961   -2.6000 C.ar    1  UNL1        0.0990
      7 C         -29.9396   46.5758   -1.5468 C.ar    1  UNL1        0.0196
      8 C         -29.8106   46.1456   -0.2176 C.ar    1  UNL1        0.0016
      9 C         -30.0886   47.0210    0.8321 C.ar    1  UNL1        0.0000
     10 C         -30.4921   48.3288    0.5637 C.ar    1  UNL1        0.0000
     11 C         -30.6226   48.7706   -0.7558 C.ar    1  UNL1        0.0005
     12 C         -30.3521   47.9015   -1.8331 C.ar    1  UNL1        0.0085
     13 C         -30.5005   48.3058   -3.1822 C.ar    1  UNL1        0.0522
     14 I         -31.2460   50.2486   -3.6881 I       1  UNL1       -0.0408
     15 C         -31.1499   49.5389   -7.8996 C.3     1  UNL1        0.0265
     16 C         -29.9763   49.7897   -6.9391 C.3     1  UNL1        0.1007
     17 C         -28.8072   50.5402   -7.5631 C.ar    1  UNL1        0.0234
     18 C         -28.2632   50.1739   -8.8131 C.ar    1  UNL1        0.0019
     19 C         -27.1664   50.8614   -9.3403 C.ar    1  UNL1        0.0295
     20 C         -26.5897   51.9139   -8.6282 C.ar    1  UNL1        0.1424
     21 F         -25.5246   52.5772   -9.1418 F       1  UNL1       -0.2041
     22 C         -27.1054   52.2780   -7.3834 C.ar    1  UNL1        0.0590
     23 C         -28.2024   51.5953   -6.8482 C.ar    1  UNL1        0.1399
     24 F         -28.6721   51.9658   -5.6300 F       1  UNL1       -0.2044
     25 C         -28.1272   48.0832   -6.4836 C.3     1  UNL1        0.1207
     26 C         -27.3949   48.1412   -5.1692 C.ar    1  UNL1       -0.0021
     27 C         -27.3138   49.3504   -4.4643 C.ar    1  UNL1       -0.0026
     28 C         -26.7086   49.3916   -3.2071 C.ar    1  UNL1       -0.0001
     29 C         -26.1891   48.2262   -2.6379 C.ar    1  UNL1        0.0064
     30 C         -26.2605   47.0038   -3.3292 C.ar    1  UNL1        0.0752
     31 C         -26.8513   46.9747   -4.6044 C.ar    1  UNL1        0.0038
     32 C         -25.7548   45.7574   -2.7129 C.2     1  UNL1        0.3380
     33 O         -24.8179   45.1111   -3.2551 O.2     1  UNL1       -0.2451
     34 O         -26.3012   45.2929   -1.5191 O.3     1  UNL1       -0.4771
     35 H         -25.9511   44.4499   -1.0799 H       1  UNL1        0.2954
@<TRIPOS>BOND
     1    15    16    1
     2    16    17    1
     3    17    18   ar
     4    18    19   ar
     5    19    20   ar
     6    20    21    1
     7    20    22   ar
     8    22    23   ar
     9    23    24    1
    10    16     1    1
    11     1    25    1
    12    25    26    1
    13    26    27   ar
    14    27    28   ar
    15    28    29   ar
    16    29    30   ar
    17    30    32    1
    18    32    33    2
    19    32    34    1
    20    30    31   ar
    21     1     2   am
    22     2     3    2
    23     2     4    1
    24     4     5   ar
    25     5     6   ar
    26     6     7   ar
    27     7     8   ar
    28     8     9   ar
    29     9    10   ar
    30    10    11   ar
    31    11    12   ar
    32    12    13   ar
    33    13    14    1
    34    23    17   ar
    35    31    26   ar
    36    13     4   ar
    37    12     7   ar
    38    34    35    1
@<TRIPOS>MOLECULE
*****
 35 38 0 0 0
SMALL
GASTEIGER

@<TRIPOS>ATOM
      1 N         -28.9634   50.3291   -9.4281 N.am    1  UNL1       -0.2685
      2 C         -30.3113   50.2726   -8.9232 C.2     1  UNL1        0.2676
      3 O         -31.2855   50.3714   -9.7155 O.2     1  UNL1       -0.2682
      4 C         -30.5521   50.1405   -7.4773 C.ar    1  UNL1        0.1400
      5 N         -30.2773   51.2151   -6.6917 N.ar    1  UNL1       -0.2388
      6 C         -30.4001   51.1840   -5.3433 C.ar    1  UNL1        0.0990
      7 C         -30.8058   50.0108   -4.7043 C.ar    1  UNL1        0.0196
      8 C         -30.8984   49.9626   -3.3052 C.ar    1  UNL1        0.0016
      9 C         -31.2842   48.7827   -2.6689 C.ar    1  UNL1        0.0000
     10 C         -31.5831   47.6477   -3.4222 C.ar    1  UNL1        0.0000
     11 C         -31.4968   47.6829   -4.8167 C.ar    1  UNL1        0.0005
     12 C         -31.1037   48.8631   -5.4812 C.ar    1  UNL1        0.0085
     13 C         -30.9782   48.9276   -6.8904 C.ar    1  UNL1        0.0522
     14 I         -31.2829   47.1987   -8.1169 I       1  UNL1       -0.0408
     15 C         -29.1609   51.5864  -11.5560 C.3     1  UNL1        0.0265
     16 C         -28.4860   51.5069  -10.1773 C.3     1  UNL1        0.1007
     17 C         -26.9641   51.5390  -10.2234 C.ar    1  UNL1        0.0234
     18 C         -26.2325   50.9136  -11.2560 C.ar    1  UNL1        0.0019
     19 C         -24.8349   50.9309  -11.2485 C.ar    1  UNL1        0.0295
     20 C         -24.1466   51.5599  -10.2103 C.ar    1  UNL1        0.1424
     21 F         -22.7909   51.5730  -10.2052 F       1  UNL1       -0.2041
     22 C         -24.8550   52.1688   -9.1732 C.ar    1  UNL1        0.0590
     23 C         -26.2534   52.1559   -9.1726 C.ar    1  UNL1        0.1399
     24 F         -26.9123   52.7462   -8.1433 F       1  UNL1       -0.2044
     25 C         -28.0898   49.1583   -9.2467 C.3     1  UNL1        0.1207
     26 C         -27.7184   48.9854   -7.7978 C.ar    1  UNL1       -0.0021
     27 C         -27.6072   47.6993   -7.2509 C.ar    1  UNL1       -0.0026
     28 C         -27.1828   47.5310   -5.9318 C.ar    1  UNL1       -0.0001
     29 C         -26.8554   48.6423   -5.1509 C.ar    1  UNL1        0.0064
     30 C         -26.9607   49.9404   -5.6812 C.ar    1  UNL1        0.0752
     31 C         -27.4105   50.1029   -7.0030 C.ar    1  UNL1        0.0038
     32 C         -26.5711   51.1188   -4.8757 C.2     1  UNL1        0.3380
     33 O         -25.8197   50.9864   -3.8721 O.2     1  UNL1       -0.2451
     34 O         -27.0208   52.3889   -5.2273 O.3     1  UNL1       -0.4771
     35 H         -26.7465   53.2045   -4.6929 H       1  UNL1        0.2954
@<TRIPOS>BOND
     1    15    16    1
     2    16    17    1
     3    17    18   ar
     4    18    19   ar
     5    19    20   ar
     6    20    21    1
     7    20    22   ar
     8    22    23   ar
     9    23    24    1
    10    16     1    1
    11     1    25    1
    12    25    26    1
    13    26    27   ar
    14    27    28   ar
    15    28    29   ar
    16    29    30   ar
    17    30    32    1
    18    32    33    2
    19    32    34    1
    20    30    31   ar
    21     1     2   am
    22     2     3    2
    23     2     4    1
    24     4     5   ar
    25     5     6   ar
    26     6     7   ar
    27     7     8   ar
    28     8     9   ar
    29     9    10   ar
    30    10    11   ar
    31    11    12   ar
    32    12    13   ar
    33    13    14    1
    34    23    17   ar
    35    31    26   ar
    36    13     4   ar
    37    12     7   ar
    38    34    35    1
@<TRIPOS>MOLECULE
*****
 35 38 0 0 0
SMALL
GASTEIGER

@<TRIPOS>ATOM
      1 N         -29.1522   50.0742   -5.0388 N.am    1  UNL1       -0.2685
      2 C         -30.2806   49.2475   -4.6953 C.2     1  UNL1        0.2676
      3 O         -31.0903   48.8836   -5.5889 O.2     1  UNL1       -0.2682
      4 C         -30.5121   48.8609   -3.2942 C.ar    1  UNL1        0.1400
      5 N         -30.9347   49.8259   -2.4355 N.ar    1  UNL1       -0.2388
      6 C         -31.1169   49.5975   -1.1131 C.ar    1  UNL1        0.0990
      7 C         -30.8513   48.3357   -0.5776 C.ar    1  UNL1        0.0196
      8 C         -31.0026   48.1044    0.7979 C.ar    1  UNL1        0.0016
      9 C         -30.7166   46.8483    1.3326 C.ar    1  UNL1        0.0000
     10 C         -30.2828   45.8165    0.5006 C.ar    1  UNL1        0.0000
     11 C         -30.1298   46.0331   -0.8717 C.ar    1  UNL1        0.0005
     12 C         -30.4079   47.2964   -1.4336 C.ar    1  UNL1        0.0085
     13 C         -30.2376   47.5601   -2.8146 C.ar    1  UNL1        0.0522
     14 I         -29.4461   46.0786   -4.1430 I       1  UNL1       -0.0408
     15 C         -30.6984   51.9990   -5.2669 C.3     1  UNL1        0.0265
     16 C         -29.3462   51.3917   -5.6736 C.3     1  UNL1        0.1007
     17 C         -29.1267   51.3056   -7.1781 C.ar    1  UNL1        0.0234
     18 C         -29.9646   50.5371   -8.0147 C.ar    1  UNL1        0.0019
     19 C         -29.7132   50.4505   -9.3869 C.ar    1  UNL1        0.0295
     20 C         -28.6207   51.1169   -9.9435 C.ar    1  UNL1        0.1424
     21 F         -28.3787   51.0288  -11.2746 F       1  UNL1       -0.2041
     22 C         -27.7731   51.8676   -9.1275 C.ar    1  UNL1        0.0590
     23 C         -28.0170   51.9595   -7.7535 C.ar    1  UNL1        0.1399
     24 F         -27.1668   52.6873   -6.9857 F       1  UNL1       -0.2044
     25 C         -27.7955   49.5500   -4.8120 C.3     1  UNL1        0.1207
     26 C         -27.1425   49.1700   -6.1146 C.ar    1  UNL1       -0.0021
     27 C         -25.9620   49.8086   -6.5198 C.ar    1  UNL1       -0.0026
     28 C         -25.3079   49.4030   -7.6844 C.ar    1  UNL1       -0.0001
     29 C         -25.8192   48.3508   -8.4483 C.ar    1  UNL1        0.0064
     30 C         -27.0021   47.6980   -8.0587 C.ar    1  UNL1        0.0752
     31 C         -27.6672   48.1271   -6.8970 C.ar    1  UNL1        0.0038
     32 C         -27.5238   46.5528   -8.8368 C.2     1  UNL1        0.3380
     33 O         -28.7660   46.3810   -8.9658 O.2     1  UNL1       -0.2451
     34 O         -26.6457   45.6601   -9.4461 O.3     1  UNL1       -0.4771
     35 H         -26.9919   44.8824   -9.9950 H       1  UNL1        0.2954
@<TRIPOS>BOND
     1    15    16    1
     2    16    17    1
     3    17    18   ar
     4    18    19   ar
     5    19    20   ar
     6    20    21    1
     7    20    22   ar
     8    22    23   ar
     9    23    24    1
    10    16     1    1
    11     1    25    1
    12    25    26    1
    13    26    27   ar
    14    27    28   ar
    15    28    29   ar
    16    29    30   ar
    17    30    32    1
    18    32    33    2
    19    32    34    1
    20    30    31   ar
    21     1     2   am
    22     2     3    2
    23     2     4    1
    24     4     5   ar
    25     5     6   ar
    26     6     7   ar
    27     7     8   ar
    28     8     9   ar
    29     9    10   ar
    30    10    11   ar
    31    11    12   ar
    32    12    13   ar
    33    13    14    1
    34    23    17   ar
    35    31    26   ar
    36    13     4   ar
    37    12     7   ar
    38    34    35    1
@<TRIPOS>MOLECULE
*****
 35 38 0 0 0
SMALL
GASTEIGER

@<TRIPOS>ATOM
      1 N         -27.9842   46.9448   -7.4871 N.am    1  UNL1       -0.2685
      2 C         -29.1318   47.5292   -8.1324 C.2     1  UNL1        0.2676
      3 O         -29.8936   48.2979   -7.4879 O.2     1  UNL1       -0.2682
      4 C         -29.4389   47.1972   -9.5329 C.ar    1  UNL1        0.1400
      5 N         -29.2702   45.9072   -9.9265 N.ar    1  UNL1       -0.2388
      6 C         -29.4606   45.5034  -11.2052 C.ar    1  UNL1        0.0990
      7 C         -29.8277   46.4287  -12.1841 C.ar    1  UNL1        0.0196
      8 C         -29.9896   46.0221  -13.5171 C.ar    1  UNL1        0.0016
      9 C         -30.3363   46.9531  -14.4963 C.ar    1  UNL1        0.0000
     10 C         -30.5271   48.2912  -14.1525 C.ar    1  UNL1        0.0000
     11 C         -30.3709   48.7090  -12.8280 C.ar    1  UNL1        0.0005
     12 C         -30.0154   47.7864  -11.8223 C.ar    1  UNL1        0.0085
     13 C         -29.8212   48.1785  -10.4753 C.ar    1  UNL1        0.0522
     14 I         -29.9575   50.2315   -9.8814 I       1  UNL1       -0.0408
     15 C         -29.5572   45.5102   -6.2160 C.3     1  UNL1        0.0265
     16 C         -28.1403   46.1019   -6.2864 C.3     1  UNL1        0.1007
     17 C         -27.7157   46.8585   -5.0348 C.ar    1  UNL1        0.0234
     18 C         -28.5018   47.8921   -4.4814 C.ar    1  UNL1        0.0019
     19 C         -28.0650   48.5910   -3.3525 C.ar    1  UNL1        0.0295
     20 C         -26.8379   48.2795   -2.7657 C.ar    1  UNL1        0.1424
     21 F         -26.4165   48.9610   -1.6720 F       1  UNL1       -0.2041
     22 C         -26.0412   47.2713   -3.3104 C.ar    1  UNL1        0.0590
     23 C         -26.4702   46.5671   -4.4400 C.ar    1  UNL1        0.1399
     24 F         -25.6665   45.6010   -4.9525 F       1  UNL1       -0.2044
     25 C         -26.6431   47.2627   -8.0040 C.3     1  UNL1        0.1207
     26 C         -26.4541   48.7516   -8.1254 C.ar    1  UNL1       -0.0021
     27 C         -26.0397   49.3090   -9.3433 C.ar    1  UNL1       -0.0026
     28 C         -25.9430   50.6943   -9.4852 C.ar    1  UNL1       -0.0001
     29 C         -26.2689   51.5353   -8.4182 C.ar    1  UNL1        0.0064
     30 C         -26.6861   50.9955   -7.1886 C.ar    1  UNL1        0.0752
     31 C         -26.7593   49.5989   -7.0464 C.ar    1  UNL1        0.0038
     32 C         -27.0777   51.8807   -6.0696 C.2     1  UNL1        0.3380
     33 O         -26.6506   51.6631   -4.9035 O.2     1  UNL1       -0.2451
     34 O         -27.9124   52.9719   -6.2969 O.3     1  UNL1       -0.4771
     35 H         -28.1730   53.5940   -5.5412 H       1  UNL1        0.2954
@<TRIPOS>BOND
     1    15    16    1
     2    16    17    1
     3    17    18   ar
     4    18    19   ar
     5    19    20   ar
     6    20    21    1
     7    20    22   ar
     8    22    23   ar
     9    23    24    1
    10    16     1    1
    11     1    25    1
    12    25    26    1
    13    26    27   ar
    14    27    28   ar
    15    28    29   ar
    16    29    30   ar
    17    30    32    1
    18    32    33    2
    19    32    34    1
    20    30    31   ar
    21     1     2   am
    22     2     3    2
    23     2     4    1
    24     4     5   ar
    25     5     6   ar
    26     6     7   ar
    27     7     8   ar
    28     8     9   ar
    29     9    10   ar
    30    10    11   ar
    31    11    12   ar
    32    12    13   ar
    33    13    14    1
    34    23    17   ar
    35    31    26   ar
    36    13     4   ar
    37    12     7   ar
    38    34    35    1
