@<TRIPOS>MOLECULE
*****
 40 44 0 0 0
SMALL
GASTEIGER

@<TRIPOS>ATOM
      1 C          50.0697   11.8499  -21.7707 C.2     1  UNL1        0.2506
      2 O          51.2201   12.0841  -22.2302 O.2     1  UNL1       -0.2699
      3 N          49.0338   11.3530  -22.6398 N.am    1  UNL1       -0.2680
      4 C          48.1004   10.3299  -22.1594 C.3     1  UNL1        0.1412
      5 C          46.7719   10.9760  -21.7781 C.3     1  UNL1        0.2268
      6 O          46.4988   12.1200  -22.5841 O.3     1  UNL1       -0.4726
      7 C          46.5031   12.0804  -23.9816 C.ar    1  UNL1        0.1489
      8 C          45.3007   12.3334  -24.6659 C.ar    1  UNL1        0.0757
      9 N          44.1009   12.6365  -23.9438 N.pl3   1  UNL1       -0.3546
     10 C          45.2661   12.2725  -26.0637 C.ar    1  UNL1        0.0171
     11 C          46.4237   11.9777  -26.7981 C.ar    1  UNL1        0.0012
     12 C          47.6279   11.7563  -26.1120 C.ar    1  UNL1        0.0005
     13 C          47.6874   11.8019  -24.7095 C.ar    1  UNL1        0.0329
     14 C          49.0621   11.6961  -24.0676 C.3     1  UNL1        0.1236
     15 H          43.2054   12.8166  -24.4501 H       1  UNL1        0.1424
     16 H          44.0908   12.6923  -22.9012 H       1  UNL1        0.1424
     17 C          46.3811   11.9179  -28.2812 C.ar    1  UNL1        0.0016
     18 C          46.6589   10.6995  -28.9625 C.ar    1  UNL1        0.0016
     19 C          46.6210   10.6339  -30.3680 C.ar    1  UNL1        0.0206
     20 C          46.3039   11.7961  -31.0626 C.ar    1  UNL1        0.0985
     21 N          46.2133   11.9612  -32.3945 N.ar    1  UNL1       -0.2241
     22 C          45.8822   13.2741  -32.5142 C.ar    1  UNL1        0.1750
     23 N          45.7674   13.9132  -31.3252 N.ar    1  UNL1       -0.3349
     24 C          46.0361   12.9650  -30.4203 C.ar    1  UNL1        0.0757
     25 C          46.0618   13.0752  -29.0328 C.ar    1  UNL1        0.0185
     26 H          45.5248   14.9148  -31.1574 H       1  UNL1        0.1675
     27 C          48.9429   13.1158  -19.9017 C.ar    1  UNL1        0.0503
     28 C          48.6817   13.2409  -18.5218 C.ar    1  UNL1        0.0328
     29 C          49.2887   12.3841  -17.5954 C.ar    1  UNL1        0.1069
     30 C          50.1603   11.3862  -18.0406 C.ar    1  UNL1        0.0186
     31 C          50.4231   11.2414  -19.4022 C.ar    1  UNL1        0.0071
     32 C          49.8097   12.0847  -20.3392 C.ar    1  UNL1        0.0667
     33 S          48.9320   12.5502  -15.8791 S.O2    1  UNL1        0.0105
     34 C          50.4549   12.7009  -14.9739 C.3     1  UNL1        0.1816
     35 O          48.0876   13.7715  -15.6450 O.2     1  UNL1       -0.1686
     36 O          48.1767   11.3425  -15.3993 O.2     1  UNL1       -0.1686
     37 N          48.3662   14.0416  -20.8496 N.pl3   1  UNL1       -0.3325
     38 H          47.3417   13.9889  -21.0484 H       1  UNL1        0.1468
     39 C          48.5504   15.3890  -22.9094 C.3     1  UNL1        0.0229
     40 C          49.1464   15.0714  -21.5407 C.3     1  UNL1        0.0871
@<TRIPOS>BOND
     1    39    40    1
     2    40    37    1
     3    37    27    1
     4    27    28   ar
     5    28    29   ar
     6    29    33    1
     7    33    34    1
     8    33    35    2
     9    33    36    2
    10    29    30   ar
    11    30    31   ar
    12    31    32   ar
    13    32     1    1
    14     1     2    2
    15     1     3   am
    16     3     4    1
    17     4     5    1
    18     5     6    1
    19     6     7    1
    20     7     8   ar
    21     8     9    1
    22     8    10   ar
    23    10    11   ar
    24    11    17    1
    25    17    18   ar
    26    18    19   ar
    27    19    20   ar
    28    20    21   ar
    29    21    22   ar
    30    22    23   ar
    31    23    24   ar
    32    24    25   ar
    33    11    12   ar
    34    12    13   ar
    35    13    14    1
    36    32    27   ar
    37    14     3    1
    38    13     7   ar
    39    25    17   ar
    40    24    20   ar
    41    37    38    1
    42     9    15    1
    43     9    16    1
    44    23    26    1
@<TRIPOS>MOLECULE
*****
 40 44 0 0 0
SMALL
GASTEIGER

@<TRIPOS>ATOM
      1 C          49.2805   10.4117  -20.9218 C.2     1  UNL1        0.2506
      2 O          50.2086    9.6428  -21.2917 O.2     1  UNL1       -0.2699
      3 N          48.1882   10.7045  -21.8142 N.am    1  UNL1       -0.2680
      4 C          46.8208   10.7992  -21.2947 C.3     1  UNL1        0.1412
      5 C          46.4240   12.2642  -21.1392 C.3     1  UNL1        0.2268
      6 O          47.0621   13.0831  -22.1166 O.3     1  UNL1       -0.4726
      7 C          46.9872   12.8233  -23.4882 C.ar    1  UNL1        0.1489
      8 C          46.3463   13.7614  -24.3170 C.ar    1  UNL1        0.0757
      9 N          45.7929   14.9628  -23.7663 N.pl3   1  UNL1       -0.3546
     10 C          46.2295   13.5162  -25.6900 C.ar    1  UNL1        0.0171
     11 C          46.7604   12.3493  -26.2583 C.ar    1  UNL1        0.0012
     12 C          47.4261   11.4309  -25.4318 C.ar    1  UNL1        0.0005
     13 C          47.5484   11.6486  -24.0496 C.ar    1  UNL1        0.0329
     14 C          48.4124   10.6731  -23.2653 C.3     1  UNL1        0.1236
     15 H          45.3094   15.6566  -24.3792 H       1  UNL1        0.1424
     16 H          45.8635   15.1790  -22.7472 H       1  UNL1        0.1424
     17 C          46.6363   12.0966  -27.7163 C.ar    1  UNL1        0.0016
     18 C          46.9009   10.8038  -28.2496 C.ar    1  UNL1        0.0016
     19 C          46.7858   10.5554  -29.6302 C.ar    1  UNL1        0.0206
     20 C          46.4062   11.6131  -30.4494 C.ar    1  UNL1        0.0985
     21 N          46.2379   11.6022  -31.7840 N.ar    1  UNL1       -0.2241
     22 C          45.8733   12.8839  -32.0527 C.ar    1  UNL1        0.1750
     23 N          45.8118   13.6706  -30.9514 N.ar    1  UNL1       -0.3349
     24 C          46.1504   12.8518  -29.9489 C.ar    1  UNL1        0.0757
     25 C          46.2514   13.1419  -28.5911 C.ar    1  UNL1        0.0185
     26 H          45.5582   14.6822  -30.9005 H       1  UNL1        0.1675
     27 C          50.3419   11.9101  -19.1916 C.ar    1  UNL1        0.0503
     28 C          50.2904   12.4840  -17.9047 C.ar    1  UNL1        0.0328
     29 C          49.2780   12.1349  -17.0027 C.ar    1  UNL1        0.1069
     30 C          48.2998   11.2110  -17.3811 C.ar    1  UNL1        0.0186
     31 C          48.3292   10.6403  -18.6529 C.ar    1  UNL1        0.0071
     32 C          49.3302   10.9935  -19.5686 C.ar    1  UNL1        0.0667
     33 S          49.2262   12.8794  -15.4078 S.O2    1  UNL1        0.0105
     34 C          50.8810   13.0309  -14.7756 C.3     1  UNL1        0.1816
     35 O          48.5974   14.2419  -15.4963 O.2     1  UNL1       -0.1686
     36 O          48.4062   12.0294  -14.4782 O.2     1  UNL1       -0.1686
     37 N          51.4238   12.2229  -20.0972 N.pl3   1  UNL1       -0.3325
     38 H          52.1096   11.4739  -20.3431 H       1  UNL1        0.1468
     39 C          50.2661   14.1251  -21.1618 C.3     1  UNL1        0.0229
     40 C          51.6019   13.5427  -20.7080 C.3     1  UNL1        0.0871
@<TRIPOS>BOND
     1    39    40    1
     2    40    37    1
     3    37    27    1
     4    27    28   ar
     5    28    29   ar
     6    29    33    1
     7    33    34    1
     8    33    35    2
     9    33    36    2
    10    29    30   ar
    11    30    31   ar
    12    31    32   ar
    13    32     1    1
    14     1     2    2
    15     1     3   am
    16     3     4    1
    17     4     5    1
    18     5     6    1
    19     6     7    1
    20     7     8   ar
    21     8     9    1
    22     8    10   ar
    23    10    11   ar
    24    11    17    1
    25    17    18   ar
    26    18    19   ar
    27    19    20   ar
    28    20    21   ar
    29    21    22   ar
    30    22    23   ar
    31    23    24   ar
    32    24    25   ar
    33    11    12   ar
    34    12    13   ar
    35    13    14    1
    36    32    27   ar
    37    14     3    1
    38    13     7   ar
    39    25    17   ar
    40    24    20   ar
    41    37    38    1
    42     9    15    1
    43     9    16    1
    44    23    26    1
@<TRIPOS>MOLECULE
*****
 40 44 0 0 0
SMALL
GASTEIGER

@<TRIPOS>ATOM
      1 C          47.9169   10.3757  -21.3168 C.2     1  UNL1        0.2506
      2 O          47.1143    9.4096  -21.4267 O.2     1  UNL1       -0.2699
      3 N          48.5768   10.9011  -22.4845 N.am    1  UNL1       -0.2680
      4 C          48.7682   12.3469  -22.6317 C.3     1  UNL1        0.1412
      5 C          50.2031   12.7207  -22.2723 C.3     1  UNL1        0.2268
      6 O          51.1104   11.6674  -22.5888 O.3     1  UNL1       -0.4726
      7 C          51.1862   11.0890  -23.8594 C.ar    1  UNL1        0.1489
      8 C          52.3790   11.2265  -24.5916 C.ar    1  UNL1        0.0757
      9 N          53.4955   11.9348  -24.0398 N.pl3   1  UNL1       -0.3546
     10 C          52.4757   10.6838  -25.8780 C.ar    1  UNL1        0.0171
     11 C          51.3998    9.9856  -26.4452 C.ar    1  UNL1        0.0012
     12 C          50.2226    9.8247  -25.6983 C.ar    1  UNL1        0.0005
     13 C          50.0964   10.3679  -24.4093 C.ar    1  UNL1        0.0329
     14 C          48.8422   10.0144  -23.6249 C.3     1  UNL1        0.1236
     15 H          54.3792   12.0448  -24.5855 H       1  UNL1        0.1424
     16 H          53.4591   12.3505  -23.0827 H       1  UNL1        0.1424
     17 C          51.5100    9.4093  -27.8092 C.ar    1  UNL1        0.0016
     18 C          52.6816    9.6202  -28.5892 C.ar    1  UNL1        0.0016
     19 C          52.7944    9.0778  -29.8831 C.ar    1  UNL1        0.0206
     20 C          51.7255    8.3324  -30.3686 C.ar    1  UNL1        0.0985
     21 N          51.6182    7.7295  -31.5663 N.ar    1  UNL1       -0.2241
     22 C          50.3864    7.1578  -31.5071 C.ar    1  UNL1        0.1750
     23 N          49.7418    7.3824  -30.3369 N.ar    1  UNL1       -0.3349
     24 C          50.6021    8.1246  -29.6303 C.ar    1  UNL1        0.0757
     25 C          50.4481    8.6417  -28.3470 C.ar    1  UNL1        0.0185
     26 H          48.7926    7.0512  -30.0548 H       1  UNL1        0.1675
     27 C          47.1211   11.5753  -19.2448 C.ar    1  UNL1        0.0503
     28 C          47.4032   12.0472  -17.9464 C.ar    1  UNL1        0.0328
     29 C          48.6899   11.9358  -17.4056 C.ar    1  UNL1        0.1069
     30 C          49.7093   11.3439  -18.1566 C.ar    1  UNL1        0.0186
     31 C          49.4467   10.8629  -19.4387 C.ar    1  UNL1        0.0071
     32 C          48.1586   10.9566  -19.9840 C.ar    1  UNL1        0.0667
     33 S          49.0117   12.5171  -15.7749 S.O2    1  UNL1        0.0105
     34 C          50.7569   12.4197  -15.4497 C.3     1  UNL1        0.1816
     35 O          48.5557   13.9429  -15.6378 O.2     1  UNL1       -0.1686
     36 O          48.2647   11.6741  -14.7798 O.2     1  UNL1       -0.1686
     37 N          45.8092   11.7495  -19.8253 N.pl3   1  UNL1       -0.3325
     38 H          45.6517   11.4560  -20.8157 H       1  UNL1        0.1468
     39 C          43.3638   11.6437  -19.5079 C.3     1  UNL1        0.0229
     40 C          44.6728   12.3056  -19.0862 C.3     1  UNL1        0.0871
@<TRIPOS>BOND
     1    39    40    1
     2    40    37    1
     3    37    27    1
     4    27    28   ar
     5    28    29   ar
     6    29    33    1
     7    33    34    1
     8    33    35    2
     9    33    36    2
    10    29    30   ar
    11    30    31   ar
    12    31    32   ar
    13    32     1    1
    14     1     2    2
    15     1     3   am
    16     3     4    1
    17     4     5    1
    18     5     6    1
    19     6     7    1
    20     7     8   ar
    21     8     9    1
    22     8    10   ar
    23    10    11   ar
    24    11    17    1
    25    17    18   ar
    26    18    19   ar
    27    19    20   ar
    28    20    21   ar
    29    21    22   ar
    30    22    23   ar
    31    23    24   ar
    32    24    25   ar
    33    11    12   ar
    34    12    13   ar
    35    13    14    1
    36    32    27   ar
    37    14     3    1
    38    13     7   ar
    39    25    17   ar
    40    24    20   ar
    41    37    38    1
    42     9    15    1
    43     9    16    1
    44    23    26    1
@<TRIPOS>MOLECULE
*****
 40 44 0 0 0
SMALL
GASTEIGER

@<TRIPOS>ATOM
      1 C          46.6596   12.3316  -20.3822 C.2     1  UNL1        0.2506
      2 O          45.4347   12.0480  -20.2890 O.2     1  UNL1       -0.2699
      3 N          47.2076   12.7536  -21.6459 N.am    1  UNL1       -0.2680
      4 C          48.2091   13.8229  -21.6915 C.3     1  UNL1        0.1412
      5 C          49.6021   13.2240  -21.8601 C.3     1  UNL1        0.2268
      6 O          49.5607   12.0126  -22.6110 O.3     1  UNL1       -0.4726
      7 C          48.9647   11.9233  -23.8725 C.ar    1  UNL1        0.1489
      8 C          49.7756   11.6168  -24.9799 C.ar    1  UNL1        0.0757
      9 N          51.1805   11.3898  -24.8142 N.pl3   1  UNL1       -0.3546
     10 C          49.2137   11.5490  -26.2599 C.ar    1  UNL1        0.0171
     11 C          47.8420   11.7669  -26.4540 C.ar    1  UNL1        0.0012
     12 C          47.0318   12.0420  -25.3417 C.ar    1  UNL1        0.0005
     13 C          47.5725   12.1253  -24.0480 C.ar    1  UNL1        0.0329
     14 C          46.5944   12.2803  -22.8937 C.3     1  UNL1        0.1236
     15 H          51.7855   11.1701  -25.6367 H       1  UNL1        0.1424
     16 H          51.6327   11.4303  -23.8739 H       1  UNL1        0.1424
     17 C          47.2513   11.6901  -27.8143 C.ar    1  UNL1        0.0016
     18 C          47.1837   10.4461  -28.5023 C.ar    1  UNL1        0.0016
     19 C          46.6257   10.3642  -29.7920 C.ar    1  UNL1        0.0206
     20 C          46.1455   11.5364  -30.3657 C.ar    1  UNL1        0.0985
     21 N          45.5797   11.6893  -31.5766 N.ar    1  UNL1       -0.2241
     22 C          45.3078   13.0206  -31.6167 C.ar    1  UNL1        0.1750
     23 N          45.6790   13.6823  -30.4943 N.ar    1  UNL1       -0.3349
     24 C          46.2049   12.7298  -29.7156 C.ar    1  UNL1        0.0757
     25 C          46.7478   12.8567  -28.4400 C.ar    1  UNL1        0.0185
     26 H          45.5766   14.7007  -30.2879 H       1  UNL1        0.1675
     27 C          48.3831   11.1342  -18.9817 C.ar    1  UNL1        0.0503
     28 C          49.2218   11.1351  -17.8483 C.ar    1  UNL1        0.0328
     29 C          49.1750   12.1832  -16.9211 C.ar    1  UNL1        0.1069
     30 C          48.2916   13.2477  -17.1212 C.ar    1  UNL1        0.0186
     31 C          47.4614   13.2687  -18.2412 C.ar    1  UNL1        0.0071
     32 C          47.5104   12.2313  -19.1830 C.ar    1  UNL1        0.0667
     33 S          50.2456   12.1690  -15.5232 S.O2    1  UNL1        0.0105
     34 C          49.7451   13.4411  -14.3862 C.3     1  UNL1        0.1816
     35 O          50.1804   10.8321  -14.8389 O.2     1  UNL1       -0.1686
     36 O          51.6606   12.4155  -15.9660 O.2     1  UNL1       -0.1686
     37 N          48.3870   10.0206  -19.9028 N.pl3   1  UNL1       -0.3325
     38 H          47.4765    9.5850  -20.1731 H       1  UNL1        0.1468
     39 C          49.3516    8.9455  -21.9042 C.3     1  UNL1        0.0229
     40 C          49.6106    9.4757  -20.4966 C.3     1  UNL1        0.0871
@<TRIPOS>BOND
     1    39    40    1
     2    40    37    1
     3    37    27    1
     4    27    28   ar
     5    28    29   ar
     6    29    33    1
     7    33    34    1
     8    33    35    2
     9    33    36    2
    10    29    30   ar
    11    30    31   ar
    12    31    32   ar
    13    32     1    1
    14     1     2    2
    15     1     3   am
    16     3     4    1
    17     4     5    1
    18     5     6    1
    19     6     7    1
    20     7     8   ar
    21     8     9    1
    22     8    10   ar
    23    10    11   ar
    24    11    17    1
    25    17    18   ar
    26    18    19   ar
    27    19    20   ar
    28    20    21   ar
    29    21    22   ar
    30    22    23   ar
    31    23    24   ar
    32    24    25   ar
    33    11    12   ar
    34    12    13   ar
    35    13    14    1
    36    32    27   ar
    37    14     3    1
    38    13     7   ar
    39    25    17   ar
    40    24    20   ar
    41    37    38    1
    42     9    15    1
    43     9    16    1
    44    23    26    1
