@<TRIPOS>MOLECULE
*****
 28 31 0 0 0
SMALL
GASTEIGER

@<TRIPOS>ATOM
      1 N         -24.0707   -9.8840  -10.5377 N.ar    1  UNL1       -0.3246
      2 C         -25.1048   -9.2275  -11.1228 C.ar    1  UNL1        0.0600
      3 C         -26.0772   -8.4331  -10.5071 C.ar    1  UNL1        0.0177
      4 C         -27.0572   -7.8355  -11.3202 C.ar    1  UNL1        0.0082
      5 C         -27.0525   -8.0366  -12.7187 C.ar    1  UNL1        0.0347
      6 BR        -28.3917   -7.2124  -13.8015 Br      1  UNL1       -0.0490
      7 C         -26.0655   -8.8389  -13.3192 C.ar    1  UNL1        0.0082
      8 C         -25.1078   -9.4195  -12.4899 C.ar    1  UNL1        0.0177
      9 C         -24.0292  -10.2263  -12.7703 C.ar    1  UNL1        0.0177
     10 C         -23.5412  -10.7235  -13.9770 C.ar    1  UNL1        0.0082
     11 C         -22.3823  -11.5191  -13.9371 C.ar    1  UNL1        0.0347
     12 BR        -21.6636  -12.2283  -15.5576 Br      1  UNL1       -0.0490
     13 C         -21.7446  -11.7920  -12.7067 C.ar    1  UNL1        0.0082
     14 C         -22.2578  -11.2760  -11.5029 C.ar    1  UNL1        0.0177
     15 C         -23.4150  -10.4911  -11.5613 C.ar    1  UNL1        0.0600
     16 C         -23.7119   -9.8759   -9.1140 C.3     1  UNL1        0.1365
     17 O         -23.5465   -8.2312   -7.3728 O.3     1  UNL1       -0.3811
     18 C         -23.1429   -8.5095   -8.6888 C.3     1  UNL1        0.1486
     19 H         -24.4896   -7.9239   -7.4197 H       1  UNL1        0.2105
     20 C         -21.6021   -8.4946   -8.7608 C.3     1  UNL1        0.1001
     21 N         -21.0963   -8.5964  -10.1396 N.3     1  UNL1       -0.2965
     22 H         -20.2580   -9.2218  -10.1853 H       1  UNL1        0.1233
     23 C         -20.8595   -7.2887  -10.7882 C.3     1  UNL1        0.0540
     24 C         -21.6596   -7.1488  -12.1170 C.3     1  UNL1        0.0157
     25 C         -22.9974   -6.4301  -11.9113 C.3     1  UNL1        0.0014
     26 C         -22.7964   -5.0019  -11.3664 C.3     1  UNL1        0.0001
     27 C         -21.5449   -4.8557  -10.4772 C.3     1  UNL1        0.0014
     28 C         -21.1967   -6.1713   -9.7740 C.3     1  UNL1        0.0157
@<TRIPOS>BOND
     1    17    18    1
     2    18    20    1
     3    20    21    1
     4    21    23    1
     5    23    24    1
     6    24    25    1
     7    25    26    1
     8    26    27    1
     9    27    28    1
    10    18    16    1
    11    16     1    1
    12     1     2   ar
    13     2     3   ar
    14     3     4   ar
    15     4     5   ar
    16     5     6    1
    17     5     7   ar
    18     7     8   ar
    19     8     9   ar
    20     9    10   ar
    21    10    11   ar
    22    11    12    1
    23    11    13   ar
    24    13    14   ar
    25    14    15   ar
    26    28    23    1
    27    15     1   ar
    28     8     2   ar
    29    15     9   ar
    30    17    19    1
    31    21    22    1
@<TRIPOS>MOLECULE
*****
 28 31 0 0 0
SMALL
GASTEIGER

@<TRIPOS>ATOM
      1 N         -23.9753   -9.8235  -10.5654 N.ar    1  UNL1       -0.3246
      2 C         -23.3480  -10.4632  -11.5853 C.ar    1  UNL1        0.0600
      3 C         -22.2133  -11.2781  -11.5204 C.ar    1  UNL1        0.0177
      4 C         -21.7400  -11.8517  -12.7143 C.ar    1  UNL1        0.0082
      5 C         -22.3978  -11.6070  -13.9406 C.ar    1  UNL1        0.0347
      6 BR        -21.7378  -12.3993  -15.5473 Br      1  UNL1       -0.0490
      7 C         -23.5381  -10.7846  -13.9850 C.ar    1  UNL1        0.0082
      8 C         -23.9844  -10.2286  -12.7877 C.ar    1  UNL1        0.0177
      9 C         -25.0550   -9.4116  -12.5065 C.ar    1  UNL1        0.0177
     10 C         -26.0446   -8.8760  -13.3284 C.ar    1  UNL1        0.0082
     11 C         -27.0358   -8.0801  -12.7272 C.ar    1  UNL1        0.0347
     12 BR        -28.4200   -7.3194  -13.8001 Br      1  UNL1       -0.0490
     13 C         -27.0163   -7.8446  -11.3346 C.ar    1  UNL1        0.0082
     14 C         -26.0061   -8.3988  -10.5276 C.ar    1  UNL1        0.0177
     15 C         -25.0250   -9.1836  -11.1441 C.ar    1  UNL1        0.0600
     16 C         -23.6233   -9.8755   -9.1409 C.3     1  UNL1        0.1365
     17 O         -23.4807   -8.3123   -7.3242 O.3     1  UNL1       -0.3811
     18 C         -23.0729   -8.5231   -8.6514 C.3     1  UNL1        0.1486
     19 H         -24.4279   -8.0159   -7.3576 H       1  UNL1        0.2105
     20 C         -21.5325   -8.4841   -8.7212 C.3     1  UNL1        0.1001
     21 N         -21.0231   -8.5750  -10.0994 N.3     1  UNL1       -0.2965
     22 H         -20.1797   -9.1934  -10.1465 H       1  UNL1        0.1233
     23 C         -20.7954   -7.2622  -10.7410 C.3     1  UNL1        0.0540
     24 C         -21.5628   -7.1372  -12.0904 C.3     1  UNL1        0.0157
     25 C         -22.9197   -6.4455  -11.9198 C.3     1  UNL1        0.0014
     26 C         -22.7618   -5.0140  -11.3692 C.3     1  UNL1        0.0001
     27 C         -21.5374   -4.8437  -10.4473 C.3     1  UNL1        0.0014
     28 C         -21.1816   -6.1527   -9.7356 C.3     1  UNL1        0.0157
@<TRIPOS>BOND
     1    17    18    1
     2    18    20    1
     3    20    21    1
     4    21    23    1
     5    23    24    1
     6    24    25    1
     7    25    26    1
     8    26    27    1
     9    27    28    1
    10    18    16    1
    11    16     1    1
    12     1     2   ar
    13     2     3   ar
    14     3     4   ar
    15     4     5   ar
    16     5     6    1
    17     5     7   ar
    18     7     8   ar
    19     8     9   ar
    20     9    10   ar
    21    10    11   ar
    22    11    12    1
    23    11    13   ar
    24    13    14   ar
    25    14    15   ar
    26    28    23    1
    27    15     1   ar
    28     8     2   ar
    29    15     9   ar
    30    17    19    1
    31    21    22    1
@<TRIPOS>MOLECULE
*****
 28 31 0 0 0
SMALL
GASTEIGER

@<TRIPOS>ATOM
      1 N         -21.2929  -11.3784  -12.2260 N.ar    1  UNL1       -0.3246
      2 C         -20.2703  -11.6662  -11.3808 C.ar    1  UNL1        0.0600
      3 C         -19.6876  -12.9124  -11.1295 C.ar    1  UNL1        0.0177
      4 C         -18.6218  -12.9733  -10.2136 C.ar    1  UNL1        0.0082
      5 C         -18.1584  -11.8040   -9.5698 C.ar    1  UNL1        0.0347
      6 BR        -16.7083  -11.9118   -8.3327 Br      1  UNL1       -0.0490
      7 C         -18.7576  -10.5596   -9.8364 C.ar    1  UNL1        0.0082
      8 C         -19.8121  -10.5286  -10.7469 C.ar    1  UNL1        0.0177
      9 C         -20.5777   -9.4873  -11.2183 C.ar    1  UNL1        0.0177
     10 C         -20.5456   -8.1223  -10.9404 C.ar    1  UNL1        0.0082
     11 C         -21.4621   -7.2948  -11.6134 C.ar    1  UNL1        0.0347
     12 BR        -21.4663   -5.4154  -11.2768 Br      1  UNL1       -0.0490
     13 C         -22.3753   -7.8450  -12.5400 C.ar    1  UNL1        0.0082
     14 C         -22.3853   -9.2268  -12.8029 C.ar    1  UNL1        0.0177
     15 C         -21.4699  -10.0354  -12.1198 C.ar    1  UNL1        0.0600
     16 C         -22.0002  -12.3156  -13.1076 C.3     1  UNL1        0.1365
     17 O         -21.1033  -13.8347  -14.7361 O.3     1  UNL1       -0.3811
     18 C         -21.2748  -12.4690  -14.4573 C.3     1  UNL1        0.1486
     19 H         -20.3367  -14.1467  -14.1873 H       1  UNL1        0.2105
     20 C         -22.0732  -11.8137  -15.6029 C.3     1  UNL1        0.1001
     21 N         -22.6588  -12.8006  -16.5251 N.3     1  UNL1       -0.2965
     22 H         -22.3467  -12.6246  -17.5087 H       1  UNL1        0.1233
     23 C         -24.1282  -12.9252  -16.4141 C.3     1  UNL1        0.0540
     24 C         -24.5577  -14.3678  -16.0144 C.3     1  UNL1        0.0157
     25 C         -24.7647  -14.5094  -14.5025 C.3     1  UNL1        0.0014
     26 C         -25.8692  -13.5636  -13.9898 C.3     1  UNL1        0.0001
     27 C         -25.9805  -12.2558  -14.7995 C.3     1  UNL1        0.0014
     28 C         -24.6356  -11.8587  -15.4160 C.3     1  UNL1        0.0157
@<TRIPOS>BOND
     1    17    18    1
     2    18    20    1
     3    20    21    1
     4    21    23    1
     5    23    24    1
     6    24    25    1
     7    25    26    1
     8    26    27    1
     9    27    28    1
    10    18    16    1
    11    16     1    1
    12     1     2   ar
    13     2     3   ar
    14     3     4   ar
    15     4     5   ar
    16     5     6    1
    17     5     7   ar
    18     7     8   ar
    19     8     9   ar
    20     9    10   ar
    21    10    11   ar
    22    11    12    1
    23    11    13   ar
    24    13    14   ar
    25    14    15   ar
    26    28    23    1
    27    15     1   ar
    28     8     2   ar
    29    15     9   ar
    30    17    19    1
    31    21    22    1
@<TRIPOS>MOLECULE
*****
 28 31 0 0 0
SMALL
GASTEIGER

@<TRIPOS>ATOM
      1 N         -21.1925  -11.3652  -12.2063 N.ar    1  UNL1       -0.3246
      2 C         -21.3893  -10.0289  -12.0705 C.ar    1  UNL1        0.0600
      3 C         -22.3361   -9.2292  -12.7183 C.ar    1  UNL1        0.0177
      4 C         -22.3662   -7.8568  -12.4114 C.ar    1  UNL1        0.0082
      5 C         -21.4622   -7.3091  -11.4738 C.ar    1  UNL1        0.0347
      6 BR        -21.5245   -5.4437  -11.0718 Br      1  UNL1       -0.0490
      7 C         -20.5173   -8.1303  -10.8324 C.ar    1  UNL1        0.0082
      8 C         -20.5090   -9.4857  -11.1562 C.ar    1  UNL1        0.0177
      9 C         -19.7331  -10.5261  -10.7000 C.ar    1  UNL1        0.0177
     10 C         -18.7033  -10.5635   -9.7620 C.ar    1  UNL1        0.0082
     11 C         -18.1090  -11.8087   -9.4906 C.ar    1  UNL1        0.0347
     12 BR        -16.6943  -11.9253   -8.2137 Br      1  UNL1       -0.0490
     13 C         -18.5558  -12.9736  -10.1529 C.ar    1  UNL1        0.0082
     14 C         -19.5986  -12.9077  -11.0948 C.ar    1  UNL1        0.0177
     15 C         -20.1742  -11.6592  -11.3561 C.ar    1  UNL1        0.0600
     16 C         -21.9648  -12.2907  -13.0446 C.3     1  UNL1        0.1365
     17 O         -21.1919  -13.9065  -14.6433 O.3     1  UNL1       -0.3811
     18 C         -21.2741  -12.5257  -14.4007 C.3     1  UNL1        0.1486
     19 H         -20.4365  -14.2502  -14.0982 H       1  UNL1        0.2105
     20 C         -22.0508  -11.8536  -15.5516 C.3     1  UNL1        0.1001
     21 N         -22.6362  -12.8276  -16.4875 N.3     1  UNL1       -0.2965
     22 H         -22.3127  -12.6467  -17.4666 H       1  UNL1        0.1233
     23 C         -24.1077  -12.9394  -16.3921 C.3     1  UNL1        0.0540
     24 C         -24.5534  -14.3747  -15.9839 C.3     1  UNL1        0.0157
     25 C         -24.7787  -14.5005  -14.4732 C.3     1  UNL1        0.0014
     26 C         -25.8811  -13.5411  -13.9820 C.3     1  UNL1        0.0001
     27 C         -25.9727  -12.2401  -14.8050 C.3     1  UNL1        0.0014
     28 C         -24.6177  -11.8596  -15.4098 C.3     1  UNL1        0.0157
@<TRIPOS>BOND
     1    17    18    1
     2    18    20    1
     3    20    21    1
     4    21    23    1
     5    23    24    1
     6    24    25    1
     7    25    26    1
     8    26    27    1
     9    27    28    1
    10    18    16    1
    11    16     1    1
    12     1     2   ar
    13     2     3   ar
    14     3     4   ar
    15     4     5   ar
    16     5     6    1
    17     5     7   ar
    18     7     8   ar
    19     8     9   ar
    20     9    10   ar
    21    10    11   ar
    22    11    12    1
    23    11    13   ar
    24    13    14   ar
    25    14    15   ar
    26    28    23    1
    27    15     1   ar
    28     8     2   ar
    29    15     9   ar
    30    17    19    1
    31    21    22    1
@<TRIPOS>MOLECULE
*****
 28 31 0 0 0
SMALL
GASTEIGER

@<TRIPOS>ATOM
      1 N         -23.5498  -10.0456  -12.5913 N.ar    1  UNL1       -0.3246
      2 C         -22.4107  -10.5497  -12.0517 C.ar    1  UNL1        0.0600
      3 C         -21.5522   -9.9397  -11.1317 C.ar    1  UNL1        0.0177
      4 C         -20.4252  -10.6608  -10.6975 C.ar    1  UNL1        0.0082
      5 C         -20.1745  -11.9643  -11.1817 C.ar    1  UNL1        0.0347
      6 BR        -18.6396  -12.9241  -10.5752 Br      1  UNL1       -0.0490
      7 C         -21.0504  -12.5608  -12.1067 C.ar    1  UNL1        0.0082
      8 C         -22.1581  -11.8234  -12.5205 C.ar    1  UNL1        0.0177
      9 C         -23.1834  -12.1284  -13.3856 C.ar    1  UNL1        0.0177
     10 C         -23.4497  -13.2769  -14.1284 C.ar    1  UNL1        0.0082
     11 C         -24.6131  -13.2914  -14.9181 C.ar    1  UNL1        0.0347
     12 BR        -25.0339  -14.8371  -15.9570 Br      1  UNL1       -0.0490
     13 C         -25.4742  -12.1720  -14.9430 C.ar    1  UNL1        0.0082
     14 C         -25.1822  -11.0254  -14.1822 C.ar    1  UNL1        0.0177
     15 C         -24.0172  -11.0269  -13.4067 C.ar    1  UNL1        0.0600
     16 C         -24.1666   -8.7461  -12.2968 C.3     1  UNL1        0.1365
     17 O         -22.1782   -7.6544  -13.0833 O.3     1  UNL1       -0.3811
     18 C         -23.5787   -7.6342  -13.1853 C.3     1  UNL1        0.1486
     19 H         -21.9456   -7.2139  -12.2243 H       1  UNL1        0.2105
     20 C         -23.9826   -7.8216  -14.6622 C.3     1  UNL1        0.1001
     21 N         -23.0176   -7.2190  -15.5965 N.3     1  UNL1       -0.2965
     22 H         -23.3873   -6.3218  -15.9893 H       1  UNL1        0.1233
     23 C         -22.5476   -8.1439  -16.6504 C.3     1  UNL1        0.0540
     24 C         -21.0913   -8.6288  -16.3870 C.3     1  UNL1        0.0157
     25 C         -21.0555   -9.9745  -15.6547 C.3     1  UNL1        0.0014
     26 C         -21.7475  -11.0839  -16.4717 C.3     1  UNL1        0.0001
     27 C         -22.8998  -10.5656  -17.3558 C.3     1  UNL1        0.0014
     28 C         -23.5513   -9.3154  -16.7565 C.3     1  UNL1        0.0157
@<TRIPOS>BOND
     1    17    18    1
     2    18    20    1
     3    20    21    1
     4    21    23    1
     5    23    24    1
     6    24    25    1
     7    25    26    1
     8    26    27    1
     9    27    28    1
    10    18    16    1
    11    16     1    1
    12     1     2   ar
    13     2     3   ar
    14     3     4   ar
    15     4     5   ar
    16     5     6    1
    17     5     7   ar
    18     7     8   ar
    19     8     9   ar
    20     9    10   ar
    21    10    11   ar
    22    11    12    1
    23    11    13   ar
    24    13    14   ar
    25    14    15   ar
    26    28    23    1
    27    15     1   ar
    28     8     2   ar
    29    15     9   ar
    30    17    19    1
    31    21    22    1
@<TRIPOS>MOLECULE
*****
 28 31 0 0 0
SMALL
GASTEIGER

@<TRIPOS>ATOM
      1 N         -23.8477  -11.2452  -13.2559 N.ar    1  UNL1       -0.3246
      2 C         -24.4186  -10.0163  -13.1744 C.ar    1  UNL1        0.0600
      3 C         -25.6332   -9.5946  -13.7243 C.ar    1  UNL1        0.0177
      4 C         -26.0364   -8.2656  -13.5006 C.ar    1  UNL1        0.0082
      5 C         -25.2316   -7.3877  -12.7405 C.ar    1  UNL1        0.0347
      6 BR        -25.8017   -5.5892  -12.4482 Br      1  UNL1       -0.0490
      7 C         -24.0131   -7.8311  -12.1952 C.ar    1  UNL1        0.0082
      8 C         -23.6377   -9.1518  -12.4335 C.ar    1  UNL1        0.0177
      9 C         -22.5358   -9.8716  -12.0331 C.ar    1  UNL1        0.0177
     10 C         -21.4363   -9.5142  -11.2552 C.ar    1  UNL1        0.0082
     11 C         -20.4671  -10.5002  -10.9983 C.ar    1  UNL1        0.0347
     12 BR        -18.9385  -10.0726   -9.9372 Br      1  UNL1       -0.0490
     13 C         -20.6206  -11.8055  -11.5159 C.ar    1  UNL1        0.0082
     14 C         -21.7414  -12.1399  -12.2973 C.ar    1  UNL1        0.0177
     15 C         -22.6927  -11.1443  -12.5473 C.ar    1  UNL1        0.0600
     16 C         -24.4024  -12.4347  -13.9141 C.3     1  UNL1        0.1365
     17 O         -23.4320  -14.3455  -14.9962 O.3     1  UNL1       -0.3811
     18 C         -23.4700  -12.9421  -15.0297 C.3     1  UNL1        0.1486
     19 H         -22.8260  -14.5996  -14.2516 H       1  UNL1        0.2105
     20 C         -23.9532  -12.4807  -16.4200 C.3     1  UNL1        0.1001
     21 N         -24.1633  -11.0255  -16.4950 N.3     1  UNL1       -0.2965
     22 H         -25.0504  -10.8013  -17.0037 H       1  UNL1        0.1233
     23 C         -23.0035  -10.2802  -17.0300 C.3     1  UNL1        0.0540
     24 C         -23.3141   -8.7622  -17.1874 C.3     1  UNL1        0.0157
     25 C         -22.8529   -7.9506  -15.9721 C.3     1  UNL1        0.0014
     26 C         -21.3309   -8.0680  -15.7555 C.3     1  UNL1        0.0001
     27 C         -20.7494   -9.4210  -16.2132 C.3     1  UNL1        0.0014
     28 C         -21.7872  -10.5433  -16.1122 C.3     1  UNL1        0.0157
@<TRIPOS>BOND
     1    17    18    1
     2    18    20    1
     3    20    21    1
     4    21    23    1
     5    23    24    1
     6    24    25    1
     7    25    26    1
     8    26    27    1
     9    27    28    1
    10    18    16    1
    11    16     1    1
    12     1     2   ar
    13     2     3   ar
    14     3     4   ar
    15     4     5   ar
    16     5     6    1
    17     5     7   ar
    18     7     8   ar
    19     8     9   ar
    20     9    10   ar
    21    10    11   ar
    22    11    12    1
    23    11    13   ar
    24    13    14   ar
    25    14    15   ar
    26    28    23    1
    27    15     1   ar
    28     8     2   ar
    29    15     9   ar
    30    17    19    1
    31    21    22    1
@<TRIPOS>MOLECULE
*****
 28 31 0 0 0
SMALL
GASTEIGER

@<TRIPOS>ATOM
      1 N         -23.6496   -8.3733  -12.0180 N.ar    1  UNL1       -0.3246
      2 C         -23.9170   -9.6039  -12.5249 C.ar    1  UNL1        0.0600
      3 C         -23.2081  -10.7914  -12.3181 C.ar    1  UNL1        0.0177
      4 C         -23.6788  -11.9616  -12.9409 C.ar    1  UNL1        0.0082
      5 C         -24.8361  -11.9301  -13.7508 C.ar    1  UNL1        0.0347
      6 BR        -25.4569  -13.5322  -14.5833 Br      1  UNL1       -0.0490
      7 C         -25.5356  -10.7255  -13.9462 C.ar    1  UNL1        0.0082
      8 C         -25.0465   -9.5816  -13.3184 C.ar    1  UNL1        0.0177
      9 C         -25.5050   -8.2845  -13.3036 C.ar    1  UNL1        0.0177
     10 C         -26.6110   -7.6926  -13.9100 C.ar    1  UNL1        0.0082
     11 C         -26.8281   -6.3221  -13.6820 C.ar    1  UNL1        0.0347
     12 BR        -28.3278   -5.4539  -14.4838 Br      1  UNL1       -0.0490
     13 C         -25.9467   -5.5858  -12.8597 C.ar    1  UNL1        0.0082
     14 C         -24.8381   -6.2088  -12.2583 C.ar    1  UNL1        0.0177
     15 C         -24.6348   -7.5720  -12.5010 C.ar    1  UNL1        0.0600
     16 C         -22.5653   -8.0151  -11.0950 C.3     1  UNL1        0.1365
     17 O         -20.4257   -8.8564  -11.7867 O.3     1  UNL1       -0.3811
     18 C         -21.2572   -7.7266  -11.8545 C.3     1  UNL1        0.1486
     19 H         -20.0080   -8.8530  -10.8858 H       1  UNL1        0.2105
     20 C         -21.5291   -7.3848  -13.3338 C.3     1  UNL1        0.1001
     21 N         -20.5430   -7.9857  -14.2469 N.3     1  UNL1       -0.2965
     22 H         -19.6340   -7.4679  -14.2092 H       1  UNL1        0.1233
     23 C         -21.0360   -8.1583  -15.6305 C.3     1  UNL1        0.0540
     24 C         -20.6905   -9.5678  -16.1959 C.3     1  UNL1        0.0157
     25 C         -21.8444  -10.5599  -16.0149 C.3     1  UNL1        0.0014
     26 C         -23.1165  -10.0911  -16.7490 C.3     1  UNL1        0.0001
     27 C         -23.2473   -8.5566  -16.8295 C.3     1  UNL1        0.0014
     28 C         -22.5549   -7.8696  -15.6483 C.3     1  UNL1        0.0157
@<TRIPOS>BOND
     1    17    18    1
     2    18    20    1
     3    20    21    1
     4    21    23    1
     5    23    24    1
     6    24    25    1
     7    25    26    1
     8    26    27    1
     9    27    28    1
    10    18    16    1
    11    16     1    1
    12     1     2   ar
    13     2     3   ar
    14     3     4   ar
    15     4     5   ar
    16     5     6    1
    17     5     7   ar
    18     7     8   ar
    19     8     9   ar
    20     9    10   ar
    21    10    11   ar
    22    11    12    1
    23    11    13   ar
    24    13    14   ar
    25    14    15   ar
    26    28    23    1
    27    15     1   ar
    28     8     2   ar
    29    15     9   ar
    30    17    19    1
    31    21    22    1
@<TRIPOS>MOLECULE
*****
 28 31 0 0 0
SMALL
GASTEIGER

@<TRIPOS>ATOM
      1 N         -21.9123   -9.4439  -10.5980 N.ar    1  UNL1       -0.3246
      2 C         -20.7227   -9.8562  -10.0903 C.ar    1  UNL1        0.0600
      3 C         -20.0056   -9.3045   -9.0240 C.ar    1  UNL1        0.0177
      4 C         -18.7889   -9.9093   -8.6600 C.ar    1  UNL1        0.0082
      5 C         -18.3115  -11.0421   -9.3565 C.ar    1  UNL1        0.0347
      6 BR        -16.6586  -11.8469   -8.8417 Br      1  UNL1       -0.0490
      7 C         -19.0479  -11.5825  -10.4262 C.ar    1  UNL1        0.0082
      8 C         -20.2488  -10.9628  -10.7662 C.ar    1  UNL1        0.0177
      9 C         -21.1825  -11.2554  -11.7333 C.ar    1  UNL1        0.0177
     10 C         -21.2324  -12.2700  -12.6871 C.ar    1  UNL1        0.0082
     11 C         -22.3526  -12.3169  -13.5359 C.ar    1  UNL1        0.0347
     12 BR        -22.4800  -13.6847  -14.8620 Br      1  UNL1       -0.0490
     13 C         -23.3856  -11.3618  -13.4098 C.ar    1  UNL1        0.0082
     14 C         -23.3105  -10.3485  -12.4371 C.ar    1  UNL1        0.0177
     15 C         -22.1858  -10.3141  -11.6050 C.ar    1  UNL1        0.0600
     16 C         -22.7440   -8.3363  -10.1107 C.3     1  UNL1        0.1365
     17 O         -23.7753   -8.1586   -7.9500 O.3     1  UNL1       -0.3811
     18 C         -23.8562   -8.8427   -9.1738 C.3     1  UNL1        0.1486
     19 H         -23.0322   -8.5722   -7.4374 H       1  UNL1        0.2105
     20 C         -25.2536   -8.6205   -9.7879 C.3     1  UNL1        0.1001
     21 N         -25.2034   -7.8963  -11.0686 N.3     1  UNL1       -0.2965
     22 H         -24.4663   -7.1532  -11.0496 H       1  UNL1        0.1233
     23 C         -26.5146   -7.3776  -11.5145 C.3     1  UNL1        0.0540
     24 C         -26.4712   -5.8427  -11.7748 C.3     1  UNL1        0.0157
     25 C         -26.2136   -5.5154  -13.2496 C.3     1  UNL1        0.0014
     26 C         -27.3207   -6.0847  -14.1591 C.3     1  UNL1        0.0001
     27 C         -27.9508   -7.3839  -13.6177 C.3     1  UNL1        0.0014
     28 C         -26.9586   -8.1769  -12.7614 C.3     1  UNL1        0.0157
@<TRIPOS>BOND
     1    17    18    1
     2    18    20    1
     3    20    21    1
     4    21    23    1
     5    23    24    1
     6    24    25    1
     7    25    26    1
     8    26    27    1
     9    27    28    1
    10    18    16    1
    11    16     1    1
    12     1     2   ar
    13     2     3   ar
    14     3     4   ar
    15     4     5   ar
    16     5     6    1
    17     5     7   ar
    18     7     8   ar
    19     8     9   ar
    20     9    10   ar
    21    10    11   ar
    22    11    12    1
    23    11    13   ar
    24    13    14   ar
    25    14    15   ar
    26    28    23    1
    27    15     1   ar
    28     8     2   ar
    29    15     9   ar
    30    17    19    1
    31    21    22    1
@<TRIPOS>MOLECULE
*****
 28 31 0 0 0
SMALL
GASTEIGER

@<TRIPOS>ATOM
      1 N         -23.7813   -9.9803  -12.4191 N.ar    1  UNL1       -0.3246
      2 C         -24.1885  -10.9687  -13.2559 C.ar    1  UNL1        0.0600
      3 C         -25.3284  -10.9942  -14.0655 C.ar    1  UNL1        0.0177
      4 C         -25.5464  -12.1288  -14.8679 C.ar    1  UNL1        0.0082
      5 C         -24.6347  -13.2081  -14.8509 C.ar    1  UNL1        0.0347
      6 BR        -24.9510  -14.7361  -15.9511 Br      1  UNL1       -0.0490
      7 C         -23.4935  -13.1632  -14.0299 C.ar    1  UNL1        0.0082
      8 C         -23.3031  -12.0278  -13.2446 C.ar    1  UNL1        0.0177
      9 C         -22.3001  -11.6852  -12.3675 C.ar    1  UNL1        0.0177
     10 C         -21.1451  -12.3619  -11.9807 C.ar    1  UNL1        0.0082
     11 C         -20.2890  -11.7260  -11.0641 C.ar    1  UNL1        0.0347
     12 BR        -18.6897  -12.6013  -10.4968 Br      1  UNL1       -0.0490
     13 C         -20.6025  -10.4423  -10.5651 C.ar    1  UNL1        0.0082
     14 C         -21.7748   -9.7807  -10.9735 C.ar    1  UNL1        0.0177
     15 C         -22.6176  -10.4312  -11.8818 C.ar    1  UNL1        0.0600
     16 C         -24.4327   -8.6824  -12.2027 C.3     1  UNL1        0.1365
     17 O         -22.4387   -7.4157  -12.6312 O.3     1  UNL1       -0.3811
     18 C         -23.7706   -7.5771  -13.0461 C.3     1  UNL1        0.1486
     19 H         -22.4607   -6.8856  -11.7918 H       1  UNL1        0.2105
     20 C         -23.7954   -7.9250  -14.5487 C.3     1  UNL1        0.1001
     21 N         -22.5406   -7.5747  -15.2342 N.3     1  UNL1       -0.2965
     22 H         -22.4939   -6.5468  -15.4270 H       1  UNL1        0.1233
     23 C         -22.2708   -8.3867  -16.4404 C.3     1  UNL1        0.0540
     24 C         -20.9333   -9.1754  -16.3194 C.3     1  UNL1        0.0157
     25 C         -21.1512  -10.6049  -15.8117 C.3     1  UNL1        0.0014
     26 C         -22.0543  -11.4139  -16.7640 C.3     1  UNL1        0.0001
     27 C         -23.0940  -10.5489  -17.5049 C.3     1  UNL1        0.0014
     28 C         -23.4838   -9.3132  -16.6879 C.3     1  UNL1        0.0157
@<TRIPOS>BOND
     1    17    18    1
     2    18    20    1
     3    20    21    1
     4    21    23    1
     5    23    24    1
     6    24    25    1
     7    25    26    1
     8    26    27    1
     9    27    28    1
    10    18    16    1
    11    16     1    1
    12     1     2   ar
    13     2     3   ar
    14     3     4   ar
    15     4     5   ar
    16     5     6    1
    17     5     7   ar
    18     7     8   ar
    19     8     9   ar
    20     9    10   ar
    21    10    11   ar
    22    11    12    1
    23    11    13   ar
    24    13    14   ar
    25    14    15   ar
    26    28    23    1
    27    15     1   ar
    28     8     2   ar
    29    15     9   ar
    30    17    19    1
    31    21    22    1
