@<TRIPOS>MOLECULE
*****
 52 57 0 0 0
SMALL
GASTEIGER

@<TRIPOS>ATOM
      1 N         -62.8471  -41.4109  -19.9321 N.am    1  UNL1       -0.2945
      2 C         -62.2870  -42.6498  -20.4030 C.2     1  UNL1        0.2483
      3 O         -62.1421  -43.6148  -19.6036 O.2     1  UNL1       -0.2701
      4 H         -62.9146  -40.6064  -20.5925 H       1  UNL1        0.1501
      5 C         -61.9466  -42.8467  -21.8312 C.ar    1  UNL1        0.0808
      6 C         -61.2419  -41.8377  -22.5090 C.ar    1  UNL1        0.0080
      7 C         -60.8994  -41.9878  -23.8543 C.ar    1  UNL1        0.0148
      8 C         -61.2583  -43.1502  -24.5546 C.ar    1  UNL1        0.0502
      9 C         -61.9571  -44.1629  -23.8781 C.ar    1  UNL1        0.0443
     10 C         -62.3107  -44.0123  -22.5330 C.ar    1  UNL1        0.1457
     11 F         -63.0565  -44.9815  -21.9461 F       1  UNL1       -0.2040
     12 N         -60.9344  -43.2980  -25.9527 N.pl3   1  UNL1       -0.3040
     13 C         -60.4439  -42.1496  -26.7236 C.3     1  UNL1        0.1123
     14 C         -61.0601  -42.1628  -28.1209 C.3     1  UNL1        0.1136
     15 N         -60.9045  -43.4899  -28.7313 N.pl3   1  UNL1       -0.2897
     16 C         -61.3484  -44.6596  -27.9593 C.3     1  UNL1        0.1136
     17 C         -60.7568  -44.6273  -26.5477 C.3     1  UNL1        0.1123
     18 C         -60.6090  -43.5947  -30.1389 C.ar    1  UNL1        0.1318
     19 C         -59.5754  -44.4217  -30.6085 C.ar    1  UNL1        0.0343
     20 C         -59.3219  -44.4979  -31.9788 C.ar    1  UNL1        0.0083
     21 C         -60.0839  -43.7418  -32.8819 C.ar    1  UNL1        0.0906
     22 C         -61.1293  -42.9546  -32.3755 C.ar    1  UNL1        0.1041
     23 N         -61.3584  -42.8971  -31.0370 N.ar    1  UNL1       -0.2292
     24 C         -59.8537  -43.8545  -34.3674 C.3     1  UNL1        0.4200
     25 F         -59.1352  -44.9998  -34.6642 F       1  UNL1       -0.1658
     26 F         -59.1419  -42.7633  -34.8351 F       1  UNL1       -0.1658
     27 F         -61.0740  -43.9076  -35.0145 F       1  UNL1       -0.1658
     28 C         -63.6564  -41.3403  -18.7092 C.3     1  UNL1        0.1535
     29 C         -63.9995  -39.9051  -18.4055 C.2     1  UNL1        0.2443
     30 O         -64.7589  -39.6511  -17.4313 O.2     1  UNL1       -0.2730
     31 N         -63.4233  -38.8339  -19.1734 N.am    1  UNL1       -0.2825
     32 H         -62.5815  -39.0412  -19.7562 H       1  UNL1        0.1549
     33 C         -63.8711  -37.4691  -19.1107 C.ar    1  UNL1        0.0535
     34 C         -63.0222  -36.4351  -18.6803 C.ar    1  UNL1        0.0353
     35 C         -63.5099  -35.1276  -18.6107 C.ar    1  UNL1        0.1002
     36 N         -64.8006  -34.8616  -18.9435 N.ar    1  UNL1       -0.2422
     37 C         -65.6491  -35.8445  -19.3450 C.ar    1  UNL1        0.1002
     38 C         -65.2024  -37.1656  -19.4273 C.ar    1  UNL1        0.0353
     39 C         -64.9329  -42.1929  -18.8511 C.3     1  UNL1        0.0569
     40 C         -65.9256  -40.7115  -23.8689 C.ar    1  UNL1        0.0361
     41 C         -64.6773  -41.1044  -23.3113 C.ar    1  UNL1        0.0029
     42 C         -64.5579  -41.3971  -21.9428 C.ar    1  UNL1        0.0013
     43 C         -65.6962  -41.2867  -21.1483 C.ar    1  UNL1        0.0131
     44 C         -65.9042  -41.5645  -19.8102 C.ar    1  UNL1       -0.0017
     45 C         -67.2605  -41.3466  -19.5893 C.ar    1  UNL1        0.0681
     46 N         -67.8638  -40.9372  -20.7287 N.ar    1  UNL1       -0.3523
     47 C         -66.9042  -40.9111  -21.6702 C.ar    1  UNL1        0.0564
     48 C         -67.0587  -40.6174  -23.0237 C.ar    1  UNL1        0.0198
     49 H         -68.8785  -40.7265  -20.8569 H       1  UNL1        0.1660
     50 C         -64.9449  -40.6793  -26.2867 C.3     1  UNL1        0.0773
     51 C         -66.0568  -40.4081  -25.3181 C.2     1  UNL1        0.1735
     52 O         -67.1265  -39.9052  -25.7579 O.2     1  UNL1       -0.2913
@<TRIPOS>BOND
     1    50    51    1
     2    51    52    2
     3    51    40    1
     4    40    41   ar
     5    41    42   ar
     6    42    43   ar
     7    43    44   ar
     8    44    39    1
     9    39    28    1
    10    28     1    1
    11     1     2   am
    12     2     3    2
    13     2     5    1
    14     5     6   ar
    15     6     7   ar
    16     7     8   ar
    17     8    12    1
    18    12    13    1
    19    13    14    1
    20    14    15    1
    21    15    18    1
    22    18    19   ar
    23    19    20   ar
    24    20    21   ar
    25    21    24    1
    26    24    25    1
    27    24    26    1
    28    24    27    1
    29    21    22   ar
    30    22    23   ar
    31    15    16    1
    32    16    17    1
    33     8     9   ar
    34     9    10   ar
    35    10    11    1
    36    28    29    1
    37    29    30    2
    38    29    31   am
    39    31    33    1
    40    33    34   ar
    41    34    35   ar
    42    35    36   ar
    43    36    37   ar
    44    37    38   ar
    45    44    45   ar
    46    45    46   ar
    47    46    47   ar
    48    47    48   ar
    49    48    40   ar
    50    47    43   ar
    51    10     5   ar
    52    38    33   ar
    53    17    12    1
    54    23    18   ar
    55     1     4    1
    56    31    32    1
    57    46    49    1
@<TRIPOS>MOLECULE
*****
 52 57 0 0 0
SMALL
GASTEIGER

@<TRIPOS>ATOM
      1 N         -62.2356  -47.0123  -25.9497 N.am    1  UNL1       -0.2945
      2 C         -61.4903  -46.6882  -24.7623 C.2     1  UNL1        0.2483
      3 O         -60.4853  -47.3818  -24.4457 O.2     1  UNL1       -0.2701
      4 H         -63.0928  -46.4608  -26.1715 H       1  UNL1        0.1501
      5 C         -61.8301  -45.5041  -23.9396 C.ar    1  UNL1        0.0808
      6 C         -62.1722  -44.3029  -24.5832 C.ar    1  UNL1        0.0080
      7 C         -62.5024  -43.1662  -23.8426 C.ar    1  UNL1        0.0148
      8 C         -62.4937  -43.2038  -22.4394 C.ar    1  UNL1        0.0502
      9 C         -62.1584  -44.4046  -21.7936 C.ar    1  UNL1        0.0443
     10 C         -61.8175  -45.5429  -22.5319 C.ar    1  UNL1        0.1457
     11 F         -61.4215  -46.6548  -21.8633 F       1  UNL1       -0.2040
     12 N         -62.8039  -42.0243  -21.6686 N.pl3   1  UNL1       -0.3040
     13 C         -64.1799  -41.7707  -21.2261 C.3     1  UNL1        0.1123
     14 C         -64.4988  -40.2825  -21.3535 C.3     1  UNL1        0.1136
     15 N         -63.4392  -39.4813  -20.7263 N.pl3   1  UNL1       -0.2897
     16 C         -62.0486  -39.7479  -21.1214 C.3     1  UNL1        0.1136
     17 C         -61.7405  -41.2444  -21.0254 C.3     1  UNL1        0.1123
     18 C         -63.7893  -38.2929  -19.9882 C.ar    1  UNL1        0.1318
     19 C         -64.8758  -38.2795  -19.0983 C.ar    1  UNL1        0.0343
     20 C         -65.1812  -37.1100  -18.4005 C.ar    1  UNL1        0.0083
     21 C         -64.4181  -35.9495  -18.5972 C.ar    1  UNL1        0.0906
     22 C         -63.3203  -36.0140  -19.4689 C.ar    1  UNL1        0.1041
     23 N         -63.0412  -37.1645  -20.1365 N.ar    1  UNL1       -0.2292
     24 C         -64.7061  -34.6956  -17.8118 C.3     1  UNL1        0.4200
     25 F         -64.9531  -34.9976  -16.4837 F       1  UNL1       -0.1658
     26 F         -65.8162  -34.0445  -18.3215 F       1  UNL1       -0.1658
     27 F         -63.6145  -33.8508  -17.8863 F       1  UNL1       -0.1658
     28 C         -61.6548  -47.8093  -27.0372 C.3     1  UNL1        0.1535
     29 C         -62.6006  -47.8402  -28.2096 C.2     1  UNL1        0.2443
     30 O         -62.7033  -48.9007  -28.8842 O.2     1  UNL1       -0.2730
     31 N         -63.4213  -46.7009  -28.5215 N.am    1  UNL1       -0.2825
     32 H         -63.5466  -45.9670  -27.7886 H       1  UNL1        0.1549
     33 C         -64.1649  -46.5566  -29.7435 C.ar    1  UNL1        0.0535
     34 C         -64.6950  -47.6697  -30.4181 C.ar    1  UNL1        0.0353
     35 C         -65.3882  -47.4825  -31.6168 C.ar    1  UNL1        0.1002
     36 N         -65.5354  -46.2337  -32.1327 N.ar    1  UNL1       -0.2422
     37 C         -65.0173  -45.1414  -31.5115 C.ar    1  UNL1        0.1002
     38 C         -64.3161  -45.2842  -30.3117 C.ar    1  UNL1        0.0353
     39 C         -60.2819  -47.2448  -27.4527 C.3     1  UNL1        0.0569
     40 C         -61.9111  -42.4617  -29.1339 C.ar    1  UNL1        0.0361
     41 C         -62.2114  -43.0946  -27.8957 C.ar    1  UNL1        0.0029
     42 C         -61.7668  -44.3990  -27.6251 C.ar    1  UNL1        0.0013
     43 C         -61.0278  -45.0553  -28.6062 C.ar    1  UNL1        0.0131
     44 C         -60.4111  -46.2924  -28.6079 C.ar    1  UNL1       -0.0017
     45 C         -59.7490  -46.3786  -29.8286 C.ar    1  UNL1        0.0681
     46 N         -59.9569  -45.2584  -30.5578 N.ar    1  UNL1       -0.3523
     47 C         -60.7300  -44.4594  -29.8015 C.ar    1  UNL1        0.0564
     48 C         -61.1518  -43.1654  -30.1010 C.ar    1  UNL1        0.0198
     49 H         -59.5600  -45.0439  -31.4994 H       1  UNL1        0.1660
     50 C         -61.4098  -39.9552  -29.6581 C.3     1  UNL1        0.0773
     51 C         -62.3740  -41.0786  -29.4203 C.2     1  UNL1        0.1735
     52 O         -63.6093  -40.8285  -29.4641 O.2     1  UNL1       -0.2913
@<TRIPOS>BOND
     1    50    51    1
     2    51    52    2
     3    51    40    1
     4    40    41   ar
     5    41    42   ar
     6    42    43   ar
     7    43    44   ar
     8    44    39    1
     9    39    28    1
    10    28     1    1
    11     1     2   am
    12     2     3    2
    13     2     5    1
    14     5     6   ar
    15     6     7   ar
    16     7     8   ar
    17     8    12    1
    18    12    13    1
    19    13    14    1
    20    14    15    1
    21    15    18    1
    22    18    19   ar
    23    19    20   ar
    24    20    21   ar
    25    21    24    1
    26    24    25    1
    27    24    26    1
    28    24    27    1
    29    21    22   ar
    30    22    23   ar
    31    15    16    1
    32    16    17    1
    33     8     9   ar
    34     9    10   ar
    35    10    11    1
    36    28    29    1
    37    29    30    2
    38    29    31   am
    39    31    33    1
    40    33    34   ar
    41    34    35   ar
    42    35    36   ar
    43    36    37   ar
    44    37    38   ar
    45    44    45   ar
    46    45    46   ar
    47    46    47   ar
    48    47    48   ar
    49    48    40   ar
    50    47    43   ar
    51    10     5   ar
    52    38    33   ar
    53    17    12    1
    54    23    18   ar
    55     1     4    1
    56    31    32    1
    57    46    49    1
@<TRIPOS>MOLECULE
*****
 52 57 0 0 0
SMALL
GASTEIGER

@<TRIPOS>ATOM
      1 N         -60.9242  -48.7706  -22.8436 N.am    1  UNL1       -0.2945
      2 C         -59.9999  -47.6684  -22.8792 C.2     1  UNL1        0.2483
      3 O         -58.8397  -47.8395  -23.3440 O.2     1  UNL1       -0.2701
      4 H         -61.8623  -48.6263  -22.4111 H       1  UNL1        0.1501
      5 C         -60.4063  -46.3092  -22.4527 C.ar    1  UNL1        0.0808
      6 C         -61.7174  -46.1035  -21.9913 C.ar    1  UNL1        0.0080
      7 C         -62.1371  -44.8379  -21.5769 C.ar    1  UNL1        0.0148
      8 C         -61.2552  -43.7466  -21.6189 C.ar    1  UNL1        0.0502
      9 C         -59.9425  -43.9505  -22.0736 C.ar    1  UNL1        0.0443
     10 C         -59.5210  -45.2149  -22.4989 C.ar    1  UNL1        0.1457
     11 F         -58.2698  -45.3444  -23.0067 F       1  UNL1       -0.2040
     12 N         -61.6920  -42.4304  -21.2213 N.pl3   1  UNL1       -0.3040
     13 C         -61.2689  -41.8683  -19.9334 C.3     1  UNL1        0.1123
     14 C         -62.4311  -41.1141  -19.2907 C.3     1  UNL1        0.1136
     15 N         -63.0296  -40.1849  -20.2585 N.pl3   1  UNL1       -0.2897
     16 C         -63.4210  -40.7159  -21.5722 C.3     1  UNL1        0.1136
     17 C         -62.2660  -41.5003  -22.2002 C.3     1  UNL1        0.1123
     18 C         -63.4799  -38.8888  -19.8144 C.ar    1  UNL1        0.1318
     19 C         -64.5314  -38.7574  -18.8926 C.ar    1  UNL1        0.0343
     20 C         -64.9366  -37.4854  -18.4856 C.ar    1  UNL1        0.0083
     21 C         -64.3088  -36.3434  -19.0048 C.ar    1  UNL1        0.0906
     22 C         -63.2400  -36.5185  -19.8971 C.ar    1  UNL1        0.1041
     23 N         -62.8619  -37.7672  -20.2781 N.ar    1  UNL1       -0.2292
     24 C         -64.7028  -34.9665  -18.5346 C.3     1  UNL1        0.4200
     25 F         -65.3800  -35.0377  -17.3295 F       1  UNL1       -0.1658
     26 F         -65.5291  -34.3526  -19.4601 F       1  UNL1       -0.1658
     27 F         -63.5650  -34.1995  -18.3676 F       1  UNL1       -0.1658
     28 C         -60.7594  -49.9496  -23.7027 C.3     1  UNL1        0.1535
     29 C         -61.6196  -51.0770  -23.1939 C.2     1  UNL1        0.2443
     30 O         -61.1882  -51.7986  -22.2540 O.2     1  UNL1       -0.2730
     31 N         -62.9383  -51.2927  -23.7263 N.am    1  UNL1       -0.2825
     32 H         -63.3852  -50.5188  -24.2673 H       1  UNL1        0.1549
     33 C         -63.7239  -52.4702  -23.4742 C.ar    1  UNL1        0.0535
     34 C         -64.9914  -52.6473  -24.0549 C.ar    1  UNL1        0.0353
     35 C         -65.7297  -53.7962  -23.7596 C.ar    1  UNL1        0.1002
     36 N         -65.2303  -54.7280  -22.9054 N.ar    1  UNL1       -0.2422
     37 C         -64.0158  -54.5739  -22.3149 C.ar    1  UNL1        0.1002
     38 C         -63.2457  -53.4394  -22.5818 C.ar    1  UNL1        0.0353
     39 C         -61.1065  -49.6100  -25.1657 C.3     1  UNL1        0.0569
     40 C         -61.7650  -44.5800  -26.7857 C.ar    1  UNL1        0.0361
     41 C         -60.5494  -45.3152  -26.7109 C.ar    1  UNL1        0.0029
     42 C         -60.5248  -46.6184  -26.1880 C.ar    1  UNL1        0.0013
     43 C         -61.7242  -47.1670  -25.7411 C.ar    1  UNL1        0.0131
     44 C         -62.0240  -48.4227  -25.2467 C.ar    1  UNL1       -0.0017
     45 C         -63.4005  -48.4260  -25.0441 C.ar    1  UNL1        0.0681
     46 N         -63.9293  -47.2269  -25.3793 N.ar    1  UNL1       -0.3523
     47 C         -62.9017  -46.4729  -25.8074 C.ar    1  UNL1        0.0564
     48 C         -62.9625  -45.1799  -26.3239 C.ar    1  UNL1        0.0198
     49 H         -64.9382  -46.9596  -25.3504 H       1  UNL1        0.1660
     50 C         -60.5600  -42.3589  -27.4361 C.3     1  UNL1        0.0773
     51 C         -61.7956  -43.2034  -27.3453 C.2     1  UNL1        0.1735
     52 O         -62.8852  -42.7186  -27.7555 O.2     1  UNL1       -0.2913
@<TRIPOS>BOND
     1    50    51    1
     2    51    52    2
     3    51    40    1
     4    40    41   ar
     5    41    42   ar
     6    42    43   ar
     7    43    44   ar
     8    44    39    1
     9    39    28    1
    10    28     1    1
    11     1     2   am
    12     2     3    2
    13     2     5    1
    14     5     6   ar
    15     6     7   ar
    16     7     8   ar
    17     8    12    1
    18    12    13    1
    19    13    14    1
    20    14    15    1
    21    15    18    1
    22    18    19   ar
    23    19    20   ar
    24    20    21   ar
    25    21    24    1
    26    24    25    1
    27    24    26    1
    28    24    27    1
    29    21    22   ar
    30    22    23   ar
    31    15    16    1
    32    16    17    1
    33     8     9   ar
    34     9    10   ar
    35    10    11    1
    36    28    29    1
    37    29    30    2
    38    29    31   am
    39    31    33    1
    40    33    34   ar
    41    34    35   ar
    42    35    36   ar
    43    36    37   ar
    44    37    38   ar
    45    44    45   ar
    46    45    46   ar
    47    46    47   ar
    48    47    48   ar
    49    48    40   ar
    50    47    43   ar
    51    10     5   ar
    52    38    33   ar
    53    17    12    1
    54    23    18   ar
    55     1     4    1
    56    31    32    1
    57    46    49    1
@<TRIPOS>MOLECULE
*****
 52 57 0 0 0
SMALL
GASTEIGER

@<TRIPOS>ATOM
      1 N         -60.6667  -48.1810  -23.5805 N.am    1  UNL1       -0.2945
      2 C         -59.7824  -47.0968  -23.2445 C.2     1  UNL1        0.2483
      3 O         -58.5384  -47.2315  -23.4045 O.2     1  UNL1       -0.2701
      4 H         -61.6877  -48.0728  -23.3962 H       1  UNL1        0.1501
      5 C         -60.3073  -45.7896  -22.7860 C.ar    1  UNL1        0.0808
      6 C         -59.4046  -44.8174  -22.3232 C.ar    1  UNL1        0.0080
      7 C         -59.8601  -43.5719  -21.8864 C.ar    1  UNL1        0.0148
      8 C         -61.2313  -43.2716  -21.8981 C.ar    1  UNL1        0.0502
      9 C         -62.1351  -44.2389  -22.3659 C.ar    1  UNL1        0.0443
     10 C         -61.6837  -45.4914  -22.7954 C.ar    1  UNL1        0.1457
     11 F         -62.6014  -46.4212  -23.1606 F       1  UNL1       -0.2040
     12 N         -61.7109  -41.9980  -21.4191 N.pl3   1  UNL1       -0.3040
     13 C         -61.3045  -41.5038  -20.0984 C.3     1  UNL1        0.1123
     14 C         -62.4900  -40.8302  -19.4104 C.3     1  UNL1        0.1136
     15 N         -63.1206  -39.8627  -20.3183 N.pl3   1  UNL1       -0.2897
     16 C         -63.4963  -40.3232  -21.6628 C.3     1  UNL1        0.1136
     17 C         -62.3170  -41.0281  -22.3382 C.3     1  UNL1        0.1123
     18 C         -63.6129  -38.6126  -19.7943 C.ar    1  UNL1        0.1318
     19 C         -64.6921  -38.5716  -18.8963 C.ar    1  UNL1        0.0343
     20 C         -65.1377  -37.3418  -18.4096 C.ar    1  UNL1        0.0083
     21 C         -64.5226  -36.1517  -18.8257 C.ar    1  UNL1        0.0906
     22 C         -63.4259  -36.2381  -19.6969 C.ar    1  UNL1        0.1041
     23 N         -63.0086  -37.4471  -20.1567 N.ar    1  UNL1       -0.2292
     24 C         -64.9612  -34.8217  -18.2680 C.3     1  UNL1        0.4200
     25 F         -66.0121  -34.3057  -19.0065 F       1  UNL1       -0.1658
     26 F         -63.9195  -33.9108  -18.3021 F       1  UNL1       -0.1658
     27 F         -65.3704  -34.9897  -16.9584 F       1  UNL1       -0.1658
     28 C         -60.2640  -49.2556  -24.4962 C.3     1  UNL1        0.1535
     29 C         -60.9609  -50.5368  -24.1186 C.2     1  UNL1        0.2443
     30 O         -60.2923  -51.6049  -24.0699 O.2     1  UNL1       -0.2730
     31 N         -62.3535  -50.5369  -23.7583 N.am    1  UNL1       -0.2825
     32 H         -62.7995  -49.6253  -23.5103 H       1  UNL1        0.1549
     33 C         -63.1472  -51.7274  -23.6182 C.ar    1  UNL1        0.0535
     34 C         -64.3015  -51.9376  -24.3919 C.ar    1  UNL1        0.0353
     35 C         -65.0560  -53.0982  -24.2019 C.ar    1  UNL1        0.1002
     36 N         -64.6828  -54.0096  -23.2651 N.ar    1  UNL1       -0.2422
     37 C         -63.5820  -53.8235  -22.4900 C.ar    1  UNL1        0.1002
     38 C         -62.8004  -52.6762  -22.6466 C.ar    1  UNL1        0.0353
     39 C         -60.5733  -48.8709  -25.9565 C.3     1  UNL1        0.0569
     40 C         -62.1751  -43.8759  -26.8751 C.ar    1  UNL1        0.0361
     41 C         -60.8445  -44.3369  -26.6727 C.ar    1  UNL1        0.0029
     42 C         -60.5856  -45.6824  -26.3642 C.ar    1  UNL1        0.0013
     43 C         -61.6699  -46.5498  -26.2580 C.ar    1  UNL1        0.0131
     44 C         -61.7283  -47.9128  -26.0349 C.ar    1  UNL1       -0.0017
     45 C         -63.0763  -48.2476  -26.1158 C.ar    1  UNL1        0.0681
     46 N         -63.8219  -47.1457  -26.3601 N.ar    1  UNL1       -0.3523
     47 C         -62.9552  -46.1217  -26.4509 C.ar    1  UNL1        0.0564
     48 C         -63.2473  -44.7950  -26.7620 C.ar    1  UNL1        0.0198
     49 H         -64.8569  -47.1092  -26.4933 H       1  UNL1        0.1660
     50 C         -61.7473  -41.7539  -28.3319 C.3     1  UNL1        0.0773
     51 C         -62.4518  -42.4543  -27.2088 C.2     1  UNL1        0.1735
     52 O         -63.2978  -41.8063  -26.5344 O.2     1  UNL1       -0.2913
@<TRIPOS>BOND
     1    50    51    1
     2    51    52    2
     3    51    40    1
     4    40    41   ar
     5    41    42   ar
     6    42    43   ar
     7    43    44   ar
     8    44    39    1
     9    39    28    1
    10    28     1    1
    11     1     2   am
    12     2     3    2
    13     2     5    1
    14     5     6   ar
    15     6     7   ar
    16     7     8   ar
    17     8    12    1
    18    12    13    1
    19    13    14    1
    20    14    15    1
    21    15    18    1
    22    18    19   ar
    23    19    20   ar
    24    20    21   ar
    25    21    24    1
    26    24    25    1
    27    24    26    1
    28    24    27    1
    29    21    22   ar
    30    22    23   ar
    31    15    16    1
    32    16    17    1
    33     8     9   ar
    34     9    10   ar
    35    10    11    1
    36    28    29    1
    37    29    30    2
    38    29    31   am
    39    31    33    1
    40    33    34   ar
    41    34    35   ar
    42    35    36   ar
    43    36    37   ar
    44    37    38   ar
    45    44    45   ar
    46    45    46   ar
    47    46    47   ar
    48    47    48   ar
    49    48    40   ar
    50    47    43   ar
    51    10     5   ar
    52    38    33   ar
    53    17    12    1
    54    23    18   ar
    55     1     4    1
    56    31    32    1
    57    46    49    1
@<TRIPOS>MOLECULE
*****
 52 57 0 0 0
SMALL
GASTEIGER

@<TRIPOS>ATOM
      1 N         -63.5765  -40.8004  -19.4192 N.am    1  UNL1       -0.2945
      2 C         -62.9196  -42.0207  -19.8063 C.2     1  UNL1        0.2483
      3 O         -62.6654  -42.8976  -18.9358 O.2     1  UNL1       -0.2701
      4 H         -63.7352  -40.0640  -20.1407 H       1  UNL1        0.1501
      5 C         -62.6029  -42.3076  -21.2246 C.ar    1  UNL1        0.0808
      6 C         -62.4379  -41.2345  -22.1164 C.ar    1  UNL1        0.0080
      7 C         -62.1351  -41.4641  -23.4600 C.ar    1  UNL1        0.0148
      8 C         -61.9947  -42.7742  -23.9440 C.ar    1  UNL1        0.0502
      9 C         -62.1528  -43.8484  -23.0537 C.ar    1  UNL1        0.0443
     10 C         -62.4658  -43.6229  -21.7090 C.ar    1  UNL1        0.1457
     11 F         -62.6897  -44.6938  -20.9069 F       1  UNL1       -0.2040
     12 N         -61.7124  -43.0188  -25.3375 N.pl3   1  UNL1       -0.3040
     13 C         -60.3950  -42.6897  -25.8941 C.3     1  UNL1        0.1123
     14 C         -60.5572  -42.0949  -27.2914 C.3     1  UNL1        0.1136
     15 N         -61.4306  -42.9486  -28.1077 N.pl3   1  UNL1       -0.2897
     16 C         -62.7377  -43.3280  -27.5522 C.3     1  UNL1        0.1136
     17 C         -62.5769  -43.8928  -26.1384 C.3     1  UNL1        0.1123
     18 C         -61.1294  -43.1445  -29.5044 C.ar    1  UNL1        0.1318
     19 C         -61.8423  -42.4670  -30.5072 C.ar    1  UNL1        0.0343
     20 C         -61.5190  -42.6817  -31.8478 C.ar    1  UNL1        0.0083
     21 C         -60.4988  -43.5802  -32.1940 C.ar    1  UNL1        0.0906
     22 C         -59.7879  -44.2108  -31.1615 C.ar    1  UNL1        0.1041
     23 N         -60.1196  -43.9851  -29.8629 N.ar    1  UNL1       -0.2292
     24 C         -60.1061  -43.7819  -33.6353 C.3     1  UNL1        0.4200
     25 F         -61.2234  -43.7653  -34.4523 F       1  UNL1       -0.1658
     26 F         -59.4664  -44.9982  -33.8011 F       1  UNL1       -0.1658
     27 F         -59.2509  -42.7666  -34.0207 F       1  UNL1       -0.1658
     28 C         -64.3543  -40.6976  -18.1782 C.3     1  UNL1        0.1535
     29 C         -64.8003  -39.2735  -17.9711 C.2     1  UNL1        0.2443
     30 O         -65.6083  -39.0157  -17.0379 O.2     1  UNL1       -0.2730
     31 N         -64.2684  -38.2118  -18.7829 N.am    1  UNL1       -0.2825
     32 H         -63.3950  -38.3953  -19.3258 H       1  UNL1        0.1549
     33 C         -64.8058  -36.8787  -18.8153 C.ar    1  UNL1        0.0535
     34 C         -64.2975  -35.8601  -17.9911 C.ar    1  UNL1        0.0353
     35 C         -64.8696  -34.5862  -18.0385 C.ar    1  UNL1        0.1002
     36 N         -65.9194  -34.3393  -18.8657 N.ar    1  UNL1       -0.2422
     37 C         -66.4433  -35.3100  -19.6598 C.ar    1  UNL1        0.1002
     38 C         -65.9020  -36.5977  -19.6423 C.ar    1  UNL1        0.0353
     39 C         -65.5633  -41.6532  -18.2128 C.3     1  UNL1        0.0569
     40 C         -66.0786  -40.2627  -23.3274 C.ar    1  UNL1        0.0361
     41 C         -65.9929  -39.4011  -22.1986 C.ar    1  UNL1        0.0029
     42 C         -65.9350  -39.9219  -20.8956 C.ar    1  UNL1        0.0013
     43 C         -65.9685  -41.3056  -20.7418 C.ar    1  UNL1        0.0131
     44 C         -65.8648  -42.1003  -19.6154 C.ar    1  UNL1       -0.0017
     45 C         -65.8793  -43.4116  -20.0802 C.ar    1  UNL1        0.0681
     46 N         -66.0031  -43.4330  -21.4271 N.ar    1  UNL1       -0.3523
     47 C         -66.0497  -42.1473  -21.8177 C.ar    1  UNL1        0.0564
     48 C         -66.1049  -41.6645  -23.1238 C.ar    1  UNL1        0.0198
     49 H         -66.0160  -44.2787  -22.0394 H       1  UNL1        0.1660
     50 C         -66.0282  -40.5990  -25.9145 C.3     1  UNL1        0.0773
     51 C         -66.1327  -39.7148  -24.7080 C.2     1  UNL1        0.1735
     52 O         -66.2665  -38.4732  -24.8839 O.2     1  UNL1       -0.2913
@<TRIPOS>BOND
     1    50    51    1
     2    51    52    2
     3    51    40    1
     4    40    41   ar
     5    41    42   ar
     6    42    43   ar
     7    43    44   ar
     8    44    39    1
     9    39    28    1
    10    28     1    1
    11     1     2   am
    12     2     3    2
    13     2     5    1
    14     5     6   ar
    15     6     7   ar
    16     7     8   ar
    17     8    12    1
    18    12    13    1
    19    13    14    1
    20    14    15    1
    21    15    18    1
    22    18    19   ar
    23    19    20   ar
    24    20    21   ar
    25    21    24    1
    26    24    25    1
    27    24    26    1
    28    24    27    1
    29    21    22   ar
    30    22    23   ar
    31    15    16    1
    32    16    17    1
    33     8     9   ar
    34     9    10   ar
    35    10    11    1
    36    28    29    1
    37    29    30    2
    38    29    31   am
    39    31    33    1
    40    33    34   ar
    41    34    35   ar
    42    35    36   ar
    43    36    37   ar
    44    37    38   ar
    45    44    45   ar
    46    45    46   ar
    47    46    47   ar
    48    47    48   ar
    49    48    40   ar
    50    47    43   ar
    51    10     5   ar
    52    38    33   ar
    53    17    12    1
    54    23    18   ar
    55     1     4    1
    56    31    32    1
    57    46    49    1
@<TRIPOS>MOLECULE
*****
 52 57 0 0 0
SMALL
GASTEIGER

@<TRIPOS>ATOM
      1 N         -62.9413  -47.2108  -26.2834 N.am    1  UNL1       -0.2945
      2 C         -62.3951  -47.0750  -24.9591 C.2     1  UNL1        0.2483
      3 O         -61.7133  -48.0141  -24.4644 O.2     1  UNL1       -0.2701
      4 H         -63.5440  -46.4470  -26.6594 H       1  UNL1        0.1501
      5 C         -62.5490  -45.8196  -24.1882 C.ar    1  UNL1        0.0808
      6 C         -62.2755  -45.8285  -22.8100 C.ar    1  UNL1        0.0080
      7 C         -62.4052  -44.6645  -22.0498 C.ar    1  UNL1        0.0148
      8 C         -62.8162  -43.4643  -22.6507 C.ar    1  UNL1        0.0502
      9 C         -63.0841  -43.4509  -24.0289 C.ar    1  UNL1        0.0443
     10 C         -62.9648  -44.6172  -24.7922 C.ar    1  UNL1        0.1457
     11 F         -63.3137  -44.5732  -26.1024 F       1  UNL1       -0.2040
     12 N         -62.9818  -42.2657  -21.8649 N.pl3   1  UNL1       -0.3040
     13 C         -64.2198  -42.0419  -21.1092 C.3     1  UNL1        0.1123
     14 C         -64.6243  -40.5721  -21.2017 C.3     1  UNL1        0.1136
     15 N         -63.4804  -39.7098  -20.8764 N.pl3   1  UNL1       -0.2897
     16 C         -62.2163  -39.9441  -21.5892 C.3     1  UNL1        0.1136
     17 C         -61.8294  -41.4239  -21.5243 C.3     1  UNL1        0.1123
     18 C         -63.6929  -38.5050  -20.1129 C.ar    1  UNL1        0.1318
     19 C         -64.6044  -38.4685  -19.0449 C.ar    1  UNL1        0.0343
     20 C         -64.7802  -37.2837  -18.3285 C.ar    1  UNL1        0.0083
     21 C         -64.0630  -36.1309  -18.6816 C.ar    1  UNL1        0.0906
     22 C         -63.1372  -36.2182  -19.7326 C.ar    1  UNL1        0.1041
     23 N         -62.9820  -37.3833  -20.4150 N.ar    1  UNL1       -0.2292
     24 C         -64.2060  -34.8599  -17.8839 C.3     1  UNL1        0.4200
     25 F         -64.5504  -35.1426  -16.5733 F       1  UNL1       -0.1658
     26 F         -65.1906  -34.0518  -18.4257 F       1  UNL1       -0.1658
     27 F         -63.0044  -34.1766  -17.8968 F       1  UNL1       -0.1658
     28 C         -62.3982  -48.1707  -27.2524 C.3     1  UNL1        0.1535
     29 C         -63.2744  -48.2117  -28.4773 C.2     1  UNL1        0.2443
     30 O         -63.3783  -49.2925  -29.1186 O.2     1  UNL1       -0.2730
     31 N         -64.0312  -47.0559  -28.8780 N.am    1  UNL1       -0.2825
     32 H         -64.1708  -46.2908  -28.1805 H       1  UNL1        0.1549
     33 C         -64.6962  -46.9311  -30.1466 C.ar    1  UNL1        0.0535
     34 C         -65.2146  -48.0510  -30.8190 C.ar    1  UNL1        0.0353
     35 C         -65.8295  -47.8839  -32.0625 C.ar    1  UNL1        0.1002
     36 N         -65.9119  -46.6484  -32.6230 N.ar    1  UNL1       -0.2422
     37 C         -65.4028  -45.5507  -32.0041 C.ar    1  UNL1        0.1002
     38 C         -64.7788  -45.6737  -30.7603 C.ar    1  UNL1        0.0353
     39 C         -60.9477  -47.8060  -27.6255 C.3     1  UNL1        0.0569
     40 C         -61.6891  -42.8629  -29.4625 C.ar    1  UNL1        0.0361
     41 C         -61.9464  -44.0875  -30.1391 C.ar    1  UNL1        0.0029
     42 C         -61.6268  -45.3205  -29.5473 C.ar    1  UNL1        0.0013
     43 C         -61.0467  -45.3079  -28.2813 C.ar    1  UNL1        0.0131
     44 C         -60.6879  -46.3385  -27.4329 C.ar    1  UNL1       -0.0017
     45 C         -60.2353  -45.7247  -26.2692 C.ar    1  UNL1        0.0681
     46 N         -60.2932  -44.3789  -26.3930 N.ar    1  UNL1       -0.3523
     47 C         -60.7941  -44.1383  -27.6174 C.ar    1  UNL1        0.0564
     48 C         -61.1021  -42.8982  -28.1735 C.ar    1  UNL1        0.0198
     49 H         -60.0397  -43.6736  -25.6659 H       1  UNL1        0.1660
     50 C         -61.5133  -40.2606  -29.5371 C.3     1  UNL1        0.0773
     51 C         -62.0328  -41.5568  -30.0831 C.2     1  UNL1        0.1735
     52 O         -62.7843  -41.5233  -31.0953 O.2     1  UNL1       -0.2913
@<TRIPOS>BOND
     1    50    51    1
     2    51    52    2
     3    51    40    1
     4    40    41   ar
     5    41    42   ar
     6    42    43   ar
     7    43    44   ar
     8    44    39    1
     9    39    28    1
    10    28     1    1
    11     1     2   am
    12     2     3    2
    13     2     5    1
    14     5     6   ar
    15     6     7   ar
    16     7     8   ar
    17     8    12    1
    18    12    13    1
    19    13    14    1
    20    14    15    1
    21    15    18    1
    22    18    19   ar
    23    19    20   ar
    24    20    21   ar
    25    21    24    1
    26    24    25    1
    27    24    26    1
    28    24    27    1
    29    21    22   ar
    30    22    23   ar
    31    15    16    1
    32    16    17    1
    33     8     9   ar
    34     9    10   ar
    35    10    11    1
    36    28    29    1
    37    29    30    2
    38    29    31   am
    39    31    33    1
    40    33    34   ar
    41    34    35   ar
    42    35    36   ar
    43    36    37   ar
    44    37    38   ar
    45    44    45   ar
    46    45    46   ar
    47    46    47   ar
    48    47    48   ar
    49    48    40   ar
    50    47    43   ar
    51    10     5   ar
    52    38    33   ar
    53    17    12    1
    54    23    18   ar
    55     1     4    1
    56    31    32    1
    57    46    49    1
@<TRIPOS>MOLECULE
*****
 52 57 0 0 0
SMALL
GASTEIGER

@<TRIPOS>ATOM
      1 N         -62.2483  -46.9022  -25.4845 N.am    1  UNL1       -0.2945
      2 C         -61.5201  -46.3481  -24.3741 C.2     1  UNL1        0.2483
      3 O         -60.5091  -46.9538  -23.9241 O.2     1  UNL1       -0.2701
      4 H         -63.1106  -46.4159  -25.8133 H       1  UNL1        0.1501
      5 C         -61.8848  -45.0352  -23.7929 C.ar    1  UNL1        0.0808
      6 C         -62.0970  -44.9388  -22.4074 C.ar    1  UNL1        0.0080
      7 C         -62.4384  -43.7182  -21.8215 C.ar    1  UNL1        0.0148
      8 C         -62.5798  -42.5654  -22.6099 C.ar    1  UNL1        0.0502
      9 C         -62.3621  -42.6574  -23.9939 C.ar    1  UNL1        0.0443
     10 C         -62.0296  -43.8805  -24.5861 C.ar    1  UNL1        0.1457
     11 F         -61.9101  -43.9361  -25.9362 F       1  UNL1       -0.2040
     12 N         -62.9624  -41.3080  -22.0149 N.pl3   1  UNL1       -0.3040
     13 C         -62.0174  -40.5738  -21.1655 C.3     1  UNL1        0.1123
     14 C         -62.7559  -39.9653  -19.9752 C.3     1  UNL1        0.1136
     15 N         -63.9443  -39.2344  -20.4355 N.pl3   1  UNL1       -0.2897
     16 C         -64.8831  -39.9353  -21.3233 C.3     1  UNL1        0.1136
     17 C         -64.1369  -40.5733  -22.4980 C.3     1  UNL1        0.1123
     18 C         -64.3089  -37.9950  -19.7946 C.ar    1  UNL1        0.1318
     19 C         -65.6173  -37.4902  -19.8720 C.ar    1  UNL1        0.0343
     20 C         -65.9314  -36.2883  -19.2360 C.ar    1  UNL1        0.0083
     21 C         -64.9435  -35.5793  -18.5363 C.ar    1  UNL1        0.0906
     22 C         -63.6574  -36.1347  -18.4539 C.ar    1  UNL1        0.1041
     23 N         -63.3752  -37.3074  -19.0803 N.ar    1  UNL1       -0.2292
     24 C         -65.2822  -34.3068  -17.8026 C.3     1  UNL1        0.4200
     25 F         -64.4462  -33.2775  -18.1997 F       1  UNL1       -0.1658
     26 F         -65.1393  -34.4783  -16.4365 F       1  UNL1       -0.1658
     27 F         -66.5906  -33.9566  -18.0785 F       1  UNL1       -0.1658
     28 C         -61.6452  -47.8814  -26.3971 C.3     1  UNL1        0.1535
     29 C         -61.7496  -49.2631  -25.8057 C.2     1  UNL1        0.2443
     30 O         -62.5110  -50.1063  -26.3531 O.2     1  UNL1       -0.2730
     31 N         -60.9491  -49.6390  -24.6713 N.am    1  UNL1       -0.2825
     32 H         -60.1225  -49.0466  -24.4321 H       1  UNL1        0.1549
     33 C         -61.1541  -50.8381  -23.9050 C.ar    1  UNL1        0.0535
     34 C         -60.1949  -51.8649  -23.8745 C.ar    1  UNL1        0.0353
     35 C         -60.4498  -53.0236  -23.1366 C.ar    1  UNL1        0.1002
     36 N         -61.6237  -53.1614  -22.4654 N.ar    1  UNL1       -0.2422
     37 C         -62.5769  -52.1929  -22.4925 C.ar    1  UNL1        0.1002
     38 C         -62.3629  -51.0191  -23.2191 C.ar    1  UNL1        0.0353
     39 C         -62.3203  -47.8231  -27.7817 C.3     1  UNL1        0.0569
     40 C         -64.5500  -43.4532  -29.8532 C.ar    1  UNL1        0.0361
     41 C         -65.1914  -44.6769  -29.5141 C.ar    1  UNL1        0.0029
     42 C         -64.4513  -45.7738  -29.0433 C.ar    1  UNL1        0.0013
     43 C         -63.0715  -45.6290  -28.9230 C.ar    1  UNL1        0.0131
     44 C         -62.1038  -46.4887  -28.4379 C.ar    1  UNL1       -0.0017
     45 C         -60.9113  -45.7732  -28.4829 C.ar    1  UNL1        0.0681
     46 N         -61.1228  -44.5358  -28.9867 N.ar    1  UNL1       -0.3523
     47 C         -62.4403  -44.4581  -29.2441 C.ar    1  UNL1        0.0564
     48 C         -63.1443  -43.3494  -29.7101 C.ar    1  UNL1        0.0198
     49 H         -60.4111  -43.7815  -29.1090 H       1  UNL1        0.1660
     50 C         -64.9172  -40.8774  -30.0509 C.3     1  UNL1        0.0773
     51 C         -65.3313  -42.2882  -30.3447 C.2     1  UNL1        0.1735
     52 O         -66.3756  -42.4775  -31.0260 O.2     1  UNL1       -0.2913
@<TRIPOS>BOND
     1    50    51    1
     2    51    52    2
     3    51    40    1
     4    40    41   ar
     5    41    42   ar
     6    42    43   ar
     7    43    44   ar
     8    44    39    1
     9    39    28    1
    10    28     1    1
    11     1     2   am
    12     2     3    2
    13     2     5    1
    14     5     6   ar
    15     6     7   ar
    16     7     8   ar
    17     8    12    1
    18    12    13    1
    19    13    14    1
    20    14    15    1
    21    15    18    1
    22    18    19   ar
    23    19    20   ar
    24    20    21   ar
    25    21    24    1
    26    24    25    1
    27    24    26    1
    28    24    27    1
    29    21    22   ar
    30    22    23   ar
    31    15    16    1
    32    16    17    1
    33     8     9   ar
    34     9    10   ar
    35    10    11    1
    36    28    29    1
    37    29    30    2
    38    29    31   am
    39    31    33    1
    40    33    34   ar
    41    34    35   ar
    42    35    36   ar
    43    36    37   ar
    44    37    38   ar
    45    44    45   ar
    46    45    46   ar
    47    46    47   ar
    48    47    48   ar
    49    48    40   ar
    50    47    43   ar
    51    10     5   ar
    52    38    33   ar
    53    17    12    1
    54    23    18   ar
    55     1     4    1
    56    31    32    1
    57    46    49    1
@<TRIPOS>MOLECULE
*****
 52 57 0 0 0
SMALL
GASTEIGER

@<TRIPOS>ATOM
      1 N         -61.0819  -47.4832  -24.3810 N.am    1  UNL1       -0.2945
      2 C         -60.1669  -46.3895  -24.1883 C.2     1  UNL1        0.2483
      3 O         -58.9735  -46.4952  -24.5834 O.2     1  UNL1       -0.2701
      4 H         -62.0512  -47.4001  -24.0048 H       1  UNL1        0.1501
      5 C         -60.6158  -45.1045  -23.6041 C.ar    1  UNL1        0.0808
      6 C         -61.0767  -45.0835  -22.2769 C.ar    1  UNL1        0.0080
      7 C         -61.5046  -43.8913  -21.6894 C.ar    1  UNL1        0.0148
      8 C         -61.4856  -42.6919  -22.4185 C.ar    1  UNL1        0.0502
      9 C         -61.0197  -42.7086  -23.7428 C.ar    1  UNL1        0.0443
     10 C         -60.5992  -43.9027  -24.3382 C.ar    1  UNL1        0.1457
     11 F         -60.2356  -43.8828  -25.6450 F       1  UNL1       -0.2040
     12 N         -61.9554  -41.4626  -21.8272 N.pl3   1  UNL1       -0.3040
     13 C         -61.3601  -40.9664  -20.5810 C.3     1  UNL1        0.1123
     14 C         -62.4498  -40.3872  -19.6813 C.3     1  UNL1        0.1136
     15 N         -63.2872  -39.4480  -20.4394 N.pl3   1  UNL1       -0.2897
     16 C         -63.8587  -39.9081  -21.7132 C.3     1  UNL1        0.1136
     17 C         -62.7709  -40.5192  -22.6003 C.3     1  UNL1        0.1123
     18 C         -63.7603  -38.2438  -19.8022 C.ar    1  UNL1        0.1318
     19 C         -64.9385  -38.2366  -19.0376 C.ar    1  UNL1        0.0343
     20 C         -65.3620  -37.0513  -18.4347 C.ar    1  UNL1        0.0083
     21 C         -64.6249  -35.8697  -18.6032 C.ar    1  UNL1        0.0906
     22 C         -63.4356  -35.9267  -19.3460 C.ar    1  UNL1        0.1041
     23 N         -63.0423  -37.0928  -19.9227 N.ar    1  UNL1       -0.2292
     24 C         -65.0439  -34.5955  -17.9155 C.3     1  UNL1        0.4200
     25 F         -65.2744  -34.8207  -16.5693 F       1  UNL1       -0.1658
     26 F         -66.2072  -34.0978  -18.4767 F       1  UNL1       -0.1658
     27 F         -64.0403  -33.6544  -18.0496 F       1  UNL1       -0.1658
     28 C         -60.8428  -48.5275  -25.3848 C.3     1  UNL1        0.1535
     29 C         -61.2132  -49.8741  -24.8196 C.2     1  UNL1        0.2443
     30 O         -60.3763  -50.8152  -24.8843 O.2     1  UNL1       -0.2730
     31 N         -62.4763  -50.0718  -24.1605 N.am    1  UNL1       -0.2825
     32 H         -63.0091  -49.2283  -23.8507 H       1  UNL1        0.1549
     33 C         -63.0058  -51.3613  -23.8085 C.ar    1  UNL1        0.0535
     34 C         -64.1930  -51.8503  -24.3799 C.ar    1  UNL1        0.0353
     35 C         -64.6833  -53.0983  -23.9871 C.ar    1  UNL1        0.1002
     36 N         -64.0232  -53.8266  -23.0483 N.ar    1  UNL1       -0.2422
     37 C         -62.8833  -53.3704  -22.4655 C.ar    1  UNL1        0.1002
     38 C         -62.3597  -52.1272  -22.8284 C.ar    1  UNL1        0.0353
     39 C         -61.6355  -48.2350  -26.6741 C.3     1  UNL1        0.0569
     40 C         -61.6615  -43.2520  -28.5523 C.ar    1  UNL1        0.0361
     41 C         -62.7252  -43.9411  -27.9061 C.ar    1  UNL1        0.0029
     42 C         -62.5907  -45.2880  -27.5315 C.ar    1  UNL1        0.0013
     43 C         -61.3876  -45.9293  -27.8155 C.ar    1  UNL1        0.0131
     44 C         -60.9418  -47.2036  -27.5184 C.ar    1  UNL1       -0.0017
     45 C         -59.6289  -47.2566  -27.9761 C.ar    1  UNL1        0.0681
     46 N         -59.2801  -46.0800  -28.5451 N.ar    1  UNL1       -0.3523
     47 C         -60.3550  -45.2797  -28.4354 C.ar    1  UNL1        0.0564
     48 C         -60.4532  -43.9430  -28.8169 C.ar    1  UNL1        0.0198
     49 H         -58.3490  -45.8333  -28.9482 H       1  UNL1        0.1660
     50 C         -62.8813  -41.3584  -29.8694 C.3     1  UNL1        0.0773
     51 C         -61.7980  -41.8246  -28.9435 C.2     1  UNL1        0.1735
     52 O         -60.9846  -40.9720  -28.4941 O.2     1  UNL1       -0.2913
@<TRIPOS>BOND
     1    50    51    1
     2    51    52    2
     3    51    40    1
     4    40    41   ar
     5    41    42   ar
     6    42    43   ar
     7    43    44   ar
     8    44    39    1
     9    39    28    1
    10    28     1    1
    11     1     2   am
    12     2     3    2
    13     2     5    1
    14     5     6   ar
    15     6     7   ar
    16     7     8   ar
    17     8    12    1
    18    12    13    1
    19    13    14    1
    20    14    15    1
    21    15    18    1
    22    18    19   ar
    23    19    20   ar
    24    20    21   ar
    25    21    24    1
    26    24    25    1
    27    24    26    1
    28    24    27    1
    29    21    22   ar
    30    22    23   ar
    31    15    16    1
    32    16    17    1
    33     8     9   ar
    34     9    10   ar
    35    10    11    1
    36    28    29    1
    37    29    30    2
    38    29    31   am
    39    31    33    1
    40    33    34   ar
    41    34    35   ar
    42    35    36   ar
    43    36    37   ar
    44    37    38   ar
    45    44    45   ar
    46    45    46   ar
    47    46    47   ar
    48    47    48   ar
    49    48    40   ar
    50    47    43   ar
    51    10     5   ar
    52    38    33   ar
    53    17    12    1
    54    23    18   ar
    55     1     4    1
    56    31    32    1
    57    46    49    1
@<TRIPOS>MOLECULE
*****
 52 57 0 0 0
SMALL
GASTEIGER

@<TRIPOS>ATOM
      1 N         -61.9257  -46.8855  -25.9547 N.am    1  UNL1       -0.2945
      2 C         -61.0912  -46.4345  -24.8727 C.2     1  UNL1        0.2483
      3 O         -60.0003  -47.0224  -24.6370 O.2     1  UNL1       -0.2701
      4 H         -62.8475  -46.4213  -26.1060 H       1  UNL1        0.1501
      5 C         -61.4471  -45.2393  -24.0732 C.ar    1  UNL1        0.0808
      6 C         -62.2758  -45.3937  -22.9491 C.ar    1  UNL1        0.0080
      7 C         -62.6304  -44.2920  -22.1680 C.ar    1  UNL1        0.0148
      8 C         -62.1672  -43.0082  -22.4964 C.ar    1  UNL1        0.0502
      9 C         -61.3337  -42.8519  -23.6154 C.ar    1  UNL1        0.0443
     10 C         -60.9841  -43.9516  -24.4063 C.ar    1  UNL1        0.1457
     11 F         -60.2447  -43.7381  -25.5234 F       1  UNL1       -0.2040
     12 N         -62.5551  -41.8616  -21.7113 N.pl3   1  UNL1       -0.3040
     13 C         -63.9622  -41.6544  -21.3500 C.3     1  UNL1        0.1123
     14 C         -64.3100  -40.1708  -21.4519 C.3     1  UNL1        0.1136
     15 N         -63.3126  -39.3657  -20.7342 N.pl3   1  UNL1       -0.2897
     16 C         -61.8935  -39.5870  -21.0477 C.3     1  UNL1        0.1136
     17 C         -61.5544  -41.0782  -20.9780 C.3     1  UNL1        0.1123
     18 C         -63.7385  -38.2100  -19.9840 C.ar    1  UNL1        0.1318
     19 C         -64.8660  -38.2570  -19.1477 C.ar    1  UNL1        0.0343
     20 C         -65.2447  -37.1177  -18.4361 C.ar    1  UNL1        0.0083
     21 C         -64.5138  -35.9274  -18.5661 C.ar    1  UNL1        0.0906
     22 C         -63.3741  -35.9316  -19.3849 C.ar    1  UNL1        0.1041
     23 N         -63.0238  -37.0536  -20.0672 N.ar    1  UNL1       -0.2292
     24 C         -64.8822  -34.7055  -17.7640 C.3     1  UNL1        0.4200
     25 F         -65.0638  -35.0331  -16.4314 F       1  UNL1       -0.1658
     26 F         -66.0574  -34.1474  -18.2368 F       1  UNL1       -0.1658
     27 F         -63.8676  -33.7720  -17.8643 F       1  UNL1       -0.1658
     28 C         -61.3939  -47.6900  -27.0617 C.3     1  UNL1        0.1535
     29 C         -62.4787  -47.9447  -28.0756 C.2     1  UNL1        0.2443
     30 O         -62.7250  -49.1320  -28.4220 O.2     1  UNL1       -0.2730
     31 N         -63.2658  -46.8597  -28.5974 N.am    1  UNL1       -0.2825
     32 H         -63.2567  -45.9508  -28.0826 H       1  UNL1        0.1549
     33 C         -64.1466  -46.9770  -29.7277 C.ar    1  UNL1        0.0535
     34 C         -64.7177  -48.2087  -30.0909 C.ar    1  UNL1        0.0353
     35 C         -65.5470  -48.2789  -31.2132 C.ar    1  UNL1        0.1002
     36 N         -65.7871  -47.1660  -31.9556 N.ar    1  UNL1       -0.2422
     37 C         -65.2334  -45.9660  -31.6387 C.ar    1  UNL1        0.1002
     38 C         -64.3973  -45.8521  -30.5254 C.ar    1  UNL1        0.0353
     39 C         -60.1857  -46.9885  -27.7131 C.3     1  UNL1        0.0569
     40 C         -60.0567  -44.1306  -32.2047 C.ar    1  UNL1        0.0361
     41 C         -59.2717  -45.2716  -31.8796 C.ar    1  UNL1        0.0029
     42 C         -59.3666  -45.8772  -30.6160 C.ar    1  UNL1        0.0013
     43 C         -60.2481  -45.3247  -29.6901 C.ar    1  UNL1        0.0131
     44 C         -60.6016  -45.7270  -28.4157 C.ar    1  UNL1       -0.0017
     45 C         -61.5893  -44.8380  -28.0034 C.ar    1  UNL1        0.0681
     46 N         -61.8270  -43.9179  -28.9661 N.ar    1  UNL1       -0.3523
     47 C         -61.0106  -44.2283  -29.9883 C.ar    1  UNL1        0.0564
     48 C         -60.9442  -43.6055  -31.2332 C.ar    1  UNL1        0.0198
     49 H         -62.5334  -43.1495  -28.9343 H       1  UNL1        0.1660
     50 C         -61.1381  -43.4310  -34.4740 C.3     1  UNL1        0.0773
     51 C         -59.9639  -43.4920  -33.5436 C.2     1  UNL1        0.1735
     52 O         -58.8720  -42.9865  -33.9216 O.2     1  UNL1       -0.2913
@<TRIPOS>BOND
     1    50    51    1
     2    51    52    2
     3    51    40    1
     4    40    41   ar
     5    41    42   ar
     6    42    43   ar
     7    43    44   ar
     8    44    39    1
     9    39    28    1
    10    28     1    1
    11     1     2   am
    12     2     3    2
    13     2     5    1
    14     5     6   ar
    15     6     7   ar
    16     7     8   ar
    17     8    12    1
    18    12    13    1
    19    13    14    1
    20    14    15    1
    21    15    18    1
    22    18    19   ar
    23    19    20   ar
    24    20    21   ar
    25    21    24    1
    26    24    25    1
    27    24    26    1
    28    24    27    1
    29    21    22   ar
    30    22    23   ar
    31    15    16    1
    32    16    17    1
    33     8     9   ar
    34     9    10   ar
    35    10    11    1
    36    28    29    1
    37    29    30    2
    38    29    31   am
    39    31    33    1
    40    33    34   ar
    41    34    35   ar
    42    35    36   ar
    43    36    37   ar
    44    37    38   ar
    45    44    45   ar
    46    45    46   ar
    47    46    47   ar
    48    47    48   ar
    49    48    40   ar
    50    47    43   ar
    51    10     5   ar
    52    38    33   ar
    53    17    12    1
    54    23    18   ar
    55     1     4    1
    56    31    32    1
    57    46    49    1
