@<TRIPOS>MOLECULE
*****
 45 50 0 0 0
SMALL
GASTEIGER

@<TRIPOS>ATOM
      1 C          61.9131   87.9121    9.9148 C.ar    1  UNL1        0.0702
      2 C          60.7868   88.0484    9.0886 C.ar    1  UNL1        0.0191
      3 C          60.0245   86.9290    8.7515 C.ar    1  UNL1        0.0356
      4 C          60.3812   85.6661    9.2558 C.ar    1  UNL1        0.1318
      5 N          61.4707   85.5646   10.0682 N.ar    1  UNL1       -0.2279
      6 C          62.2275   86.6406   10.4094 C.ar    1  UNL1        0.1149
      7 N          59.6185   84.4833    8.9296 N.pl3   1  UNL1       -0.2932
      8 C          60.3118   83.2021    8.7254 C.3     1  UNL1        0.0923
      9 C          59.5784   82.3686    7.6700 C.3     1  UNL1        0.0252
     10 C          58.0856   82.1266    8.0239 C.3     1  UNL1        0.0472
     11 C          57.5479   83.1247    9.0775 C.3     1  UNL1        0.0252
     12 C          58.1462   84.5243    8.9003 C.3     1  UNL1        0.0923
     13 C          57.8567   80.6782    8.4863 C.3     1  UNL1        0.2054
     14 O          58.1394   80.5630    9.8794 O.3     1  UNL1       -0.4750
     15 C          59.4252   80.4429   10.4280 C.ar    1  UNL1        0.1440
     16 C          60.3992   79.5855    9.8774 C.ar    1  UNL1        0.0438
     17 C          61.6786   79.4877   10.4553 C.ar    1  UNL1        0.0785
     18 C          61.9792   80.2739   11.5803 C.ar    1  UNL1        0.0071
     19 C          61.0171   81.1237   12.1284 C.ar    1  UNL1        0.0090
     20 C          59.7445   81.2074   11.5590 C.ar    1  UNL1        0.0640
     21 I          58.3182   82.5110   12.4193 I       1  UNL1       -0.0394
     22 C          62.7124   78.5907    9.8833 C.2     1  UNL1        0.3381
     23 O          63.5065   79.0298    9.0094 O.2     1  UNL1       -0.2451
     24 O          62.8464   77.2659   10.2979 O.3     1  UNL1       -0.4771
     25 H          62.3163   76.8792   11.0681 H       1  UNL1        0.2954
     26 C          62.5076   89.7820   11.5192 C.2     1  UNL1        0.2839
     27 O          61.3713   89.8002   12.0643 O.2     1  UNL1       -0.2665
     28 N          62.7083   89.0453   10.3037 N.am    1  UNL1       -0.2766
     29 H          63.3984   89.4209    9.6154 H       1  UNL1        0.1553
     30 C          64.1875   89.1718   14.2146 C.3     1  UNL1        0.0345
     31 C          64.3225   90.3273   13.2693 C.ar    1  UNL1        0.0202
     32 C          63.5883   90.5932   12.1066 C.ar    1  UNL1        0.1946
     33 O          63.9910   91.7312   11.5687 O.2     1  UNL1       -0.4492
     34 C          64.9628   92.2054   12.3093 C.ar    1  UNL1        0.1452
     35 C          65.6827   93.3783   12.1100 C.ar    1  UNL1        0.0375
     36 C          66.6928   93.6977   13.0341 C.ar    1  UNL1        0.0031
     37 C          66.9675   92.8448   14.1375 C.ar    1  UNL1        0.0002
     38 C          66.2101   91.6604   14.3036 C.ar    1  UNL1        0.0028
     39 C          65.2155   91.3757   13.3677 C.ar    1  UNL1        0.0337
     40 C          68.0378   93.1917   15.1066 C.ar    1  UNL1        0.0000
     41 C          68.3365   94.5378   15.3915 C.ar    1  UNL1        0.0000
     42 C          69.3450   94.8616   16.3044 C.ar    1  UNL1        0.0000
     43 C          70.0660   93.8490   16.9409 C.ar    1  UNL1        0.0000
     44 C          69.7798   92.5099   16.6662 C.ar    1  UNL1        0.0000
     45 C          68.7717   92.1802   15.7550 C.ar    1  UNL1        0.0000
@<TRIPOS>BOND
     1    30    31    1
     2    31    32   ar
     3    32    26    1
     4    26    27    2
     5    26    28   am
     6    28     1    1
     7     1     2   ar
     8     2     3   ar
     9     3     4   ar
    10     4     7    1
    11     7     8    1
    12     8     9    1
    13     9    10    1
    14    10    13    1
    15    13    14    1
    16    14    15    1
    17    15    16   ar
    18    16    17   ar
    19    17    22    1
    20    22    23    2
    21    22    24    1
    22    17    18   ar
    23    18    19   ar
    24    19    20   ar
    25    20    21    1
    26    10    11    1
    27    11    12    1
    28     4     5   ar
    29     5     6   ar
    30    32    33   ar
    31    33    34   ar
    32    34    35   ar
    33    35    36   ar
    34    36    37   ar
    35    37    40    1
    36    40    41   ar
    37    41    42   ar
    38    42    43   ar
    39    43    44   ar
    40    44    45   ar
    41    37    38   ar
    42    38    39   ar
    43    39    31   ar
    44     6     1   ar
    45    39    34   ar
    46    12     7    1
    47    45    40   ar
    48    20    15   ar
    49    28    29    1
    50    24    25    1
@<TRIPOS>MOLECULE
*****
 45 50 0 0 0
SMALL
GASTEIGER

@<TRIPOS>ATOM
      1 C          61.9559   87.8290    9.8380 C.ar    1  UNL1        0.0702
      2 C          60.8759   87.9434    8.9491 C.ar    1  UNL1        0.0191
      3 C          60.1425   86.8124    8.5871 C.ar    1  UNL1        0.0356
      4 C          60.4814   85.5601    9.1287 C.ar    1  UNL1        0.1318
      5 N          61.5253   85.4800   10.0012 N.ar    1  UNL1       -0.2279
      6 C          62.2532   86.5675   10.3676 C.ar    1  UNL1        0.1149
      7 N          59.7477   84.3659    8.7784 N.pl3   1  UNL1       -0.2932
      8 C          60.3782   83.0475    8.9457 C.3     1  UNL1        0.0923
      9 C          59.8859   82.0864    7.8592 C.3     1  UNL1        0.0252
     10 C          58.3392   81.9480    7.8329 C.3     1  UNL1        0.0472
     11 C          57.6189   83.1112    8.5565 C.3     1  UNL1        0.0252
     12 C          58.3397   84.4480    8.3528 C.3     1  UNL1        0.0923
     13 C          57.8971   80.5947    8.4138 C.3     1  UNL1        0.2054
     14 O          57.2773   80.7905    9.6831 O.3     1  UNL1       -0.4750
     15 C          57.9278   81.2850   10.8238 C.ar    1  UNL1        0.1440
     16 C          57.9684   82.6608   11.1277 C.ar    1  UNL1        0.0438
     17 C          58.6324   83.1223   12.2794 C.ar    1  UNL1        0.0785
     18 C          59.2393   82.1879   13.1355 C.ar    1  UNL1        0.0071
     19 C          59.2014   80.8249   12.8375 C.ar    1  UNL1        0.0090
     20 C          58.5523   80.3730   11.6863 C.ar    1  UNL1        0.0640
     21 I          58.5156   78.2985   11.2753 I       1  UNL1       -0.0394
     22 C          58.6798   84.5674   12.6107 C.2     1  UNL1        0.3381
     23 O          57.6709   85.1254   13.1188 O.2     1  UNL1       -0.2451
     24 O          59.8235   85.3345   12.3906 O.3     1  UNL1       -0.4771
     25 H          60.7004   84.9313   12.0872 H       1  UNL1        0.2954
     26 C          62.5270   89.6507   11.5050 C.2     1  UNL1        0.2839
     27 O          61.4077   89.6015   12.0822 O.2     1  UNL1       -0.2665
     28 N          62.7191   88.9748   10.2533 N.am    1  UNL1       -0.2766
     29 H          63.3737   89.4059    9.5629 H       1  UNL1        0.1553
     30 C          64.1966   89.0717   14.2137 C.3     1  UNL1        0.0345
     31 C          64.3232   90.2254   13.2651 C.ar    1  UNL1        0.0202
     32 C          63.5935   90.4778   12.0965 C.ar    1  UNL1        0.1946
     33 O          63.9852   91.6189   11.5572 O.2     1  UNL1       -0.4492
     34 C          64.9460   92.1081   12.3024 C.ar    1  UNL1        0.1452
     35 C          65.6522   93.2893   12.1036 C.ar    1  UNL1        0.0375
     36 C          66.6521   93.6249   13.0332 C.ar    1  UNL1        0.0031
     37 C          66.9302   92.7795   14.1414 C.ar    1  UNL1        0.0002
     38 C          66.1868   91.5861   14.3069 C.ar    1  UNL1        0.0028
     39 C          65.2022   91.2855   13.3655 C.ar    1  UNL1        0.0337
     40 C          67.9896   93.1435   15.1163 C.ar    1  UNL1        0.0000
     41 C          68.6822   92.1445   15.8267 C.ar    1  UNL1        0.0000
     42 C          69.6792   92.4901   16.7442 C.ar    1  UNL1        0.0000
     43 C          69.9951   93.8326   16.9638 C.ar    1  UNL1        0.0000
     44 C          69.3147   94.8329   16.2658 C.ar    1  UNL1        0.0000
     45 C          68.3174   94.4931   15.3464 C.ar    1  UNL1        0.0000
@<TRIPOS>BOND
     1    30    31    1
     2    31    32   ar
     3    32    26    1
     4    26    27    2
     5    26    28   am
     6    28     1    1
     7     1     2   ar
     8     2     3   ar
     9     3     4   ar
    10     4     7    1
    11     7     8    1
    12     8     9    1
    13     9    10    1
    14    10    13    1
    15    13    14    1
    16    14    15    1
    17    15    16   ar
    18    16    17   ar
    19    17    22    1
    20    22    23    2
    21    22    24    1
    22    17    18   ar
    23    18    19   ar
    24    19    20   ar
    25    20    21    1
    26    10    11    1
    27    11    12    1
    28     4     5   ar
    29     5     6   ar
    30    32    33   ar
    31    33    34   ar
    32    34    35   ar
    33    35    36   ar
    34    36    37   ar
    35    37    40    1
    36    40    41   ar
    37    41    42   ar
    38    42    43   ar
    39    43    44   ar
    40    44    45   ar
    41    37    38   ar
    42    38    39   ar
    43    39    31   ar
    44     6     1   ar
    45    39    34   ar
    46    12     7    1
    47    45    40   ar
    48    20    15   ar
    49    28    29    1
    50    24    25    1
@<TRIPOS>MOLECULE
*****
 45 50 0 0 0
SMALL
GASTEIGER

@<TRIPOS>ATOM
      1 C          59.4991   87.1918    8.2003 C.ar    1  UNL1        0.0702
      2 C          60.7663   86.8596    8.7038 C.ar    1  UNL1        0.0191
      3 C          60.8905   85.9142    9.7230 C.ar    1  UNL1        0.0356
      4 C          59.7413   85.2849   10.2326 C.ar    1  UNL1        0.1318
      5 N          58.5246   85.6151    9.7150 N.ar    1  UNL1       -0.2279
      6 C          58.3799   86.5326    8.7230 C.ar    1  UNL1        0.1149
      7 N          59.8276   84.3018   11.2878 N.pl3   1  UNL1       -0.2932
      8 C          59.9489   82.8759   10.9476 C.3     1  UNL1        0.0923
      9 C          59.2363   82.0208   12.0000 C.3     1  UNL1        0.0252
     10 C          59.7563   82.2805   13.4403 C.3     1  UNL1        0.0472
     11 C          60.5156   83.6226   13.5726 C.3     1  UNL1        0.0252
     12 C          59.8988   84.7198   12.6986 C.3     1  UNL1        0.0923
     13 C          60.6316   81.1146   13.9287 C.3     1  UNL1        0.2054
     14 O          61.6141   80.7996   12.9441 O.3     1  UNL1       -0.4750
     15 C          62.6792   81.6371   12.5796 C.ar    1  UNL1        0.1440
     16 C          63.2388   82.5722   13.4736 C.ar    1  UNL1        0.0438
     17 C          64.3053   83.3986   13.0734 C.ar    1  UNL1        0.0785
     18 C          64.8193   83.2644   11.7727 C.ar    1  UNL1        0.0071
     19 C          64.2674   82.3398   10.8847 C.ar    1  UNL1        0.0090
     20 C          63.2004   81.5311   11.2824 C.ar    1  UNL1        0.0640
     21 I          62.3971   80.1405    9.9059 I       1  UNL1       -0.0394
     22 C          64.9037   84.3847   14.0062 C.2     1  UNL1        0.3381
     23 O          64.1624   85.2109   14.6021 O.2     1  UNL1       -0.2451
     24 O          66.2744   84.4171   14.2608 O.3     1  UNL1       -0.4771
     25 H          66.9124   83.7185   13.9021 H       1  UNL1        0.2954
     26 C          59.8380   89.4856    7.1770 C.2     1  UNL1        0.2839
     27 O          60.0187   90.0556    8.2865 O.2     1  UNL1       -0.2665
     28 N          59.3335   88.1425    7.1342 N.am    1  UNL1       -0.2766
     29 H          58.7201   87.8784    6.3310 H       1  UNL1        0.1553
     30 C          57.6227   90.6840    5.1481 C.3     1  UNL1        0.0345
     31 C          59.1164   90.7779    5.0642 C.ar    1  UNL1        0.0202
     32 C          60.0740   90.2513    5.9403 C.ar    1  UNL1        0.1946
     33 O          61.2890   90.5251    5.4986 O.2     1  UNL1       -0.4492
     34 C          61.1692   91.2208    4.3944 C.ar    1  UNL1        0.1452
     35 C          62.1912   91.7256    3.5981 C.ar    1  UNL1        0.0375
     36 C          61.8346   92.4517    2.4482 C.ar    1  UNL1        0.0031
     37 C          60.4693   92.6617    2.1133 C.ar    1  UNL1        0.0002
     38 C          59.4600   92.1296    2.9512 C.ar    1  UNL1        0.0028
     39 C          59.8508   91.4142    4.0833 C.ar    1  UNL1        0.0337
     40 C          60.1044   93.4314    0.8969 C.ar    1  UNL1        0.0000
     41 C          58.7758   93.8463    0.6842 C.ar    1  UNL1        0.0000
     42 C          58.4350   94.5708   -0.4621 C.ar    1  UNL1        0.0000
     43 C          59.4127   94.8880   -1.4075 C.ar    1  UNL1        0.0000
     44 C          60.7340   94.4815   -1.2084 C.ar    1  UNL1        0.0000
     45 C          61.0808   93.7576   -0.0635 C.ar    1  UNL1        0.0000
@<TRIPOS>BOND
     1    30    31    1
     2    31    32   ar
     3    32    26    1
     4    26    27    2
     5    26    28   am
     6    28     1    1
     7     1     2   ar
     8     2     3   ar
     9     3     4   ar
    10     4     7    1
    11     7     8    1
    12     8     9    1
    13     9    10    1
    14    10    13    1
    15    13    14    1
    16    14    15    1
    17    15    16   ar
    18    16    17   ar
    19    17    22    1
    20    22    23    2
    21    22    24    1
    22    17    18   ar
    23    18    19   ar
    24    19    20   ar
    25    20    21    1
    26    10    11    1
    27    11    12    1
    28     4     5   ar
    29     5     6   ar
    30    32    33   ar
    31    33    34   ar
    32    34    35   ar
    33    35    36   ar
    34    36    37   ar
    35    37    40    1
    36    40    41   ar
    37    41    42   ar
    38    42    43   ar
    39    43    44   ar
    40    44    45   ar
    41    37    38   ar
    42    38    39   ar
    43    39    31   ar
    44     6     1   ar
    45    39    34   ar
    46    12     7    1
    47    45    40   ar
    48    20    15   ar
    49    28    29    1
    50    24    25    1
@<TRIPOS>MOLECULE
*****
 45 50 0 0 0
SMALL
GASTEIGER

@<TRIPOS>ATOM
      1 C          59.3935   88.2553    7.0094 C.ar    1  UNL1        0.0702
      2 C          60.1776   88.5198    8.1430 C.ar    1  UNL1        0.0191
      3 C          60.1670   87.6378    9.2247 C.ar    1  UNL1        0.0356
      4 C          59.3787   86.4753    9.1674 C.ar    1  UNL1        0.1318
      5 N          58.6386   86.2353    8.0485 N.ar    1  UNL1       -0.2279
      6 C          58.6333   87.0798    6.9838 C.ar    1  UNL1        0.1149
      7 N          59.3398   85.5381   10.2662 N.pl3   1  UNL1       -0.2932
      8 C          60.2319   84.3686   10.2589 C.3     1  UNL1        0.0923
      9 C          59.5474   83.1796   10.9402 C.3     1  UNL1        0.0252
     10 C          59.0846   83.4991   12.3879 C.3     1  UNL1        0.0472
     11 C          58.9862   85.0184   12.6662 C.3     1  UNL1        0.0252
     12 C          58.4903   85.7954   11.4420 C.3     1  UNL1        0.0923
     13 C          59.9980   82.8192   13.4211 C.3     1  UNL1        0.2054
     14 O          61.3651   83.0455   13.0839 O.3     1  UNL1       -0.4750
     15 C          62.2324   83.8963   13.7858 C.ar    1  UNL1        0.1440
     16 C          61.8345   84.5749   14.9555 C.ar    1  UNL1        0.0438
     17 C          62.7300   85.4231   15.6331 C.ar    1  UNL1        0.0785
     18 C          64.0366   85.5691   15.1372 C.ar    1  UNL1        0.0071
     19 C          64.4338   84.8990   13.9790 C.ar    1  UNL1        0.0090
     20 C          63.5372   84.0686   13.3028 C.ar    1  UNL1        0.0640
     21 I          64.1823   83.0691   11.5539 I       1  UNL1       -0.0394
     22 C          62.3234   86.1405   16.8661 C.2     1  UNL1        0.3381
     23 O          61.1134   86.1436   17.2170 O.2     1  UNL1       -0.2451
     24 O          63.2499   86.8061   17.6682 O.3     1  UNL1       -0.4771
     25 H          64.2474   86.7552   17.5064 H       1  UNL1        0.2954
     26 C          59.5179   90.5551    5.9516 C.2     1  UNL1        0.2839
     27 O          59.1500   91.1569    6.9962 O.2     1  UNL1       -0.2665
     28 N          59.3973   89.1273    5.8661 N.am    1  UNL1       -0.2766
     29 H          59.1921   88.7115    4.9301 H       1  UNL1        0.1553
     30 C          62.4155   90.4252    4.5210 C.3     1  UNL1        0.0345
     31 C          61.2407   91.2908    4.1783 C.ar    1  UNL1        0.0202
     32 C          59.9893   91.3507    4.8044 C.ar    1  UNL1        0.1946
     33 O          59.2362   92.2670    4.2216 O.2     1  UNL1       -0.4492
     34 C          59.9256   92.7884    3.2365 C.ar    1  UNL1        0.1452
     35 C          59.5195   93.7831    2.3538 C.ar    1  UNL1        0.0375
     36 C          60.4262   94.1958    1.3619 C.ar    1  UNL1        0.0031
     37 C          61.7183   93.6111    1.2669 C.ar    1  UNL1        0.0002
     38 C          62.0919   92.6017    2.1864 C.ar    1  UNL1        0.0028
     39 C          61.1668   92.2178    3.1576 C.ar    1  UNL1        0.0337
     40 C          62.6674   94.0540    0.2142 C.ar    1  UNL1        0.0000
     41 C          62.2098   94.3463   -1.0849 C.ar    1  UNL1        0.0000
     42 C          63.1057   94.7630   -2.0743 C.ar    1  UNL1        0.0000
     43 C          64.4649   94.8914   -1.7803 C.ar    1  UNL1        0.0000
     44 C          64.9314   94.6037   -0.4956 C.ar    1  UNL1        0.0000
     45 C          64.0399   94.1875    0.4980 C.ar    1  UNL1        0.0000
@<TRIPOS>BOND
     1    30    31    1
     2    31    32   ar
     3    32    26    1
     4    26    27    2
     5    26    28   am
     6    28     1    1
     7     1     2   ar
     8     2     3   ar
     9     3     4   ar
    10     4     7    1
    11     7     8    1
    12     8     9    1
    13     9    10    1
    14    10    13    1
    15    13    14    1
    16    14    15    1
    17    15    16   ar
    18    16    17   ar
    19    17    22    1
    20    22    23    2
    21    22    24    1
    22    17    18   ar
    23    18    19   ar
    24    19    20   ar
    25    20    21    1
    26    10    11    1
    27    11    12    1
    28     4     5   ar
    29     5     6   ar
    30    32    33   ar
    31    33    34   ar
    32    34    35   ar
    33    35    36   ar
    34    36    37   ar
    35    37    40    1
    36    40    41   ar
    37    41    42   ar
    38    42    43   ar
    39    43    44   ar
    40    44    45   ar
    41    37    38   ar
    42    38    39   ar
    43    39    31   ar
    44     6     1   ar
    45    39    34   ar
    46    12     7    1
    47    45    40   ar
    48    20    15   ar
    49    28    29    1
    50    24    25    1
@<TRIPOS>MOLECULE
*****
 45 50 0 0 0
SMALL
GASTEIGER

@<TRIPOS>ATOM
      1 C          61.8690   87.5823   10.5198 C.ar    1  UNL1        0.0702
      2 C          60.6190   87.7021    9.8930 C.ar    1  UNL1        0.0191
      3 C          59.8425   86.5672    9.6539 C.ar    1  UNL1        0.0356
      4 C          60.3117   85.3049   10.0575 C.ar    1  UNL1        0.1318
      5 N          61.5222   85.2191   10.6776 N.ar    1  UNL1       -0.2279
      6 C          62.2951   86.3102   10.9204 C.ar    1  UNL1        0.1149
      7 N          59.5384   84.1064    9.8275 N.pl3   1  UNL1       -0.2932
      8 C          60.1517   82.9659    9.1298 C.3     1  UNL1        0.0923
      9 C          59.0978   82.2290    8.2974 C.3     1  UNL1        0.0252
     10 C          57.8835   81.7576    9.1432 C.3     1  UNL1        0.0472
     11 C          57.7650   82.5045   10.4935 C.3     1  UNL1        0.0252
     12 C          58.1766   83.9757   10.3739 C.3     1  UNL1        0.0923
     13 C          57.9262   80.2374    9.3692 C.3     1  UNL1        0.2054
     14 O          59.2410   79.8404    9.7532 O.3     1  UNL1       -0.4750
     15 C          59.7362   79.8747   11.0655 C.ar    1  UNL1        0.1440
     16 C          58.9351   79.5499   12.1789 C.ar    1  UNL1        0.0438
     17 C          59.4640   79.5974   13.4822 C.ar    1  UNL1        0.0785
     18 C          60.8115   79.9550   13.6572 C.ar    1  UNL1        0.0071
     19 C          61.6076   80.2777   12.5570 C.ar    1  UNL1        0.0090
     20 C          61.0743   80.2416   11.2667 C.ar    1  UNL1        0.0640
     21 I          62.3173   80.7342    9.6277 I       1  UNL1       -0.0394
     22 C          58.6313   79.2555   14.6612 C.2     1  UNL1        0.3381
     23 O          58.1431   80.1761   15.3695 O.2     1  UNL1       -0.2451
     24 O          58.3540   77.9331   15.0062 O.3     1  UNL1       -0.4771
     25 H          58.6223   77.1500   14.4244 H       1  UNL1        0.2954
     26 C          62.4821   89.5953   11.9325 C.2     1  UNL1        0.2839
     27 O          61.3369   89.6976   12.4488 O.2     1  UNL1       -0.2665
     28 N          62.6861   88.7308   10.8049 N.am    1  UNL1       -0.2766
     29 H          63.3982   89.0156   10.0958 H       1  UNL1        0.1553
     30 C          64.3020   89.0628   14.5525 C.3     1  UNL1        0.0345
     31 C          64.3671   90.2054   13.5843 C.ar    1  UNL1        0.0202
     32 C          63.5726   90.4377   12.4545 C.ar    1  UNL1        0.1946
     33 O          63.9249   91.5748   11.8807 O.2     1  UNL1       -0.4492
     34 C          64.9210   92.0805   12.5662 C.ar    1  UNL1        0.1452
     35 C          65.6056   93.2643   12.3146 C.ar    1  UNL1        0.0375
     36 C          66.6520   93.6190   13.1839 C.ar    1  UNL1        0.0031
     37 C          66.9972   92.7897   14.2854 C.ar    1  UNL1        0.0002
     38 C          66.2738   91.5931   14.5059 C.ar    1  UNL1        0.0028
     39 C          65.2416   91.2732   13.6235 C.ar    1  UNL1        0.0337
     40 C          68.1054   93.1739   15.1963 C.ar    1  UNL1        0.0000
     41 C          68.3905   94.5302   15.4442 C.ar    1  UNL1        0.0000
     42 C          69.4347   94.8890   16.3022 C.ar    1  UNL1        0.0000
     43 C          70.2050   93.9016   16.9203 C.ar    1  UNL1        0.0000
     44 C          69.9326   92.5527   16.6819 C.ar    1  UNL1        0.0000
     45 C          68.8891   92.1880   15.8255 C.ar    1  UNL1        0.0000
@<TRIPOS>BOND
     1    30    31    1
     2    31    32   ar
     3    32    26    1
     4    26    27    2
     5    26    28   am
     6    28     1    1
     7     1     2   ar
     8     2     3   ar
     9     3     4   ar
    10     4     7    1
    11     7     8    1
    12     8     9    1
    13     9    10    1
    14    10    13    1
    15    13    14    1
    16    14    15    1
    17    15    16   ar
    18    16    17   ar
    19    17    22    1
    20    22    23    2
    21    22    24    1
    22    17    18   ar
    23    18    19   ar
    24    19    20   ar
    25    20    21    1
    26    10    11    1
    27    11    12    1
    28     4     5   ar
    29     5     6   ar
    30    32    33   ar
    31    33    34   ar
    32    34    35   ar
    33    35    36   ar
    34    36    37   ar
    35    37    40    1
    36    40    41   ar
    37    41    42   ar
    38    42    43   ar
    39    43    44   ar
    40    44    45   ar
    41    37    38   ar
    42    38    39   ar
    43    39    31   ar
    44     6     1   ar
    45    39    34   ar
    46    12     7    1
    47    45    40   ar
    48    20    15   ar
    49    28    29    1
    50    24    25    1
