@<TRIPOS>MOLECULE
*****
 32 35 0 0 0
SMALL
GASTEIGER

@<TRIPOS>ATOM
      1 N          47.5346   13.3168  -26.1586 N.ar    1  UNL1       -0.3243
      2 C          47.7421   14.6262  -26.4499 C.ar    1  UNL1        0.0600
      3 C          46.8067   15.5687  -26.8884 C.ar    1  UNL1        0.0177
      4 C          47.2478   16.8858  -27.1117 C.ar    1  UNL1        0.0082
      5 C          48.5980   17.2393  -26.8919 C.ar    1  UNL1        0.0347
      6 BR         49.1689   19.0372  -27.1844 Br      1  UNL1       -0.0490
      7 C          49.5227   16.2770  -26.4480 C.ar    1  UNL1        0.0082
      8 C          49.0592   14.9796  -26.2390 C.ar    1  UNL1        0.0177
      9 C          49.6966   13.8458  -25.7905 C.ar    1  UNL1        0.0177
     10 C          51.0109   13.6291  -25.3964 C.ar    1  UNL1        0.0079
     11 C          51.3696   12.3464  -24.9432 C.ar    1  UNL1        0.0307
     12 BR         53.1966   12.1073  -24.4029 Br      1  UNL1       -0.0493
     13 C          50.3971   11.2976  -24.8930 C.ar    1  UNL1       -0.0148
     14 C          49.0689   11.5676  -25.3100 C.ar    1  UNL1        0.0134
     15 C          48.7449   12.8517  -25.7519 C.ar    1  UNL1        0.0597
     16 C          50.7444    9.9034  -24.3878 C.3     1  UNL1        0.0229
     17 C          49.8267    9.4940  -23.2286 C.3     1  UNL1        0.0047
     18 C          50.6906    8.8733  -25.5232 C.3     1  UNL1        0.0047
     19 C          46.2560   12.5962  -26.1958 C.3     1  UNL1        0.1429
     20 C          45.4643   12.8051  -24.8965 C.3     1  UNL1        0.2027
     21 F          44.1403   12.4670  -25.1201 F       1  UNL1       -0.2334
     22 C          46.0117   11.9497  -23.7460 C.3     1  UNL1        0.1259
     23 N          46.2992   12.7828  -22.5800 N.pl3   1  UNL1       -0.3157
     24 H          45.7660   12.6014  -21.6993 H       1  UNL1        0.1483
     25 C          48.0777   15.9825  -23.0659 C.ar    1  UNL1        0.2261
     26 C          49.3637   15.6778  -22.6124 C.ar    1  UNL1        0.0578
     27 C          49.6350   14.3949  -22.1336 C.ar    1  UNL1        0.0077
     28 C          48.6250   13.4309  -22.1141 C.ar    1  UNL1        0.0343
     29 C          47.3456   13.7654  -22.5768 C.ar    1  UNL1        0.1317
     30 N          47.1082   15.0256  -23.0375 N.ar    1  UNL1       -0.1969
     31 C          46.5228   17.8744  -23.4099 C.3     1  UNL1        0.2542
     32 O          47.8014   17.2662  -23.5448 O.3     1  UNL1       -0.4561
@<TRIPOS>BOND
     1    31    32    1
     2    32    25    1
     3    25    26   ar
     4    26    27   ar
     5    27    28   ar
     6    28    29   ar
     7    29    23    1
     8    23    22    1
     9    22    20    1
    10    20    21    1
    11    20    19    1
    12    19     1    1
    13     1     2   ar
    14     2     3   ar
    15     3     4   ar
    16     4     5   ar
    17     5     6    1
    18     5     7   ar
    19     7     8   ar
    20     8     9   ar
    21     9    10   ar
    22    10    11   ar
    23    11    12    1
    24    11    13   ar
    25    13    16    1
    26    16    17    1
    27    16    18    1
    28    13    14   ar
    29    14    15   ar
    30    29    30   ar
    31    30    25   ar
    32    15     1   ar
    33     8     2   ar
    34    15     9   ar
    35    23    24    1
@<TRIPOS>MOLECULE
*****
 32 35 0 0 0
SMALL
GASTEIGER

@<TRIPOS>ATOM
      1 N          47.5857   13.3146  -26.0983 N.ar    1  UNL1       -0.3243
      2 C          47.8046   14.6181  -26.4067 C.ar    1  UNL1        0.0600
      3 C          46.8701   15.5733  -26.8192 C.ar    1  UNL1        0.0177
      4 C          47.3250   16.8811  -27.0680 C.ar    1  UNL1        0.0082
      5 C          48.6879   17.2132  -26.8986 C.ar    1  UNL1        0.0347
      6 BR         49.2781   18.9991  -27.2248 Br      1  UNL1       -0.0490
      7 C          49.6115   16.2385  -26.4803 C.ar    1  UNL1        0.0082
      8 C          49.1341   14.9507  -26.2451 C.ar    1  UNL1        0.0177
      9 C          49.7678   13.8094  -25.8106 C.ar    1  UNL1        0.0177
     10 C          51.0915   13.5732  -25.4615 C.ar    1  UNL1        0.0079
     11 C          51.4445   12.2879  -25.0114 C.ar    1  UNL1        0.0307
     12 BR         53.2853   12.0216  -24.5340 Br      1  UNL1       -0.0493
     13 C          50.4571   11.2561  -24.9189 C.ar    1  UNL1       -0.0148
     14 C          49.1196   11.5457  -25.2910 C.ar    1  UNL1        0.0134
     15 C          48.8016   12.8319  -25.7310 C.ar    1  UNL1        0.0597
     16 C          50.7986    9.8598  -24.4157 C.3     1  UNL1        0.0229
     17 C          49.9283    9.4815  -23.2103 C.3     1  UNL1        0.0047
     18 C          50.6699    8.8201  -25.5361 C.3     1  UNL1        0.0047
     19 C          46.2947   12.6156  -26.0848 C.3     1  UNL1        0.1429
     20 C          45.5028   12.9389  -24.8094 C.3     1  UNL1        0.2027
     21 F          44.1641   12.6643  -25.0323 F       1  UNL1       -0.2334
     22 C          45.9887   12.1177  -23.6074 C.3     1  UNL1        0.1259
     23 N          46.3603   12.9984  -22.5018 N.pl3   1  UNL1       -0.3157
     24 H          45.7403   13.0242  -21.6605 H       1  UNL1        0.1483
     25 C          49.9335   13.8308  -22.0810 C.ar    1  UNL1        0.2261
     26 C          49.9663   15.1815  -22.4371 C.ar    1  UNL1        0.0578
     27 C          48.7857   15.8156  -22.8281 C.ar    1  UNL1        0.0077
     28 C          47.5875   15.0994  -22.8577 C.ar    1  UNL1        0.0343
     29 C          47.5854   13.7465  -22.4936 C.ar    1  UNL1        0.1317
     30 N          48.7525   13.1523  -22.1173 N.ar    1  UNL1       -0.1969
     31 C          52.2426   13.9033  -21.1987 C.3     1  UNL1        0.2542
     32 O          51.1134   13.1917  -21.6903 O.3     1  UNL1       -0.4561
@<TRIPOS>BOND
     1    31    32    1
     2    32    25    1
     3    25    26   ar
     4    26    27   ar
     5    27    28   ar
     6    28    29   ar
     7    29    23    1
     8    23    22    1
     9    22    20    1
    10    20    21    1
    11    20    19    1
    12    19     1    1
    13     1     2   ar
    14     2     3   ar
    15     3     4   ar
    16     4     5   ar
    17     5     6    1
    18     5     7   ar
    19     7     8   ar
    20     8     9   ar
    21     9    10   ar
    22    10    11   ar
    23    11    12    1
    24    11    13   ar
    25    13    16    1
    26    16    17    1
    27    16    18    1
    28    13    14   ar
    29    14    15   ar
    30    29    30   ar
    31    30    25   ar
    32    15     1   ar
    33     8     2   ar
    34    15     9   ar
    35    23    24    1
@<TRIPOS>MOLECULE
*****
 32 35 0 0 0
SMALL
GASTEIGER

@<TRIPOS>ATOM
      1 N          48.1289   13.8488  -25.9159 N.ar    1  UNL1       -0.3243
      2 C          49.0066   12.8385  -25.6893 C.ar    1  UNL1        0.0600
      3 C          48.7832   11.4627  -25.8040 C.ar    1  UNL1        0.0177
      4 C          49.8554   10.5926  -25.5350 C.ar    1  UNL1        0.0082
      5 C          51.1202   11.1023  -25.1651 C.ar    1  UNL1        0.0347
      6 BR         52.5648    9.9023  -24.8227 Br      1  UNL1       -0.0490
      7 C          51.3252   12.4896  -25.0581 C.ar    1  UNL1        0.0082
      8 C          50.2448   13.3278  -25.3263 C.ar    1  UNL1        0.0177
      9 C          50.1360   14.6993  -25.3346 C.ar    1  UNL1        0.0177
     10 C          51.0721   15.6939  -25.0815 C.ar    1  UNL1        0.0079
     11 C          50.6699   17.0365  -25.2035 C.ar    1  UNL1        0.0307
     12 BR         52.0076   18.3682  -24.8509 Br      1  UNL1       -0.0493
     13 C          49.3274   17.3593  -25.5798 C.ar    1  UNL1       -0.0148
     14 C          48.4075   16.3080  -25.8237 C.ar    1  UNL1        0.0134
     15 C          48.8390   14.9864  -25.6965 C.ar    1  UNL1        0.0597
     16 C          48.8630   18.8007  -25.7425 C.3     1  UNL1        0.0229
     17 C          48.9778   19.2538  -27.2037 C.3     1  UNL1        0.0047
     18 C          47.4327   18.9844  -25.2196 C.3     1  UNL1        0.0047
     19 C          46.7421   13.7253  -26.3817 C.3     1  UNL1        0.1429
     20 C          45.7546   13.8009  -25.2081 C.3     1  UNL1        0.2027
     21 F          44.5927   14.4179  -25.6400 F       1  UNL1       -0.2334
     22 C          45.4082   12.4108  -24.6578 C.3     1  UNL1        0.1259
     23 N          45.7440   12.3234  -23.2380 N.pl3   1  UNL1       -0.3157
     24 H          45.0077   11.9889  -22.5757 H       1  UNL1        0.1483
     25 C          49.1979   11.7672  -22.0554 C.ar    1  UNL1        0.2261
     26 C          49.6199   13.0647  -21.7546 C.ar    1  UNL1        0.0578
     27 C          48.7450   14.1337  -21.9564 C.ar    1  UNL1        0.0077
     28 C          47.4611   13.8985  -22.4523 C.ar    1  UNL1        0.0343
     29 C          47.0656   12.5863  -22.7433 C.ar    1  UNL1        0.1317
     30 N          47.9403   11.5619  -22.5381 N.ar    1  UNL1       -0.1969
     31 C          49.6575    9.3387  -21.9757 C.3     1  UNL1        0.2542
     32 O          50.0711   10.6943  -21.8563 O.3     1  UNL1       -0.4561
@<TRIPOS>BOND
     1    31    32    1
     2    32    25    1
     3    25    26   ar
     4    26    27   ar
     5    27    28   ar
     6    28    29   ar
     7    29    23    1
     8    23    22    1
     9    22    20    1
    10    20    21    1
    11    20    19    1
    12    19     1    1
    13     1     2   ar
    14     2     3   ar
    15     3     4   ar
    16     4     5   ar
    17     5     6    1
    18     5     7   ar
    19     7     8   ar
    20     8     9   ar
    21     9    10   ar
    22    10    11   ar
    23    11    12    1
    24    11    13   ar
    25    13    16    1
    26    16    17    1
    27    16    18    1
    28    13    14   ar
    29    14    15   ar
    30    29    30   ar
    31    30    25   ar
    32    15     1   ar
    33     8     2   ar
    34    15     9   ar
    35    23    24    1
@<TRIPOS>MOLECULE
*****
 32 35 0 0 0
SMALL
GASTEIGER

@<TRIPOS>ATOM
      1 N          46.6979   14.6017  -24.5013 N.ar    1  UNL1       -0.3243
      2 C          46.5464   14.1081  -25.7566 C.ar    1  UNL1        0.0600
      3 C          46.0713   14.7735  -26.8912 C.ar    1  UNL1        0.0177
      4 C          46.0178   14.0612  -28.1032 C.ar    1  UNL1        0.0082
      5 C          46.4386   12.7138  -28.1651 C.ar    1  UNL1        0.0347
      6 BR         46.3736   11.7737  -29.8251 Br      1  UNL1       -0.0490
      7 C          46.9159   12.0634  -27.0130 C.ar    1  UNL1        0.0082
      8 C          46.9542   12.7916  -25.8256 C.ar    1  UNL1        0.0177
      9 C          47.3847   12.4537  -24.5633 C.ar    1  UNL1        0.0177
     10 C          47.9254   11.2752  -24.0648 C.ar    1  UNL1        0.0079
     11 C          48.3121   11.2371  -22.7127 C.ar    1  UNL1        0.0307
     12 BR         49.0616    9.5858  -22.0810 Br      1  UNL1       -0.0493
     13 C          48.1486   12.3892  -21.8797 C.ar    1  UNL1       -0.0148
     14 C          47.5879   13.5677  -22.4343 C.ar    1  UNL1        0.0134
     15 C          47.2169   13.5736  -23.7802 C.ar    1  UNL1        0.0597
     16 C          48.5759   12.3909  -20.4177 C.3     1  UNL1        0.0229
     17 C          49.2336   13.7240  -20.0386 C.3     1  UNL1        0.0047
     18 C          47.3918   12.0784  -19.4940 C.3     1  UNL1        0.0047
     19 C          46.4361   15.9759  -24.0557 C.3     1  UNL1        0.1429
     20 C          47.7409   16.7761  -23.9309 C.3     1  UNL1        0.2027
     21 F          48.3915   16.3929  -22.7703 F       1  UNL1       -0.2334
     22 C          48.6739   16.5445  -25.1272 C.3     1  UNL1        0.1259
     23 N          50.0327   16.2605  -24.6699 N.pl3   1  UNL1       -0.3157
     24 H          50.6336   17.0641  -24.3767 H       1  UNL1        0.1483
     25 C          51.5396   13.2514  -23.1495 C.ar    1  UNL1        0.2261
     26 C          51.5276   12.3452  -24.2130 C.ar    1  UNL1        0.0578
     27 C          51.0043   12.7419  -25.4449 C.ar    1  UNL1        0.0077
     28 C          50.5021   14.0350  -25.6043 C.ar    1  UNL1        0.0343
     29 C          50.5291   14.9220  -24.5201 C.ar    1  UNL1        0.1317
     30 N          51.0442   14.5080  -23.3285 N.ar    1  UNL1       -0.1969
     31 C          52.8660   13.7161  -21.1148 C.3     1  UNL1        0.2542
     32 O          52.0611   12.8579  -21.9140 O.3     1  UNL1       -0.4561
@<TRIPOS>BOND
     1    31    32    1
     2    32    25    1
     3    25    26   ar
     4    26    27   ar
     5    27    28   ar
     6    28    29   ar
     7    29    23    1
     8    23    22    1
     9    22    20    1
    10    20    21    1
    11    20    19    1
    12    19     1    1
    13     1     2   ar
    14     2     3   ar
    15     3     4   ar
    16     4     5   ar
    17     5     6    1
    18     5     7   ar
    19     7     8   ar
    20     8     9   ar
    21     9    10   ar
    22    10    11   ar
    23    11    12    1
    24    11    13   ar
    25    13    16    1
    26    16    17    1
    27    16    18    1
    28    13    14   ar
    29    14    15   ar
    30    29    30   ar
    31    30    25   ar
    32    15     1   ar
    33     8     2   ar
    34    15     9   ar
    35    23    24    1
@<TRIPOS>MOLECULE
*****
 32 35 0 0 0
SMALL
GASTEIGER

@<TRIPOS>ATOM
      1 N          47.3318   13.5164  -24.2167 N.ar    1  UNL1       -0.3243
      2 C          47.4484   14.8382  -24.5023 C.ar    1  UNL1        0.0600
      3 C          46.4972   15.8461  -24.3147 C.ar    1  UNL1        0.0177
      4 C          46.8473   17.1618  -24.6689 C.ar    1  UNL1        0.0082
      5 C          48.1273   17.4493  -25.1938 C.ar    1  UNL1        0.0347
      6 BR         48.5854   19.2453  -25.6500 Br      1  UNL1       -0.0490
      7 C          49.0707   16.4216  -25.3722 C.ar    1  UNL1        0.0082
      8 C          48.6957   15.1275  -25.0168 C.ar    1  UNL1        0.0177
      9 C          49.3871   13.9383  -25.0456 C.ar    1  UNL1        0.0177
     10 C          50.6875   13.6442  -25.4356 C.ar    1  UNL1        0.0079
     11 C          51.1359   12.3159  -25.3181 C.ar    1  UNL1        0.0307
     12 BR         52.9443   11.9695  -25.8633 Br      1  UNL1       -0.0493
     13 C          50.2663   11.3002  -24.8080 C.ar    1  UNL1       -0.0148
     14 C          48.9459   11.6498  -24.4269 C.ar    1  UNL1        0.0134
     15 C          48.5328   12.9773  -24.5535 C.ar    1  UNL1        0.0597
     16 C          50.7246    9.8566  -24.6468 C.3     1  UNL1        0.0229
     17 C          50.0288    9.1888  -23.4537 C.3     1  UNL1        0.0047
     18 C          50.4980    9.0561  -25.9355 C.3     1  UNL1        0.0047
     19 C          46.1824   12.8453  -23.5969 C.3     1  UNL1        0.1429
     20 C          45.0602   12.6114  -24.6188 C.3     1  UNL1        0.2027
     21 F          44.6209   13.8373  -25.0894 F       1  UNL1       -0.2334
     22 C          45.5315   11.7597  -25.8052 C.3     1  UNL1        0.1259
     23 N          46.0879   12.6088  -26.8566 N.pl3   1  UNL1       -0.3157
     24 H          46.4588   13.5487  -26.5883 H       1  UNL1        0.1483
     25 C          45.9932   12.5862  -30.5482 C.ar    1  UNL1        0.2261
     26 C          46.4599   11.3039  -30.8481 C.ar    1  UNL1        0.0578
     27 C          46.8160   10.4439  -29.8076 C.ar    1  UNL1        0.0077
     28 C          46.7011   10.8692  -28.4826 C.ar    1  UNL1        0.0343
     29 C          46.2285   12.1602  -28.2128 C.ar    1  UNL1        0.1317
     30 N          45.8894   12.9792  -29.2477 N.ar    1  UNL1       -0.1969
     31 C          45.7568   13.0908  -32.9576 C.3     1  UNL1        0.2542
     32 O          45.6370   13.4510  -31.5868 O.3     1  UNL1       -0.4561
@<TRIPOS>BOND
     1    31    32    1
     2    32    25    1
     3    25    26   ar
     4    26    27   ar
     5    27    28   ar
     6    28    29   ar
     7    29    23    1
     8    23    22    1
     9    22    20    1
    10    20    21    1
    11    20    19    1
    12    19     1    1
    13     1     2   ar
    14     2     3   ar
    15     3     4   ar
    16     4     5   ar
    17     5     6    1
    18     5     7   ar
    19     7     8   ar
    20     8     9   ar
    21     9    10   ar
    22    10    11   ar
    23    11    12    1
    24    11    13   ar
    25    13    16    1
    26    16    17    1
    27    16    18    1
    28    13    14   ar
    29    14    15   ar
    30    29    30   ar
    31    30    25   ar
    32    15     1   ar
    33     8     2   ar
    34    15     9   ar
    35    23    24    1
@<TRIPOS>MOLECULE
*****
 32 35 0 0 0
SMALL
GASTEIGER

@<TRIPOS>ATOM
      1 N          49.1446    9.0293  -28.7883 N.ar    1  UNL1       -0.3243
      2 C          50.0381    8.3957  -29.5899 C.ar    1  UNL1        0.0600
      3 C          49.7773    7.6146  -30.7202 C.ar    1  UNL1        0.0177
      4 C          50.8716    7.0667  -31.4139 C.ar    1  UNL1        0.0082
      5 C          52.1938    7.3076  -30.9776 C.ar    1  UNL1        0.0347
      6 BR         53.6632    6.5682  -31.9460 Br      1  UNL1       -0.0490
      7 C          52.4350    8.0984  -29.8398 C.ar    1  UNL1        0.0082
      8 C          51.3325    8.6249  -29.1698 C.ar    1  UNL1        0.0177
      9 C          51.2417    9.4411  -28.0660 C.ar    1  UNL1        0.0177
     10 C          52.2232   10.0085  -27.2632 C.ar    1  UNL1        0.0079
     11 C          51.8206   10.8444  -26.2057 C.ar    1  UNL1        0.0307
     12 BR         53.2200   11.6081  -25.1353 Br      1  UNL1       -0.0493
     13 C          50.4318   11.0980  -25.9711 C.ar    1  UNL1       -0.0148
     14 C          49.4674   10.4920  -26.8161 C.ar    1  UNL1        0.0134
     15 C          49.9001    9.6699  -27.8581 C.ar    1  UNL1        0.0597
     16 C          49.9605   12.0144  -24.8496 C.3     1  UNL1        0.0229
     17 C          49.7599   13.4478  -25.3584 C.3     1  UNL1        0.0047
     18 C          48.6808   11.4776  -24.1962 C.3     1  UNL1        0.0047
     19 C          47.6866    9.0751  -28.9552 C.3     1  UNL1        0.1429
     20 C          47.2726   10.2115  -29.9015 C.3     1  UNL1        0.2027
     21 F          46.5214    9.6806  -30.9364 F       1  UNL1       -0.2334
     22 C          46.4454   11.2857  -29.1826 C.3     1  UNL1        0.1259
     23 N          46.3486   10.9876  -27.7550 N.pl3   1  UNL1       -0.3157
     24 H          46.6726   10.0509  -27.4225 H       1  UNL1        0.1483
     25 C          46.0299   14.1882  -25.9406 C.ar    1  UNL1        0.2261
     26 C          45.1284   13.8632  -24.9238 C.ar    1  UNL1        0.0578
     27 C          44.6179   12.5660  -24.8500 C.ar    1  UNL1        0.0077
     28 C          45.0122   11.6081  -25.7864 C.ar    1  UNL1        0.0343
     29 C          45.9189   11.9632  -26.7937 C.ar    1  UNL1        0.1317
     30 N          46.4003   13.2370  -26.8431 N.ar    1  UNL1       -0.1969
     31 C          47.0253   16.0460  -27.2342 C.3     1  UNL1        0.2542
     32 O          46.5423   15.4862  -26.0192 O.3     1  UNL1       -0.4561
@<TRIPOS>BOND
     1    31    32    1
     2    32    25    1
     3    25    26   ar
     4    26    27   ar
     5    27    28   ar
     6    28    29   ar
     7    29    23    1
     8    23    22    1
     9    22    20    1
    10    20    21    1
    11    20    19    1
    12    19     1    1
    13     1     2   ar
    14     2     3   ar
    15     3     4   ar
    16     4     5   ar
    17     5     6    1
    18     5     7   ar
    19     7     8   ar
    20     8     9   ar
    21     9    10   ar
    22    10    11   ar
    23    11    12    1
    24    11    13   ar
    25    13    16    1
    26    16    17    1
    27    16    18    1
    28    13    14   ar
    29    14    15   ar
    30    29    30   ar
    31    30    25   ar
    32    15     1   ar
    33     8     2   ar
    34    15     9   ar
    35    23    24    1
@<TRIPOS>MOLECULE
*****
 32 35 0 0 0
SMALL
GASTEIGER

@<TRIPOS>ATOM
      1 N          50.9460   13.5918  -22.9833 N.ar    1  UNL1       -0.3243
      2 C          50.4657   13.2161  -21.7706 C.ar    1  UNL1        0.0600
      3 C          50.9690   12.2329  -20.9129 C.ar    1  UNL1        0.0177
      4 C          50.3135   12.0256  -19.6855 C.ar    1  UNL1        0.0082
      5 C          49.1826   12.7967  -19.3346 C.ar    1  UNL1        0.0347
      6 BR         48.3210   12.5095  -17.6556 Br      1  UNL1       -0.0490
      7 C          48.6938   13.7828  -20.2102 C.ar    1  UNL1        0.0082
      8 C          49.3599   13.9638  -21.4206 C.ar    1  UNL1        0.0177
      9 C          49.1474   14.8466  -22.4542 C.ar    1  UNL1        0.0177
     10 C          48.1996   15.8480  -22.6232 C.ar    1  UNL1        0.0079
     11 C          48.2529   16.6278  -23.7930 C.ar    1  UNL1        0.0307
     12 BR         46.9241   18.0029  -23.9687 Br      1  UNL1       -0.0493
     13 C          49.2626   16.3876  -24.7783 C.ar    1  UNL1       -0.0148
     14 C          50.2054   15.3507  -24.5617 C.ar    1  UNL1        0.0134
     15 C          50.1266   14.5969  -23.3893 C.ar    1  UNL1        0.0597
     16 C          49.3638   17.2259  -26.0460 C.3     1  UNL1        0.0229
     17 C          50.8214   17.6030  -26.3410 C.3     1  UNL1        0.0047
     18 C          48.7293   16.5027  -27.2406 C.3     1  UNL1        0.0047
     19 C          52.1438   13.0749  -23.6569 C.3     1  UNL1        0.1429
     20 C          51.7676   12.1883  -24.8530 C.3     1  UNL1        0.2027
     21 F          52.6808   12.4006  -25.8720 F       1  UNL1       -0.2334
     22 C          51.7651   10.6982  -24.4857 C.3     1  UNL1        0.1259
     23 N          50.4275   10.1324  -24.6496 N.pl3   1  UNL1       -0.3157
     24 H          50.2056    9.6393  -25.5442 H       1  UNL1        0.1483
     25 C          47.5004   11.1122  -22.6224 C.ar    1  UNL1        0.2261
     26 C          47.5703   10.2184  -21.5509 C.ar    1  UNL1        0.0578
     27 C          48.5998    9.2763  -21.5108 C.ar    1  UNL1        0.0077
     28 C          49.5477    9.2368  -22.5353 C.ar    1  UNL1        0.0343
     29 C          49.4527   10.1470  -23.5961 C.ar    1  UNL1        0.1317
     30 N          48.4368   11.0550  -23.6107 N.ar    1  UNL1       -0.1969
     31 C          46.1649   12.7999  -23.8404 C.3     1  UNL1        0.2542
     32 O          46.4706   12.0560  -22.6673 O.3     1  UNL1       -0.4561
@<TRIPOS>BOND
     1    31    32    1
     2    32    25    1
     3    25    26   ar
     4    26    27   ar
     5    27    28   ar
     6    28    29   ar
     7    29    23    1
     8    23    22    1
     9    22    20    1
    10    20    21    1
    11    20    19    1
    12    19     1    1
    13     1     2   ar
    14     2     3   ar
    15     3     4   ar
    16     4     5   ar
    17     5     6    1
    18     5     7   ar
    19     7     8   ar
    20     8     9   ar
    21     9    10   ar
    22    10    11   ar
    23    11    12    1
    24    11    13   ar
    25    13    16    1
    26    16    17    1
    27    16    18    1
    28    13    14   ar
    29    14    15   ar
    30    29    30   ar
    31    30    25   ar
    32    15     1   ar
    33     8     2   ar
    34    15     9   ar
    35    23    24    1
@<TRIPOS>MOLECULE
*****
 32 35 0 0 0
SMALL
GASTEIGER

@<TRIPOS>ATOM
      1 N          49.1786   10.5030  -23.5646 N.ar    1  UNL1       -0.3243
      2 C          49.0984   10.5995  -22.2131 C.ar    1  UNL1        0.0600
      3 C          50.0067   10.1256  -21.2612 C.ar    1  UNL1        0.0177
      4 C          49.7248   10.3582  -19.9027 C.ar    1  UNL1        0.0082
      5 C          48.5575   11.0562  -19.5195 C.ar    1  UNL1        0.0347
      6 BR         48.2057   11.3755  -17.6706 Br      1  UNL1       -0.0490
      7 C          47.6579   11.5272  -20.4925 C.ar    1  UNL1        0.0082
      8 C          47.9601   11.2791  -21.8300 C.ar    1  UNL1        0.0177
      9 C          47.3086   11.6269  -22.9908 C.ar    1  UNL1        0.0177
     10 C          46.1377   12.3432  -23.2046 C.ar    1  UNL1        0.0079
     11 C          45.7295   12.5757  -24.5307 C.ar    1  UNL1        0.0307
     12 BR         44.1092   13.5788  -24.7662 Br      1  UNL1       -0.0493
     13 C          46.5082   12.0824  -25.6254 C.ar    1  UNL1       -0.0148
     14 C          47.6939   11.3529  -25.3554 C.ar    1  UNL1        0.0134
     15 C          48.0726   11.1418  -24.0283 C.ar    1  UNL1        0.0597
     16 C          46.1084   12.3337  -27.0735 C.3     1  UNL1        0.0229
     17 C          46.5577   13.7263  -27.5343 C.3     1  UNL1        0.0047
     18 C          46.6616   11.2422  -27.9984 C.3     1  UNL1        0.0047
     19 C          50.2732    9.9111  -24.3437 C.3     1  UNL1        0.1429
     20 C          51.4774   10.8612  -24.4180 C.3     1  UNL1        0.2027
     21 F          52.6362   10.1086  -24.5066 F       1  UNL1       -0.2334
     22 C          51.3958   11.7990  -25.6300 C.3     1  UNL1        0.1259
     23 N          51.5121   13.1934  -25.2077 N.pl3   1  UNL1       -0.3157
     24 H          52.2850   13.7695  -25.6120 H       1  UNL1        0.1483
     25 C          49.8065   14.3157  -22.1306 C.ar    1  UNL1        0.2261
     26 C          48.6907   14.9858  -22.6386 C.ar    1  UNL1        0.0578
     27 C          48.5124   15.0691  -24.0207 C.ar    1  UNL1        0.0077
     28 C          49.4443   14.4830  -24.8796 C.ar    1  UNL1        0.0343
     29 C          50.5525   13.8163  -24.3407 C.ar    1  UNL1        0.1317
     30 N          50.7026   13.7513  -22.9880 N.ar    1  UNL1       -0.1969
     31 C          51.2147   13.8069  -20.1624 C.3     1  UNL1        0.2542
     32 O          49.9897   14.2312  -20.7475 O.3     1  UNL1       -0.4561
@<TRIPOS>BOND
     1    31    32    1
     2    32    25    1
     3    25    26   ar
     4    26    27   ar
     5    27    28   ar
     6    28    29   ar
     7    29    23    1
     8    23    22    1
     9    22    20    1
    10    20    21    1
    11    20    19    1
    12    19     1    1
    13     1     2   ar
    14     2     3   ar
    15     3     4   ar
    16     4     5   ar
    17     5     6    1
    18     5     7   ar
    19     7     8   ar
    20     8     9   ar
    21     9    10   ar
    22    10    11   ar
    23    11    12    1
    24    11    13   ar
    25    13    16    1
    26    16    17    1
    27    16    18    1
    28    13    14   ar
    29    14    15   ar
    30    29    30   ar
    31    30    25   ar
    32    15     1   ar
    33     8     2   ar
    34    15     9   ar
    35    23    24    1
@<TRIPOS>MOLECULE
*****
 32 35 0 0 0
SMALL
GASTEIGER

@<TRIPOS>ATOM
      1 N          47.1853   14.5762  -24.3479 N.ar    1  UNL1       -0.3243
      2 C          48.1323   15.4722  -24.7256 C.ar    1  UNL1        0.0600
      3 C          48.1035   16.3459  -25.8172 C.ar    1  UNL1        0.0177
      4 C          49.1994   17.2077  -26.0054 C.ar    1  UNL1        0.0082
      5 C          50.2919   17.1884  -25.1096 C.ar    1  UNL1        0.0347
      6 BR         51.7594   18.3800  -25.3754 Br      1  UNL1       -0.0490
      7 C          50.3004   16.3040  -24.0161 C.ar    1  UNL1        0.0082
      8 C          49.2040   15.4590  -23.8563 C.ar    1  UNL1        0.0177
      9 C          48.9088   14.5218  -22.8933 C.ar    1  UNL1        0.0177
     10 C          49.6091   14.1173  -21.7638 C.ar    1  UNL1        0.0079
     11 C          49.0284   13.1436  -20.9308 C.ar    1  UNL1        0.0307
     12 BR         50.0368   12.6296  -19.3796 Br      1  UNL1       -0.0493
     13 C          47.7473   12.5899  -21.2476 C.ar    1  UNL1       -0.0148
     14 C          47.0736   13.0327  -22.4143 C.ar    1  UNL1        0.0134
     15 C          47.6761   14.0021  -23.2183 C.ar    1  UNL1        0.0597
     16 C          47.0788   11.5503  -20.3576 C.3     1  UNL1        0.0229
     17 C          45.7088   12.0413  -19.8721 C.3     1  UNL1        0.0047
     18 C          46.9574   10.2009  -21.0767 C.3     1  UNL1        0.0047
     19 C          45.8807   14.3507  -24.9824 C.3     1  UNL1        0.1429
     20 C          46.0033   13.3922  -26.1760 C.3     1  UNL1        0.2027
     21 F          46.7560   14.0029  -27.1647 F       1  UNL1       -0.2334
     22 C          46.6726   12.0681  -25.7835 C.3     1  UNL1        0.1259
     23 N          48.0040   11.9709  -26.3786 N.pl3   1  UNL1       -0.3157
     24 H          48.0815   11.9827  -27.4210 H       1  UNL1        0.1483
     25 C          50.4145   11.1016  -23.7194 C.ar    1  UNL1        0.2261
     26 C          51.4948   11.9369  -24.0151 C.ar    1  UNL1        0.0578
     27 C          51.4187   12.7911  -25.1166 C.ar    1  UNL1        0.0077
     28 C          50.2686   12.8056  -25.9084 C.ar    1  UNL1        0.0343
     29 C          49.2008   11.9578  -25.5862 C.ar    1  UNL1        0.1317
     30 N          49.3025   11.1331  -24.5062 N.ar    1  UNL1       -0.1969
     31 C          50.0301    8.8977  -22.6657 C.3     1  UNL1        0.2542
     32 O          50.4871   10.2437  -22.6184 O.3     1  UNL1       -0.4561
@<TRIPOS>BOND
     1    31    32    1
     2    32    25    1
     3    25    26   ar
     4    26    27   ar
     5    27    28   ar
     6    28    29   ar
     7    29    23    1
     8    23    22    1
     9    22    20    1
    10    20    21    1
    11    20    19    1
    12    19     1    1
    13     1     2   ar
    14     2     3   ar
    15     3     4   ar
    16     4     5   ar
    17     5     6    1
    18     5     7   ar
    19     7     8   ar
    20     8     9   ar
    21     9    10   ar
    22    10    11   ar
    23    11    12    1
    24    11    13   ar
    25    13    16    1
    26    16    17    1
    27    16    18    1
    28    13    14   ar
    29    14    15   ar
    30    29    30   ar
    31    30    25   ar
    32    15     1   ar
    33     8     2   ar
    34    15     9   ar
    35    23    24    1
