@<TRIPOS>MOLECULE
*****
 53 58 0 0 0
SMALL
GASTEIGER

@<TRIPOS>ATOM
      1 C          59.9935   85.0061   12.9689 C.ar    1  UNL1        0.0811
      2 C          61.3696   84.7479   12.8899 C.ar    1  UNL1        0.0080
      3 C          62.2956   85.7251   13.2506 C.ar    1  UNL1        0.0150
      4 C          61.8682   86.9861   13.6864 C.ar    1  UNL1        0.0564
      5 C          60.4858   87.2716   13.7536 C.ar    1  UNL1        0.1162
      6 C          59.5556   86.2776   13.3896 C.ar    1  UNL1        0.1518
      7 F          58.2269   86.5502   13.4452 F       1  UNL1       -0.2038
      8 N          62.8458   87.9903   14.0072 N.pl3   1  UNL1       -0.3038
      9 C          63.5543   88.6667   12.9169 C.3     1  UNL1        0.1123
     10 C          63.9054   90.1014   13.3179 C.3     1  UNL1        0.1136
     11 N          64.4985   90.1283   14.6627 N.pl3   1  UNL1       -0.2897
     12 C          63.7816   89.4417   15.7452 C.3     1  UNL1        0.1136
     13 C          63.4575   88.0052   15.3383 C.3     1  UNL1        0.1123
     14 C          65.5786   91.0284   14.9838 C.ar    1  UNL1        0.1318
     15 C          65.3927   92.1073   15.8635 C.ar    1  UNL1        0.0343
     16 C          66.4636   92.9548   16.1512 C.ar    1  UNL1        0.0083
     17 C          67.7148   92.7407   15.5542 C.ar    1  UNL1        0.0906
     18 C          67.8681   91.6317   14.7081 C.ar    1  UNL1        0.1041
     19 N          66.8110   90.8192   14.4437 N.ar    1  UNL1       -0.2292
     20 C          68.8921   93.6178   15.8963 C.3     1  UNL1        0.4200
     21 F          69.6204   93.0723   16.9393 F       1  UNL1       -0.1658
     22 F          68.4351   94.8674   16.2709 F       1  UNL1       -0.1658
     23 F          69.7329   93.7531   14.8051 F       1  UNL1       -0.1658
     24 O          57.9165   84.2575   12.1101 O.2     1  UNL1       -0.2701
     25 C          59.0324   83.9396   12.6056 C.2     1  UNL1        0.2483
     26 N          59.3741   82.5533   12.7678 N.am    1  UNL1       -0.2945
     27 H          60.3818   82.3148   12.9010 H       1  UNL1        0.1501
     28 C          58.4414   81.4735   12.4231 C.3     1  UNL1        0.1535
     29 C          58.2212   81.4199   10.9327 C.2     1  UNL1        0.2443
     30 O          57.4107   80.5824   10.4491 O.2     1  UNL1       -0.2730
     31 N          58.8661   82.3816   10.0831 N.am    1  UNL1       -0.2825
     32 H          59.2935   83.2214   10.5356 H       1  UNL1        0.1549
     33 C          58.8522   82.3233    8.6469 C.ar    1  UNL1        0.0535
     34 C          59.8931   82.9208    7.9230 C.ar    1  UNL1        0.0353
     35 C          59.8956   82.8486    6.5280 C.ar    1  UNL1        0.1002
     36 N          58.9018   82.1875    5.8776 N.ar    1  UNL1       -0.2422
     37 C          57.8898   81.5812    6.5527 C.ar    1  UNL1        0.1002
     38 C          57.8487   81.6305    7.9485 C.ar    1  UNL1        0.0353
     39 C          58.9237   80.1172   12.9786 C.3     1  UNL1        0.0569
     40 C          60.4103   79.9123   12.8605 C.ar    1  UNL1       -0.0017
     41 C          61.0607   79.0437   11.9879 C.ar    1  UNL1        0.0681
     42 N          62.4019   79.1566   12.1205 N.ar    1  UNL1       -0.3523
     43 C          62.6048   80.0883   13.0679 C.ar    1  UNL1        0.0563
     44 C          63.8289   80.5572   13.5429 C.ar    1  UNL1        0.0170
     45 C          63.8111   81.5507   14.5388 C.ar    1  UNL1        0.0015
     46 C          62.5844   82.0457   15.0340 C.ar    1  UNL1        0.0001
     47 C          61.3646   81.5519   14.5378 C.ar    1  UNL1        0.0012
     48 C          61.4134   80.5714   13.5461 C.ar    1  UNL1        0.0131
     49 H          63.1290   78.6301   11.5871 H       1  UNL1        0.1660
     50 C          60.0067   88.5856   14.2414 C.2     1  UNL1        0.3415
     51 O          60.1030   89.6024   13.5046 O.2     1  UNL1       -0.2450
     52 O          59.4422   88.7218   15.5077 O.3     1  UNL1       -0.4770
     53 H          59.2648   87.9203   16.1006 H       1  UNL1        0.2954
@<TRIPOS>BOND
     1    24    25    2
     2    25    26   am
     3    26    28    1
     4    28    39    1
     5    39    40    1
     6    40    41   ar
     7    41    42   ar
     8    42    43   ar
     9    43    44   ar
    10    44    45   ar
    11    45    46   ar
    12    46    47   ar
    13    47    48   ar
    14    28    29    1
    15    29    30    2
    16    29    31   am
    17    31    33    1
    18    33    34   ar
    19    34    35   ar
    20    35    36   ar
    21    36    37   ar
    22    37    38   ar
    23    25     1    1
    24     1     2   ar
    25     2     3   ar
    26     3     4   ar
    27     4     8    1
    28     8     9    1
    29     9    10    1
    30    10    11    1
    31    11    14    1
    32    14    15   ar
    33    15    16   ar
    34    16    17   ar
    35    17    20    1
    36    20    21    1
    37    20    22    1
    38    20    23    1
    39    17    18   ar
    40    18    19   ar
    41    11    12    1
    42    12    13    1
    43     4     5   ar
    44     5    50    1
    45    50    51    2
    46    50    52    1
    47     5     6   ar
    48     6     7    1
    49    48    40   ar
    50    38    33   ar
    51     6     1   ar
    52    48    43   ar
    53    13     8    1
    54    19    14   ar
    55    26    27    1
    56    42    49    1
    57    31    32    1
    58    52    53    1
@<TRIPOS>MOLECULE
*****
 53 58 0 0 0
SMALL
GASTEIGER

@<TRIPOS>ATOM
      1 C          60.4711   85.7463   12.2481 C.ar    1  UNL1        0.0811
      2 C          60.5386   85.2350   10.9441 C.ar    1  UNL1        0.0080
      3 C          60.4754   86.0887    9.8442 C.ar    1  UNL1        0.0150
      4 C          60.3307   87.4708   10.0219 C.ar    1  UNL1        0.0564
      5 C          60.2409   88.0026   11.3281 C.ar    1  UNL1        0.1162
      6 C          60.3081   87.1333   12.4352 C.ar    1  UNL1        0.1518
      7 F          60.2144   87.6392   13.6914 F       1  UNL1       -0.2038
      8 N          60.2211   88.3225    8.8689 N.pl3   1  UNL1       -0.3038
      9 C          59.5381   87.8176    7.6745 C.3     1  UNL1        0.1123
     10 C          58.8518   88.9638    6.9277 C.3     1  UNL1        0.1136
     11 N          59.7685   90.1037    6.7821 N.pl3   1  UNL1       -0.2897
     12 C          60.4512   90.5963    7.9857 C.3     1  UNL1        0.1136
     13 C          61.1489   89.4447    8.7077 C.3     1  UNL1        0.1123
     14 C          59.7842   90.8994    5.5795 C.ar    1  UNL1        0.1318
     15 C          58.6178   91.5139    5.0953 C.ar    1  UNL1        0.0343
     16 C          58.6744   92.2785    3.9291 C.ar    1  UNL1        0.0083
     17 C          59.8850   92.4207    3.2350 C.ar    1  UNL1        0.0906
     18 C          61.0345   91.8195    3.7704 C.ar    1  UNL1        0.1041
     19 N          60.9553   91.0806    4.9085 N.ar    1  UNL1       -0.2292
     20 C          59.9701   93.2855    2.0032 C.3     1  UNL1        0.4200
     21 F          58.9108   93.0262    1.1508 F       1  UNL1       -0.1658
     22 F          61.1552   93.0216    1.3426 F       1  UNL1       -0.1658
     23 F          59.9328   94.6263    2.3450 F       1  UNL1       -0.1658
     24 O          59.6984   84.8722   14.3099 O.2     1  UNL1       -0.2701
     25 C          60.5688   84.8183   13.3982 C.2     1  UNL1        0.2483
     26 N          61.6121   83.8322   13.4626 N.am    1  UNL1       -0.2945
     27 H          62.1322   83.6185   12.5829 H       1  UNL1        0.1501
     28 C          61.7396   82.9028   14.5916 C.3     1  UNL1        0.1535
     29 C          61.2428   81.5323   14.2077 C.2     1  UNL1        0.2443
     30 O          61.9745   80.5231   14.4039 O.2     1  UNL1       -0.2730
     31 N          59.9064   81.3745   13.7058 N.am    1  UNL1       -0.2825
     32 H          59.2445   82.1748   13.8246 H       1  UNL1        0.1549
     33 C          59.3900   80.1470   13.1647 C.ar    1  UNL1        0.0535
     34 C          59.1222   79.0735   14.0252 C.ar    1  UNL1        0.0353
     35 C          58.6003   77.8858   13.5074 C.ar    1  UNL1        0.1002
     36 N          58.3380   77.7786   12.1780 N.ar    1  UNL1       -0.2422
     37 C          58.5684   78.8087   11.3217 C.ar    1  UNL1        0.1002
     38 C          59.0910   80.0139   11.7981 C.ar    1  UNL1        0.0353
     39 C          63.1884   82.8580   15.1203 C.3     1  UNL1        0.0569
     40 C          63.8818   84.1938   15.0906 C.ar    1  UNL1       -0.0017
     41 C          65.0804   84.4916   14.4475 C.ar    1  UNL1        0.0681
     42 N          65.3799   85.8029   14.5889 N.ar    1  UNL1       -0.3523
     43 C          64.3821   86.3361   15.3147 C.ar    1  UNL1        0.0563
     44 C          64.2419   87.6661   15.7089 C.ar    1  UNL1        0.0170
     45 C          63.1054   88.0125   16.4625 C.ar    1  UNL1        0.0015
     46 C          62.1470   87.0326   16.8035 C.ar    1  UNL1        0.0001
     47 C          62.3162   85.6978   16.3941 C.ar    1  UNL1        0.0012
     48 C          63.4496   85.3850   15.6427 C.ar    1  UNL1        0.0131
     49 H          66.2146   86.2982   14.2037 H       1  UNL1        0.1660
     50 C          60.1200   89.4630   11.5445 C.2     1  UNL1        0.3415
     51 O          59.0291   90.0452   11.3058 O.2     1  UNL1       -0.2450
     52 O          61.1956   90.2129   12.0152 O.3     1  UNL1       -0.4770
     53 H          62.0633   89.7773   12.3026 H       1  UNL1        0.2954
@<TRIPOS>BOND
     1    24    25    2
     2    25    26   am
     3    26    28    1
     4    28    39    1
     5    39    40    1
     6    40    41   ar
     7    41    42   ar
     8    42    43   ar
     9    43    44   ar
    10    44    45   ar
    11    45    46   ar
    12    46    47   ar
    13    47    48   ar
    14    28    29    1
    15    29    30    2
    16    29    31   am
    17    31    33    1
    18    33    34   ar
    19    34    35   ar
    20    35    36   ar
    21    36    37   ar
    22    37    38   ar
    23    25     1    1
    24     1     2   ar
    25     2     3   ar
    26     3     4   ar
    27     4     8    1
    28     8     9    1
    29     9    10    1
    30    10    11    1
    31    11    14    1
    32    14    15   ar
    33    15    16   ar
    34    16    17   ar
    35    17    20    1
    36    20    21    1
    37    20    22    1
    38    20    23    1
    39    17    18   ar
    40    18    19   ar
    41    11    12    1
    42    12    13    1
    43     4     5   ar
    44     5    50    1
    45    50    51    2
    46    50    52    1
    47     5     6   ar
    48     6     7    1
    49    48    40   ar
    50    38    33   ar
    51     6     1   ar
    52    48    43   ar
    53    13     8    1
    54    19    14   ar
    55    26    27    1
    56    42    49    1
    57    31    32    1
    58    52    53    1
@<TRIPOS>MOLECULE
*****
 53 58 0 0 0
SMALL
GASTEIGER

@<TRIPOS>ATOM
      1 C          60.3456   85.2465   11.8814 C.ar    1  UNL1        0.0811
      2 C          59.4454   86.3214   11.9071 C.ar    1  UNL1        0.0080
      3 C          59.3603   87.2001   10.8286 C.ar    1  UNL1        0.0150
      4 C          60.1810   87.0322    9.7057 C.ar    1  UNL1        0.0564
      5 C          61.1084   85.9665    9.6700 C.ar    1  UNL1        0.1162
      6 C          61.1869   85.0808   10.7633 C.ar    1  UNL1        0.1518
      7 F          62.0818   84.0604   10.7364 F       1  UNL1       -0.2038
      8 N          60.1048   87.9809    8.6281 N.pl3   1  UNL1       -0.3038
      9 C          59.4679   87.5789    7.3708 C.3     1  UNL1        0.1123
     10 C          58.7990   88.7826    6.7029 C.3     1  UNL1        0.1136
     11 N          59.7111   89.9353    6.6898 N.pl3   1  UNL1       -0.2897
     12 C          60.3475   90.3242    7.9551 C.3     1  UNL1        0.1136
     13 C          61.0287   89.1174    8.5983 C.3     1  UNL1        0.1123
     14 C          59.7624   90.8332    5.5624 C.ar    1  UNL1        0.1318
     15 C          58.6151   91.5072    5.1131 C.ar    1  UNL1        0.0343
     16 C          58.7060   92.3702    4.0200 C.ar    1  UNL1        0.0083
     17 C          59.9321   92.5525    3.3633 C.ar    1  UNL1        0.0906
     18 C          61.0616   91.8874    3.8645 C.ar    1  UNL1        0.1041
     19 N          60.9490   91.0529    4.9315 N.ar    1  UNL1       -0.2292
     20 C          60.0543   93.5205    2.2142 C.3     1  UNL1        0.4200
     21 F          61.2677   93.3600    1.5678 F       1  UNL1       -0.1658
     22 F          59.9681   94.8130    2.6965 F       1  UNL1       -0.1658
     23 F          59.0421   93.3141    1.2928 F       1  UNL1       -0.1658
     24 O          59.3264   84.0222   13.6348 O.2     1  UNL1       -0.2701
     25 C          60.3948   84.3127   13.0299 C.2     1  UNL1        0.2483
     26 N          61.6324   83.7021   13.4305 N.am    1  UNL1       -0.2945
     27 H          62.4275   83.7290   12.7543 H       1  UNL1        0.1501
     28 C          61.7151   82.7780   14.5679 C.3     1  UNL1        0.1535
     29 C          61.2169   81.4102   14.1759 C.2     1  UNL1        0.2443
     30 O          61.9875   80.4146   14.2612 O.2     1  UNL1       -0.2730
     31 N          59.8431   81.2354   13.7950 N.am    1  UNL1       -0.2825
     32 H          59.1767   82.0120   14.0079 H       1  UNL1        0.1549
     33 C          59.3072   80.0161   13.2544 C.ar    1  UNL1        0.0535
     34 C          59.0817   79.9147   11.8748 C.ar    1  UNL1        0.0353
     35 C          58.5810   78.7246   11.3416 C.ar    1  UNL1        0.1002
     36 N          58.3299   77.6652   12.1554 N.ar    1  UNL1       -0.2422
     37 C          58.5571   77.7265   13.4940 C.ar    1  UNL1        0.1002
     38 C          59.0563   78.8984   14.0683 C.ar    1  UNL1        0.0353
     39 C          63.1461   82.7219   15.1421 C.3     1  UNL1        0.0569
     40 C          63.8589   84.0475   15.1132 C.ar    1  UNL1       -0.0017
     41 C          65.0752   84.3214   14.4930 C.ar    1  UNL1        0.0681
     42 N          65.3902   85.6298   14.6269 N.ar    1  UNL1       -0.3523
     43 C          64.3846   86.1848   15.3251 C.ar    1  UNL1        0.0563
     44 C          64.2549   87.5209   15.7020 C.ar    1  UNL1        0.0170
     45 C          63.1074   87.8915   16.4269 C.ar    1  UNL1        0.0015
     46 C          62.1281   86.9289   16.7575 C.ar    1  UNL1        0.0001
     47 C          62.2870   85.5874   16.3662 C.ar    1  UNL1        0.0012
     48 C          63.4319   85.2506   15.6429 C.ar    1  UNL1        0.0131
     49 H          66.2400   86.1091   14.2546 H       1  UNL1        0.1660
     50 C          61.9650   85.7475    8.4816 C.2     1  UNL1        0.3415
     51 O          63.1455   86.1861    8.4688 O.2     1  UNL1       -0.2450
     52 O          61.4905   85.0564    7.3690 O.3     1  UNL1       -0.4770
     53 H          60.5810   84.6114    7.3666 H       1  UNL1        0.2954
@<TRIPOS>BOND
     1    24    25    2
     2    25    26   am
     3    26    28    1
     4    28    39    1
     5    39    40    1
     6    40    41   ar
     7    41    42   ar
     8    42    43   ar
     9    43    44   ar
    10    44    45   ar
    11    45    46   ar
    12    46    47   ar
    13    47    48   ar
    14    28    29    1
    15    29    30    2
    16    29    31   am
    17    31    33    1
    18    33    34   ar
    19    34    35   ar
    20    35    36   ar
    21    36    37   ar
    22    37    38   ar
    23    25     1    1
    24     1     2   ar
    25     2     3   ar
    26     3     4   ar
    27     4     8    1
    28     8     9    1
    29     9    10    1
    30    10    11    1
    31    11    14    1
    32    14    15   ar
    33    15    16   ar
    34    16    17   ar
    35    17    20    1
    36    20    21    1
    37    20    22    1
    38    20    23    1
    39    17    18   ar
    40    18    19   ar
    41    11    12    1
    42    12    13    1
    43     4     5   ar
    44     5    50    1
    45    50    51    2
    46    50    52    1
    47     5     6   ar
    48     6     7    1
    49    48    40   ar
    50    38    33   ar
    51     6     1   ar
    52    48    43   ar
    53    13     8    1
    54    19    14   ar
    55    26    27    1
    56    42    49    1
    57    31    32    1
    58    52    53    1
@<TRIPOS>MOLECULE
*****
 53 58 0 0 0
SMALL
GASTEIGER

@<TRIPOS>ATOM
      1 C          60.5328   84.3390   11.9320 C.ar    1  UNL1        0.0811
      2 C          61.8098   84.5331   11.3861 C.ar    1  UNL1        0.0080
      3 C          62.6438   85.5374   11.8744 C.ar    1  UNL1        0.0150
      4 C          62.2163   86.3783   12.9101 C.ar    1  UNL1        0.0564
      5 C          60.9250   86.2109   13.4593 C.ar    1  UNL1        0.1162
      6 C          60.0885   85.1916   12.9621 C.ar    1  UNL1        0.1518
      7 F          58.8445   85.0324   13.4815 F       1  UNL1       -0.2038
      8 N          63.0793   87.4357   13.3619 N.pl3   1  UNL1       -0.3038
      9 C          63.3353   88.5729   12.4735 C.3     1  UNL1        0.1123
     10 C          63.5626   89.8473   13.2901 C.3     1  UNL1        0.1136
     11 N          64.5032   89.5913   14.3905 N.pl3   1  UNL1       -0.2897
     12 C          64.2385   88.4451   15.2699 C.3     1  UNL1        0.1136
     13 C          64.0354   87.1776   14.4415 C.3     1  UNL1        0.1123
     14 C          65.4791   90.5781   14.7823 C.ar    1  UNL1        0.1318
     15 C          65.1203   91.6908   15.5607 C.ar    1  UNL1        0.0343
     16 C          66.0945   92.6226   15.9219 C.ar    1  UNL1        0.0083
     17 C          67.4215   92.4585   15.4979 C.ar    1  UNL1        0.0906
     18 C          67.7456   91.3157   14.7507 C.ar    1  UNL1        0.1041
     19 N          66.7801   90.4209   14.4121 N.ar    1  UNL1       -0.2292
     20 C          68.4924   93.4301   15.9240 C.3     1  UNL1        0.4200
     21 F          69.2321   93.8509   14.8323 F       1  UNL1       -0.1658
     22 F          69.3353   92.8111   16.8279 F       1  UNL1       -0.1658
     23 F          67.9299   94.5448   16.5217 F       1  UNL1       -0.1658
     24 O          58.5537   83.0370   11.9429 O.2     1  UNL1       -0.2701
     25 C          59.6790   83.2462   11.4121 C.2     1  UNL1        0.2483
     26 N          60.0969   82.4568   10.2865 N.am    1  UNL1       -0.2945
     27 H          60.8756   82.8265    9.6974 H       1  UNL1        0.1501
     28 C          59.2766   81.3631    9.7520 C.3     1  UNL1        0.1535
     29 C          58.7584   80.4949   10.8702 C.2     1  UNL1        0.2443
     30 O          57.6951   79.8347   10.7094 O.2     1  UNL1       -0.2730
     31 N          59.5256   80.3546   12.0762 N.am    1  UNL1       -0.2825
     32 H          60.5189   80.6801   12.0616 H       1  UNL1        0.1549
     33 C          59.0527   79.6853   13.2572 C.ar    1  UNL1        0.0535
     34 C          58.5263   80.4413   14.3135 C.ar    1  UNL1        0.0353
     35 C          58.0458   79.7945   15.4545 C.ar    1  UNL1        0.1002
     36 N          58.0737   78.4378   15.5319 N.ar    1  UNL1       -0.2422
     37 C          58.5597   77.6767   14.5161 C.ar    1  UNL1        0.1002
     38 C          59.0512   78.2836   13.3575 C.ar    1  UNL1        0.0353
     39 C          58.1316   81.9009    8.8686 C.3     1  UNL1        0.0569
     40 C          58.1382   83.3989    8.7202 C.ar    1  UNL1       -0.0017
     41 C          57.1217   84.2736    9.0949 C.ar    1  UNL1        0.0681
     42 N          57.4893   85.5539    8.8608 N.ar    1  UNL1       -0.3523
     43 C          58.7281   85.4962    8.3423 C.ar    1  UNL1        0.0563
     44 C          59.5306   86.5672    7.9510 C.ar    1  UNL1        0.0170
     45 C          60.8088   86.2787    7.4388 C.ar    1  UNL1        0.0015
     46 C          61.2502   84.9416    7.3279 C.ar    1  UNL1        0.0001
     47 C          60.4177   83.8810    7.7283 C.ar    1  UNL1        0.0012
     48 C          59.1580   84.1978    8.2381 C.ar    1  UNL1        0.0131
     49 H          56.9248   86.4111    9.0529 H       1  UNL1        0.1660
     50 C          60.4606   87.0654   14.5766 C.2     1  UNL1        0.3415
     51 O          60.1947   88.2790   14.3707 O.2     1  UNL1       -0.2450
     52 O          60.3058   86.5499   15.8615 O.3     1  UNL1       -0.4770
     53 H          60.4235   85.5634   16.0573 H       1  UNL1        0.2954
@<TRIPOS>BOND
     1    24    25    2
     2    25    26   am
     3    26    28    1
     4    28    39    1
     5    39    40    1
     6    40    41   ar
     7    41    42   ar
     8    42    43   ar
     9    43    44   ar
    10    44    45   ar
    11    45    46   ar
    12    46    47   ar
    13    47    48   ar
    14    28    29    1
    15    29    30    2
    16    29    31   am
    17    31    33    1
    18    33    34   ar
    19    34    35   ar
    20    35    36   ar
    21    36    37   ar
    22    37    38   ar
    23    25     1    1
    24     1     2   ar
    25     2     3   ar
    26     3     4   ar
    27     4     8    1
    28     8     9    1
    29     9    10    1
    30    10    11    1
    31    11    14    1
    32    14    15   ar
    33    15    16   ar
    34    16    17   ar
    35    17    20    1
    36    20    21    1
    37    20    22    1
    38    20    23    1
    39    17    18   ar
    40    18    19   ar
    41    11    12    1
    42    12    13    1
    43     4     5   ar
    44     5    50    1
    45    50    51    2
    46    50    52    1
    47     5     6   ar
    48     6     7    1
    49    48    40   ar
    50    38    33   ar
    51     6     1   ar
    52    48    43   ar
    53    13     8    1
    54    19    14   ar
    55    26    27    1
    56    42    49    1
    57    31    32    1
    58    52    53    1
