@<TRIPOS>MOLECULE
*****
 51 56 0 0 0
SMALL
GASTEIGER

@<TRIPOS>ATOM
      1 O          58.4305   84.7056   11.3572 O.2     1  UNL1       -0.2701
      2 C          59.5355   85.0477   10.8543 C.2     1  UNL1        0.2483
      3 N          60.7589   84.5192   11.3922 N.am    1  UNL1       -0.2945
      4 H          61.6671   84.8618   11.0048 H       1  UNL1        0.1501
      5 C          59.5613   86.0316    9.7464 C.ar    1  UNL1        0.0808
      6 C          58.9786   85.7240    8.5055 C.ar    1  UNL1        0.0080
      7 C          59.0459   86.6299    7.4443 C.ar    1  UNL1        0.0148
      8 C          59.6981   87.8647    7.5980 C.ar    1  UNL1        0.0502
      9 C          60.2629   88.1811    8.8457 C.ar    1  UNL1        0.0443
     10 C          60.1936   87.2784    9.9107 C.ar    1  UNL1        0.1457
     11 F          60.7784   87.6123   11.0893 F       1  UNL1       -0.2040
     12 N          59.7807   88.7940    6.4950 N.pl3   1  UNL1       -0.3040
     13 C          61.0110   89.5653    6.2679 C.3     1  UNL1        0.1123
     14 C          61.2199   89.8257    4.7722 C.3     1  UNL1        0.1136
     15 N          60.0061   90.3617    4.1330 N.pl3   1  UNL1       -0.2897
     16 C          58.7315   90.3484    4.8653 C.3     1  UNL1        0.1136
     17 C          58.5889   89.0546    5.6727 C.3     1  UNL1        0.1123
     18 C          60.0862   91.0238    2.8503 C.ar    1  UNL1        0.1318
     19 C          61.3205   91.2383    2.2120 C.ar    1  UNL1        0.0343
     20 C          61.3559   91.8819    0.9740 C.ar    1  UNL1        0.0083
     21 C          60.1662   92.2948    0.3569 C.ar    1  UNL1        0.0906
     22 C          58.9565   92.0830    1.0348 C.ar    1  UNL1        0.1041
     23 N          58.9466   91.4565    2.2407 N.ar    1  UNL1       -0.2292
     24 C          60.1955   93.0353   -0.9559 C.3     1  UNL1        0.4200
     25 F          59.0738   93.8351   -1.0901 F       1  UNL1       -0.1658
     26 F          61.3160   93.8441   -1.0353 F       1  UNL1       -0.1658
     27 F          60.2245   92.1220   -1.9930 F       1  UNL1       -0.1658
     28 C          60.8057   83.7761   12.6563 C.3     1  UNL1        0.1535
     29 C          60.5593   82.3020   12.4071 C.2     1  UNL1        0.2444
     30 O          61.5111   81.4792   12.4955 O.2     1  UNL1       -0.2730
     31 N          59.2274   81.8329   12.1303 N.am    1  UNL1       -0.2801
     32 H          58.4818   82.5388   11.9371 H       1  UNL1        0.1550
     33 C          58.8824   80.4441   11.9891 C.ar    1  UNL1        0.0876
     34 C          58.1889   79.9805   10.8588 C.ar    1  UNL1        0.0384
     35 C          57.8945   78.6209   10.7390 C.ar    1  UNL1        0.1004
     36 N          58.2892   77.7496   11.7037 N.ar    1  UNL1       -0.2391
     37 C          58.9764   78.1638   12.8004 C.ar    1  UNL1        0.1366
     38 C          59.2932   79.5189   12.9634 C.ar    1  UNL1        0.1664
     39 O          59.9999   79.9478   14.0863 O.3     1  UNL1       -0.5030
     40 H          60.3024   79.2979   14.8024 H       1  UNL1        0.2923
     41 C          62.1390   84.0630   13.3903 C.3     1  UNL1        0.0569
     42 C          62.0091   85.1298   14.4470 C.ar    1  UNL1       -0.0017
     43 C          61.4851   84.9757   15.7282 C.ar    1  UNL1        0.0681
     44 N          61.6352   86.1147   16.4418 N.ar    1  UNL1       -0.3523
     45 C          62.2534   86.9861   15.6268 C.ar    1  UNL1        0.0563
     46 C          62.6505   88.2884   15.9283 C.ar    1  UNL1        0.0170
     47 C          63.3116   89.0234   14.9272 C.ar    1  UNL1        0.0015
     48 C          63.5517   88.4495   13.6596 C.ar    1  UNL1        0.0001
     49 C          63.1345   87.1355   13.3824 C.ar    1  UNL1        0.0012
     50 C          62.4936   86.4251   14.3988 C.ar    1  UNL1        0.0131
     51 H          61.3437   86.2745   17.4318 H       1  UNL1        0.1660
@<TRIPOS>BOND
     1     1     2    2
     2     2     3   am
     3     3    28    1
     4    28    41    1
     5    41    42    1
     6    42    43   ar
     7    43    44   ar
     8    44    45   ar
     9    45    46   ar
    10    46    47   ar
    11    47    48   ar
    12    48    49   ar
    13    49    50   ar
    14    28    29    1
    15    29    30    2
    16    29    31   am
    17    31    33    1
    18    33    34   ar
    19    34    35   ar
    20    35    36   ar
    21    36    37   ar
    22    37    38   ar
    23    38    39    1
    24     2     5    1
    25     5     6   ar
    26     6     7   ar
    27     7     8   ar
    28     8    12    1
    29    12    13    1
    30    13    14    1
    31    14    15    1
    32    15    18    1
    33    18    19   ar
    34    19    20   ar
    35    20    21   ar
    36    21    24    1
    37    24    25    1
    38    24    26    1
    39    24    27    1
    40    21    22   ar
    41    22    23   ar
    42    15    16    1
    43    16    17    1
    44     8     9   ar
    45     9    10   ar
    46    10    11    1
    47    50    42   ar
    48    38    33   ar
    49    10     5   ar
    50    50    45   ar
    51    17    12    1
    52    23    18   ar
    53     3     4    1
    54    44    51    1
    55    31    32    1
    56    39    40    1
@<TRIPOS>MOLECULE
*****
 51 56 0 0 0
SMALL
GASTEIGER

@<TRIPOS>ATOM
      1 O          58.8443   85.4770    8.0862 O.2     1  UNL1       -0.2701
      2 C          59.7812   85.0182    8.7952 C.2     1  UNL1        0.2483
      3 N          59.9902   83.5984    8.8705 N.am    1  UNL1       -0.2945
      4 H          60.7302   83.2330    9.5116 H       1  UNL1        0.1501
      5 C          60.6244   85.9478    9.5834 C.ar    1  UNL1        0.0808
      6 C          61.0444   87.1705    9.0335 C.ar    1  UNL1        0.0080
      7 C          61.8804   88.0252    9.7558 C.ar    1  UNL1        0.0148
      8 C          62.3173   87.6776   11.0450 C.ar    1  UNL1        0.0502
      9 C          61.8802   86.4640   11.6034 C.ar    1  UNL1        0.0443
     10 C          61.0402   85.6085   10.8847 C.ar    1  UNL1        0.1457
     11 F          60.6663   84.4326   11.4505 F       1  UNL1       -0.2040
     12 N          63.1946   88.5552   11.7847 N.pl3   1  UNL1       -0.3040
     13 C          63.0125   88.7353   13.2319 C.3     1  UNL1        0.1123
     14 C          64.3585   88.9839   13.9213 C.3     1  UNL1        0.1136
     15 N          65.1377   90.0336   13.2429 N.pl3   1  UNL1       -0.2897
     16 C          64.7098   90.5194   11.9231 C.3     1  UNL1        0.1136
     17 C          64.1937   89.3603   11.0650 C.3     1  UNL1        0.1123
     18 C          66.2355   90.6843   13.9223 C.ar    1  UNL1        0.1318
     19 C          66.0742   91.2531   15.1979 C.ar    1  UNL1        0.0343
     20 C          67.1586   91.8730   15.8206 C.ar    1  UNL1        0.0083
     21 C          68.4101   91.9113   15.1888 C.ar    1  UNL1        0.0906
     22 C          68.5262   91.3526   13.9074 C.ar    1  UNL1        0.1041
     23 N          67.4558   90.7564   13.3196 N.ar    1  UNL1       -0.2292
     24 C          69.5754   92.6216   15.8292 C.3     1  UNL1        0.4200
     25 F          70.5194   92.9666   14.8775 F       1  UNL1       -0.1658
     26 F          69.1544   93.7791   16.4608 F       1  UNL1       -0.1658
     27 F          70.1605   91.7864   16.7623 F       1  UNL1       -0.1658
     28 C          59.0187   82.6319    8.3465 C.3     1  UNL1        0.1535
     29 C          59.5591   81.2224    8.4770 C.2     1  UNL1        0.2444
     30 O          59.4993   80.4302    7.4974 O.2     1  UNL1       -0.2730
     31 N          60.1962   80.8075    9.6987 N.am    1  UNL1       -0.2801
     32 H          60.1228   81.4304   10.5342 H       1  UNL1        0.1550
     33 C          60.8325   79.5299    9.8744 C.ar    1  UNL1        0.0876
     34 C          62.0261   79.2161    9.2034 C.ar    1  UNL1        0.0384
     35 C          62.6338   77.9774    9.4182 C.ar    1  UNL1        0.1004
     36 N          62.0808   77.0868   10.2822 N.ar    1  UNL1       -0.2391
     37 C          60.9366   77.3670   10.9595 C.ar    1  UNL1        0.1366
     38 C          60.2915   78.5970   10.7748 C.ar    1  UNL1        0.1664
     39 O          59.1183   78.8893   11.4693 O.3     1  UNL1       -0.5030
     40 H          58.7093   78.2294   12.1206 H       1  UNL1        0.2923
     41 C          57.6468   82.8327    9.0366 C.3     1  UNL1        0.0569
     42 C          57.7017   82.6114   10.5264 C.ar    1  UNL1       -0.0017
     43 C          57.9020   81.3996   11.1831 C.ar    1  UNL1        0.0681
     44 N          58.0104   81.5956   12.5169 N.ar    1  UNL1       -0.3523
     45 C          57.8857   82.9196   12.7102 C.ar    1  UNL1        0.0563
     46 C          57.9606   83.6068   13.9212 C.ar    1  UNL1        0.0170
     47 C          57.8273   85.0071   13.8927 C.ar    1  UNL1        0.0015
     48 C          57.6175   85.6807   12.6695 C.ar    1  UNL1        0.0001
     49 C          57.5406   84.9602   11.4642 C.ar    1  UNL1        0.0012
     50 C          57.6903   83.5736   11.5209 C.ar    1  UNL1        0.0131
     51 H          58.1751   80.8646   13.2443 H       1  UNL1        0.1660
@<TRIPOS>BOND
     1     1     2    2
     2     2     3   am
     3     3    28    1
     4    28    41    1
     5    41    42    1
     6    42    43   ar
     7    43    44   ar
     8    44    45   ar
     9    45    46   ar
    10    46    47   ar
    11    47    48   ar
    12    48    49   ar
    13    49    50   ar
    14    28    29    1
    15    29    30    2
    16    29    31   am
    17    31    33    1
    18    33    34   ar
    19    34    35   ar
    20    35    36   ar
    21    36    37   ar
    22    37    38   ar
    23    38    39    1
    24     2     5    1
    25     5     6   ar
    26     6     7   ar
    27     7     8   ar
    28     8    12    1
    29    12    13    1
    30    13    14    1
    31    14    15    1
    32    15    18    1
    33    18    19   ar
    34    19    20   ar
    35    20    21   ar
    36    21    24    1
    37    24    25    1
    38    24    26    1
    39    24    27    1
    40    21    22   ar
    41    22    23   ar
    42    15    16    1
    43    16    17    1
    44     8     9   ar
    45     9    10   ar
    46    10    11    1
    47    50    42   ar
    48    38    33   ar
    49    10     5   ar
    50    50    45   ar
    51    17    12    1
    52    23    18   ar
    53     3     4    1
    54    44    51    1
    55    31    32    1
    56    39    40    1
@<TRIPOS>MOLECULE
*****
 51 56 0 0 0
SMALL
GASTEIGER

@<TRIPOS>ATOM
      1 O          58.2339   84.3539   11.0300 O.2     1  UNL1       -0.2701
      2 C          59.3469   84.9073   10.8157 C.2     1  UNL1        0.2483
      3 N          60.4519   84.6545   11.6991 N.am    1  UNL1       -0.2945
      4 H          61.3476   85.1700   11.5432 H       1  UNL1        0.1501
      5 C          59.4873   85.8528    9.6832 C.ar    1  UNL1        0.0808
      6 C          60.1768   87.0658    9.8479 C.ar    1  UNL1        0.0080
      7 C          60.2671   87.9808    8.7963 C.ar    1  UNL1        0.0148
      8 C          59.6695   87.7055    7.5550 C.ar    1  UNL1        0.0502
      9 C          58.9976   86.4827    7.3838 C.ar    1  UNL1        0.0443
     10 C          58.9092   85.5633    8.4329 C.ar    1  UNL1        0.1457
     11 F          58.2254   84.4077    8.2330 F       1  UNL1       -0.2040
     12 N          59.7502   88.6595    6.4732 N.pl3   1  UNL1       -0.3040
     13 C          60.9617   89.4714    6.2915 C.3     1  UNL1        0.1123
     14 C          61.1979   89.7689    4.8068 C.3     1  UNL1        0.1136
     15 N          59.9839   90.2819    4.1493 N.pl3   1  UNL1       -0.2897
     16 C          58.6934   90.2158    4.8501 C.3     1  UNL1        0.1136
     17 C          58.5708   88.9017    5.6277 C.3     1  UNL1        0.1123
     18 C          60.0744   90.9726    2.8824 C.ar    1  UNL1        0.1318
     19 C          58.9227   91.3637    2.1770 C.ar    1  UNL1        0.0343
     20 C          59.0521   92.0283    0.9565 C.ar    1  UNL1        0.0083
     21 C          60.3231   92.3253    0.4438 C.ar    1  UNL1        0.0906
     22 C          61.4481   91.8996    1.1656 C.ar    1  UNL1        0.1041
     23 N          61.2978   91.2516    2.3506 N.ar    1  UNL1       -0.2292
     24 C          60.4758   92.9977   -0.8968 C.3     1  UNL1        0.4200
     25 F          60.5234   92.0578   -1.9117 F       1  UNL1       -0.1658
     26 F          59.4095   93.8458   -1.1417 F       1  UNL1       -0.1658
     27 F          61.6469   93.7318   -0.9070 F       1  UNL1       -0.1658
     28 C          60.2899   83.9627   12.9827 C.3     1  UNL1        0.1535
     29 C          60.2029   82.4659   12.7640 C.2     1  UNL1        0.2444
     30 O          61.2061   81.7357   12.9898 O.2     1  UNL1       -0.2730
     31 N          58.9575   81.8705   12.3578 N.am    1  UNL1       -0.2801
     32 H          58.1805   82.5001   12.0556 H       1  UNL1        0.1550
     33 C          58.7530   80.4526   12.2321 C.ar    1  UNL1        0.0876
     34 C          59.0407   79.5814   13.2959 C.ar    1  UNL1        0.0384
     35 C          58.8037   78.2130   13.1511 C.ar    1  UNL1        0.1004
     36 N          58.2844   77.7293   11.9927 N.ar    1  UNL1       -0.2391
     37 C          57.9791   78.5478   10.9518 C.ar    1  UNL1        0.1366
     38 C          58.2011   79.9276   11.0516 C.ar    1  UNL1        0.1664
     39 O          57.8875   80.7711    9.9865 O.3     1  UNL1       -0.5030
     40 H          57.4921   80.4128    9.1251 H       1  UNL1        0.2923
     41 C          61.4212   84.3791   13.9552 C.3     1  UNL1        0.0569
     42 C          62.0490   85.7006   13.5933 C.ar    1  UNL1       -0.0017
     43 C          62.2888   86.1868   12.3103 C.ar    1  UNL1        0.0681
     44 N          62.7555   87.4551   12.3637 N.ar    1  UNL1       -0.3523
     45 C          62.8087   87.7778   13.6671 C.ar    1  UNL1        0.0563
     46 C          63.1985   88.9973   14.2197 C.ar    1  UNL1        0.0170
     47 C          63.1540   89.1298   15.6197 C.ar    1  UNL1        0.0015
     48 C          62.7324   88.0507   16.4270 C.ar    1  UNL1        0.0001
     49 C          62.3505   86.8305   15.8415 C.ar    1  UNL1        0.0012
     50 C          62.3913   86.7321   14.4498 C.ar    1  UNL1        0.0131
     51 H          63.0062   88.0630   11.5525 H       1  UNL1        0.1660
@<TRIPOS>BOND
     1     1     2    2
     2     2     3   am
     3     3    28    1
     4    28    41    1
     5    41    42    1
     6    42    43   ar
     7    43    44   ar
     8    44    45   ar
     9    45    46   ar
    10    46    47   ar
    11    47    48   ar
    12    48    49   ar
    13    49    50   ar
    14    28    29    1
    15    29    30    2
    16    29    31   am
    17    31    33    1
    18    33    34   ar
    19    34    35   ar
    20    35    36   ar
    21    36    37   ar
    22    37    38   ar
    23    38    39    1
    24     2     5    1
    25     5     6   ar
    26     6     7   ar
    27     7     8   ar
    28     8    12    1
    29    12    13    1
    30    13    14    1
    31    14    15    1
    32    15    18    1
    33    18    19   ar
    34    19    20   ar
    35    20    21   ar
    36    21    24    1
    37    24    25    1
    38    24    26    1
    39    24    27    1
    40    21    22   ar
    41    22    23   ar
    42    15    16    1
    43    16    17    1
    44     8     9   ar
    45     9    10   ar
    46    10    11    1
    47    50    42   ar
    48    38    33   ar
    49    10     5   ar
    50    50    45   ar
    51    17    12    1
    52    23    18   ar
    53     3     4    1
    54    44    51    1
    55    31    32    1
    56    39    40    1
@<TRIPOS>MOLECULE
*****
 51 56 0 0 0
SMALL
GASTEIGER

@<TRIPOS>ATOM
      1 O          60.3246   84.0665   10.7561 O.2     1  UNL1       -0.2701
      2 C          59.6400   85.1227   10.8370 C.2     1  UNL1        0.2483
      3 N          58.8023   85.3445   11.9835 N.am    1  UNL1       -0.2945
      4 H          58.1944   86.1944   12.0044 H       1  UNL1        0.1501
      5 C          59.6688   86.0999    9.7232 C.ar    1  UNL1        0.0808
      6 C          59.0687   85.7940    8.4902 C.ar    1  UNL1        0.0080
      7 C          59.1383   86.6928    7.4232 C.ar    1  UNL1        0.0148
      8 C          59.8102   87.9186    7.5630 C.ar    1  UNL1        0.0502
      9 C          60.3926   88.2336    8.8029 C.ar    1  UNL1        0.0443
     10 C          60.3211   87.3381    9.8737 C.ar    1  UNL1        0.1457
     11 F          60.9231   87.6699   11.0443 F       1  UNL1       -0.2040
     12 N          59.8950   88.8404    6.4539 N.pl3   1  UNL1       -0.3040
     13 C          61.1642   89.5155    6.1482 C.3     1  UNL1        0.1123
     14 C          61.2990   89.7611    4.6415 C.3     1  UNL1        0.1136
     15 N          60.0924   90.3896    4.0772 N.pl3   1  UNL1       -0.2897
     16 C          58.8686   90.4730    4.8873 C.3     1  UNL1        0.1136
     17 C          58.6779   89.1928    5.7063 C.3     1  UNL1        0.1123
     18 C          60.1431   91.0454    2.7897 C.ar    1  UNL1        0.1318
     19 C          58.9711   91.3451    2.0732 C.ar    1  UNL1        0.0343
     20 C          59.0622   91.9787    0.8329 C.ar    1  UNL1        0.0083
     21 C          60.3139   92.3353    0.3107 C.ar    1  UNL1        0.0906
     22 C          61.4614   91.9999    1.0446 C.ar    1  UNL1        0.1041
     23 N          61.3484   91.3806    2.2491 N.ar    1  UNL1       -0.2292
     24 C          60.4279   92.9744   -1.0498 C.3     1  UNL1        0.4200
     25 F          59.2795   93.6853   -1.3528 F       1  UNL1       -0.1658
     26 F          61.5011   93.8477   -1.0907 F       1  UNL1       -0.1658
     27 F          60.6122   91.9892   -2.0016 F       1  UNL1       -0.1658
     28 C          58.5192   84.2922   12.9657 C.3     1  UNL1        0.1535
     29 C          58.3899   82.9504   12.2738 C.2     1  UNL1        0.2444
     30 O          57.5677   82.8043   11.3286 O.2     1  UNL1       -0.2730
     31 N          59.2489   81.8603   12.6540 N.am    1  UNL1       -0.2801
     32 H          59.8295   81.9623   13.5165 H       1  UNL1        0.1550
     33 C          59.2722   80.5893   11.9818 C.ar    1  UNL1        0.0876
     34 C          58.3910   79.5587   12.3488 C.ar    1  UNL1        0.0384
     35 C          58.4200   78.3463   11.6569 C.ar    1  UNL1        0.1004
     36 N          59.2861   78.1701   10.6251 N.ar    1  UNL1       -0.2391
     37 C          60.1390   79.1532   10.2345 C.ar    1  UNL1        0.1366
     38 C          60.1459   80.3859   10.9005 C.ar    1  UNL1        0.1664
     39 O          61.0181   81.3980   10.5016 O.3     1  UNL1       -0.5030
     40 H          61.6586   81.2710    9.7267 H       1  UNL1        0.2923
     41 C          59.5911   84.3088   14.0836 C.3     1  UNL1        0.0569
     42 C          60.0602   85.6997   14.4257 C.ar    1  UNL1       -0.0017
     43 C          59.2610   86.7942   14.7470 C.ar    1  UNL1        0.0681
     44 N          60.0256   87.8483   15.1123 N.ar    1  UNL1       -0.3523
     45 C          61.3001   87.4302   15.0302 C.ar    1  UNL1        0.0563
     46 C          62.4489   88.1574   15.3399 C.ar    1  UNL1        0.0170
     47 C          63.6921   87.5124   15.2066 C.ar    1  UNL1        0.0015
     48 C          63.7589   86.1728   14.7651 C.ar    1  UNL1        0.0001
     49 C          62.5834   85.4662   14.4546 C.ar    1  UNL1        0.0012
     50 C          61.3635   86.1266   14.6094 C.ar    1  UNL1        0.0131
     51 H          59.6887   88.7898   15.4132 H       1  UNL1        0.1660
@<TRIPOS>BOND
     1     1     2    2
     2     2     3   am
     3     3    28    1
     4    28    41    1
     5    41    42    1
     6    42    43   ar
     7    43    44   ar
     8    44    45   ar
     9    45    46   ar
    10    46    47   ar
    11    47    48   ar
    12    48    49   ar
    13    49    50   ar
    14    28    29    1
    15    29    30    2
    16    29    31   am
    17    31    33    1
    18    33    34   ar
    19    34    35   ar
    20    35    36   ar
    21    36    37   ar
    22    37    38   ar
    23    38    39    1
    24     2     5    1
    25     5     6   ar
    26     6     7   ar
    27     7     8   ar
    28     8    12    1
    29    12    13    1
    30    13    14    1
    31    14    15    1
    32    15    18    1
    33    18    19   ar
    34    19    20   ar
    35    20    21   ar
    36    21    24    1
    37    24    25    1
    38    24    26    1
    39    24    27    1
    40    21    22   ar
    41    22    23   ar
    42    15    16    1
    43    16    17    1
    44     8     9   ar
    45     9    10   ar
    46    10    11    1
    47    50    42   ar
    48    38    33   ar
    49    10     5   ar
    50    50    45   ar
    51    17    12    1
    52    23    18   ar
    53     3     4    1
    54    44    51    1
    55    31    32    1
    56    39    40    1
