@<TRIPOS>MOLECULE
*****
 42 46 0 0 0
SMALL
GASTEIGER

@<TRIPOS>ATOM
      1 C          -6.3462  -17.2491   21.5261 C.3     1  UNL1        0.1332
      2 N          -5.9813  -16.5079   22.7331 N.ar    1  UNL1       -0.2977
      3 C          -4.8182  -15.8547   23.0006 C.ar    1  UNL1        0.2018
      4 N          -4.8035  -15.2433   24.2136 N.ar    1  UNL1       -0.2137
      5 C          -6.0189  -15.5253   24.7192 C.ar    1  UNL1        0.0983
      6 C          -6.5455  -15.1212   25.9654 C.ar    1  UNL1        0.0334
      7 C          -7.8913  -15.5077   26.2656 C.ar    1  UNL1        0.0872
      8 C          -8.5919  -16.2889   25.3184 C.ar    1  UNL1        0.1398
      9 C          -8.0373  -16.6778   24.1249 C.ar    1  UNL1        0.0327
     10 C          -6.7340  -16.2819   23.8264 C.ar    1  UNL1        0.0787
     11 C          -9.0201  -17.4748   23.3406 C.3     1  UNL1        0.0709
     12 C         -10.2829  -17.4649   24.2637 C.3     1  UNL1        0.1375
     13 C         -11.4574  -16.7404   23.5922 C.3     1  UNL1        0.0439
     14 C         -10.6928  -18.8870   24.6692 C.3     1  UNL1        0.0439
     15 O          -9.8914  -16.7388   25.4307 O.3     1  UNL1       -0.4824
     16 C          -8.5656  -15.1319   27.5257 C.2     1  UNL1        0.2523
     17 O          -8.8623  -16.0302   28.3595 O.2     1  UNL1       -0.2697
     18 N          -8.9545  -13.7716   27.7652 N.am    1  UNL1       -0.2803
     19 H          -9.1452  -13.1693   26.9325 H       1  UNL1        0.1552
     20 C          -9.1995  -13.2265   29.0730 C.ar    1  UNL1        0.0505
     21 C          -8.3726  -12.2274   29.6155 C.ar    1  UNL1        0.0147
     22 C          -8.6556  -11.6840   30.8701 C.ar    1  UNL1        0.0012
     23 C          -9.7639  -12.1271   31.5948 C.ar    1  UNL1        0.0039
     24 C         -10.5989  -13.1300   31.0736 C.ar    1  UNL1        0.0726
     25 C         -10.3240  -13.6523   29.7970 C.ar    1  UNL1        0.0185
     26 C         -11.8301  -13.5671   31.8271 C.3     1  UNL1        0.4186
     27 F         -12.0365  -14.9276   31.6769 F       1  UNL1       -0.1659
     28 F         -11.6997  -13.2966   33.1784 F       1  UNL1       -0.1659
     29 F         -12.9291  -12.8877   31.3359 F       1  UNL1       -0.1659
     30 C          -5.6868  -14.3461   26.9376 C.3     1  UNL1        0.1654
     31 O          -4.9496  -13.3738   26.2498 O.3     1  UNL1       -0.3772
     32 H          -4.3451  -12.9600   26.9194 H       1  UNL1        0.2109
     33 N          -3.7223  -15.7623   22.0778 N.pl3   1  UNL1       -0.2814
     34 H          -3.1995  -14.8617   22.0082 H       1  UNL1        0.1551
     35 C          -3.1277  -16.9271   21.4868 C.ar    1  UNL1        0.0889
     36 C          -3.2498  -17.1344   20.1026 C.ar    1  UNL1        0.1543
     37 F          -3.9092  -16.2335   19.3313 F       1  UNL1       -0.2028
     38 C          -2.6740  -18.2587   19.5040 C.ar    1  UNL1        0.0310
     39 C          -1.9846  -19.1908   20.2817 C.ar    1  UNL1        0.0033
     40 C          -1.8782  -19.0079   21.6622 C.ar    1  UNL1        0.0128
     41 C          -2.4509  -17.8854   22.2728 C.ar    1  UNL1        0.0733
     42 CL         -2.3685  -17.7523   24.0258 Cl      1  UNL1       -0.0809
@<TRIPOS>BOND
     1     1     2    1
     2     2     3   ar
     3     3    33    1
     4    33    35    1
     5    35    36   ar
     6    36    37    1
     7    36    38   ar
     8    38    39   ar
     9    39    40   ar
    10    40    41   ar
    11    41    42    1
    12     3     4   ar
    13     4     5   ar
    14     5     6   ar
    15     6    30    1
    16    30    31    1
    17     6     7   ar
    18     7    16    1
    19    16    17    2
    20    16    18   am
    21    18    20    1
    22    20    21   ar
    23    21    22   ar
    24    22    23   ar
    25    23    24   ar
    26    24    26    1
    27    26    27    1
    28    26    28    1
    29    26    29    1
    30    24    25   ar
    31     7     8   ar
    32     8     9   ar
    33     9    10   ar
    34     9    11    1
    35    11    12    1
    36    12    13    1
    37    12    14    1
    38    12    15    1
    39    10     2   ar
    40    41    35   ar
    41    10     5   ar
    42    25    20   ar
    43    15     8    1
    44    33    34    1
    45    31    32    1
    46    18    19    1
@<TRIPOS>MOLECULE
*****
 42 46 0 0 0
SMALL
GASTEIGER

@<TRIPOS>ATOM
      1 C          -6.9948  -18.0709   20.9216 C.3     1  UNL1        0.1332
      2 N          -6.3318  -17.3315   21.9954 N.ar    1  UNL1       -0.2977
      3 C          -5.0733  -16.8147   22.0092 C.ar    1  UNL1        0.2018
      4 N          -4.7656  -16.1612   23.1598 N.ar    1  UNL1       -0.2137
      5 C          -5.8902  -16.2723   23.8914 C.ar    1  UNL1        0.0983
      6 C          -6.1280  -15.7571   25.1842 C.ar    1  UNL1        0.0334
      7 C          -7.4298  -15.9642   25.7440 C.ar    1  UNL1        0.0872
      8 C          -8.3769  -16.6918   24.9880 C.ar    1  UNL1        0.1398
      9 C          -8.1003  -17.1933   23.7409 C.ar    1  UNL1        0.0327
     10 C          -6.8387  -16.9716   23.1898 C.ar    1  UNL1        0.0787
     11 C          -9.2945  -17.8957   23.1962 C.3     1  UNL1        0.0709
     12 C         -10.3553  -17.6946   24.3281 C.3     1  UNL1        0.1375
     13 C         -11.5449  -16.8602   23.8343 C.3     1  UNL1        0.0439
     14 C         -10.8403  -19.0386   24.8880 C.3     1  UNL1        0.0439
     15 O          -9.6754  -16.9752   25.3589 O.3     1  UNL1       -0.4824
     16 C          -7.8125  -15.4584   27.0788 C.2     1  UNL1        0.2523
     17 O          -7.3346  -16.0081   28.1083 O.2     1  UNL1       -0.2697
     18 N          -8.7806  -14.4074   27.2086 N.am    1  UNL1       -0.2803
     19 H          -9.4890  -14.3054   26.4466 H       1  UNL1        0.1552
     20 C          -8.8978  -13.5643   28.3673 C.ar    1  UNL1        0.0505
     21 C         -10.0594  -13.5671   29.1592 C.ar    1  UNL1        0.0147
     22 C         -10.1331  -12.7705   30.3035 C.ar    1  UNL1        0.0012
     23 C          -9.0524  -11.9664   30.6717 C.ar    1  UNL1        0.0039
     24 C          -7.8850  -11.9437   29.8898 C.ar    1  UNL1        0.0726
     25 C          -7.8071  -12.7703   28.7546 C.ar    1  UNL1        0.0185
     26 C          -6.6945  -11.1228   30.3182 C.3     1  UNL1        0.4186
     27 F          -5.5825  -11.4428   29.5582 F       1  UNL1       -0.1659
     28 F          -6.9494   -9.7712   30.1628 F       1  UNL1       -0.1659
     29 F          -6.4200  -11.3793   31.6484 F       1  UNL1       -0.1659
     30 C          -5.0226  -15.0537   25.9370 C.3     1  UNL1        0.1654
     31 O          -5.3867  -13.7237   26.1829 O.3     1  UNL1       -0.3772
     32 H          -4.5949  -13.2921   26.5971 H       1  UNL1        0.2109
     33 N          -4.1640  -16.8939   20.9012 N.pl3   1  UNL1       -0.2814
     34 H          -4.2568  -16.2018   20.1255 H       1  UNL1        0.1551
     35 C          -2.9588  -17.6707   20.9625 C.ar    1  UNL1        0.0889
     36 C          -1.7491  -17.0383   21.2949 C.ar    1  UNL1        0.1543
     37 F          -1.7248  -15.7100   21.5711 F       1  UNL1       -0.2028
     38 C          -0.5638  -17.7757   21.3663 C.ar    1  UNL1        0.0310
     39 C          -0.5728  -19.1448   21.0938 C.ar    1  UNL1        0.0033
     40 C          -1.7651  -19.7793   20.7380 C.ar    1  UNL1        0.0128
     41 C          -2.9586  -19.0509   20.6634 C.ar    1  UNL1        0.0733
     42 CL         -4.4127  -19.8796   20.1193 Cl      1  UNL1       -0.0809
@<TRIPOS>BOND
     1     1     2    1
     2     2     3   ar
     3     3    33    1
     4    33    35    1
     5    35    36   ar
     6    36    37    1
     7    36    38   ar
     8    38    39   ar
     9    39    40   ar
    10    40    41   ar
    11    41    42    1
    12     3     4   ar
    13     4     5   ar
    14     5     6   ar
    15     6    30    1
    16    30    31    1
    17     6     7   ar
    18     7    16    1
    19    16    17    2
    20    16    18   am
    21    18    20    1
    22    20    21   ar
    23    21    22   ar
    24    22    23   ar
    25    23    24   ar
    26    24    26    1
    27    26    27    1
    28    26    28    1
    29    26    29    1
    30    24    25   ar
    31     7     8   ar
    32     8     9   ar
    33     9    10   ar
    34     9    11    1
    35    11    12    1
    36    12    13    1
    37    12    14    1
    38    12    15    1
    39    10     2   ar
    40    41    35   ar
    41    10     5   ar
    42    25    20   ar
    43    15     8    1
    44    33    34    1
    45    31    32    1
    46    18    19    1
@<TRIPOS>MOLECULE
*****
 42 46 0 0 0
SMALL
GASTEIGER

@<TRIPOS>ATOM
      1 C          -9.3387   -9.7649   34.1175 C.3     1  UNL1        0.1332
      2 N          -8.5145  -10.0723   32.9489 N.ar    1  UNL1       -0.2977
      3 C          -7.3029   -9.5526   32.6130 C.ar    1  UNL1        0.2018
      4 N          -6.7886  -10.0674   31.4659 N.ar    1  UNL1       -0.2137
      5 C          -7.7233  -10.9543   31.0760 C.ar    1  UNL1        0.0983
      6 C          -7.6931  -11.7894   29.9380 C.ar    1  UNL1        0.0334
      7 C          -8.7905  -12.6915   29.7566 C.ar    1  UNL1        0.0872
      8 C          -9.8411  -12.6681   30.7019 C.ar    1  UNL1        0.1398
      9 C          -9.8423  -11.8268   31.7860 C.ar    1  UNL1        0.0327
     10 C          -8.7621  -10.9646   31.9714 C.ar    1  UNL1        0.0787
     11 C         -11.0693  -12.0445   32.6004 C.3     1  UNL1        0.0709
     12 C         -11.7916  -13.1978   31.8289 C.3     1  UNL1        0.1375
     13 C         -11.8948  -14.4640   32.6899 C.3     1  UNL1        0.0439
     14 C         -13.1821  -12.7648   31.3453 C.3     1  UNL1        0.0439
     15 O         -10.9645  -13.4693   30.6955 O.3     1  UNL1       -0.4824
     16 C          -8.8693  -13.6311   28.6187 C.2     1  UNL1        0.2523
     17 O          -9.9697  -13.7896   28.0233 O.2     1  UNL1       -0.2697
     18 N          -7.7294  -14.4180   28.2445 N.am    1  UNL1       -0.2803
     19 H          -7.0286  -14.6384   28.9881 H       1  UNL1        0.1552
     20 C          -7.5532  -15.0058   26.9442 C.ar    1  UNL1        0.0505
     21 C          -6.3695  -14.8156   26.2099 C.ar    1  UNL1        0.0147
     22 C          -6.2052  -15.4312   24.9676 C.ar    1  UNL1        0.0012
     23 C          -7.2147  -16.2428   24.4458 C.ar    1  UNL1        0.0039
     24 C          -8.4084  -16.4400   25.1604 C.ar    1  UNL1        0.0726
     25 C          -8.5550  -15.8398   26.4239 C.ar    1  UNL1        0.0185
     26 C          -9.4744  -17.3639   24.6271 C.3     1  UNL1        0.4186
     27 F          -9.9910  -18.1502   25.6425 F       1  UNL1       -0.1659
     28 F         -10.5147  -16.6415   24.0684 F       1  UNL1       -0.1659
     29 F          -8.9240  -18.1827   23.6589 F       1  UNL1       -0.1659
     30 C          -6.5548  -11.6858   28.9496 C.3     1  UNL1        0.1654
     31 O          -6.3822  -10.3509   28.5619 O.3     1  UNL1       -0.3772
     32 H          -5.6873  -10.3563   27.8534 H       1  UNL1        0.2109
     33 N          -6.5951   -8.5925   33.4120 N.pl3   1  UNL1       -0.2814
     34 H          -6.6108   -8.6950   34.4505 H       1  UNL1        0.1551
     35 C          -5.6271   -7.6983   32.8437 C.ar    1  UNL1        0.0889
     36 C          -4.4145   -7.4786   33.5184 C.ar    1  UNL1        0.1543
     37 F          -4.1557   -8.1185   34.6866 F       1  UNL1       -0.2028
     38 C          -3.4544   -6.6164   32.9811 C.ar    1  UNL1        0.0310
     39 C          -3.7010   -5.9569   31.7757 C.ar    1  UNL1        0.0033
     40 C          -4.9131   -6.1484   31.1089 C.ar    1  UNL1        0.0128
     41 C          -5.8823   -7.0098   31.6375 C.ar    1  UNL1        0.0733
     42 CL         -7.4279   -7.1420   30.8063 Cl      1  UNL1       -0.0809
@<TRIPOS>BOND
     1     1     2    1
     2     2     3   ar
     3     3    33    1
     4    33    35    1
     5    35    36   ar
     6    36    37    1
     7    36    38   ar
     8    38    39   ar
     9    39    40   ar
    10    40    41   ar
    11    41    42    1
    12     3     4   ar
    13     4     5   ar
    14     5     6   ar
    15     6    30    1
    16    30    31    1
    17     6     7   ar
    18     7    16    1
    19    16    17    2
    20    16    18   am
    21    18    20    1
    22    20    21   ar
    23    21    22   ar
    24    22    23   ar
    25    23    24   ar
    26    24    26    1
    27    26    27    1
    28    26    28    1
    29    26    29    1
    30    24    25   ar
    31     7     8   ar
    32     8     9   ar
    33     9    10   ar
    34     9    11    1
    35    11    12    1
    36    12    13    1
    37    12    14    1
    38    12    15    1
    39    10     2   ar
    40    41    35   ar
    41    10     5   ar
    42    25    20   ar
    43    15     8    1
    44    33    34    1
    45    31    32    1
    46    18    19    1
@<TRIPOS>MOLECULE
*****
 42 46 0 0 0
SMALL
GASTEIGER

@<TRIPOS>ATOM
      1 C          -8.7112  -10.4051   31.3431 C.3     1  UNL1        0.1332
      2 N          -8.9415  -11.6629   30.6329 N.ar    1  UNL1       -0.2977
      3 C         -10.0015  -12.5089   30.7411 C.ar    1  UNL1        0.2018
      4 N          -9.9215  -13.5896   29.9218 N.ar    1  UNL1       -0.2137
      5 C          -8.7593  -13.4004   29.2693 C.ar    1  UNL1        0.0983
      6 C          -8.1858  -14.2276   28.2792 C.ar    1  UNL1        0.0334
      7 C          -6.9552  -13.7909   27.6913 C.ar    1  UNL1        0.0872
      8 C          -6.3801  -12.5862   28.1562 C.ar    1  UNL1        0.1398
      9 C          -6.9601  -11.8192   29.1353 C.ar    1  UNL1        0.0327
     10 C          -8.1692  -12.2364   29.6908 C.ar    1  UNL1        0.0787
     11 C          -6.1294  -10.6120   29.3977 C.3     1  UNL1        0.0709
     12 C          -4.9599  -10.7719   28.3712 C.3     1  UNL1        0.1375
     13 C          -4.9623   -9.6327   27.3429 C.3     1  UNL1        0.0439
     14 C          -3.6000  -10.8520   29.0778 C.3     1  UNL1        0.0439
     15 O          -5.2133  -12.0079   27.7001 O.3     1  UNL1       -0.4824
     16 C          -6.2636  -14.5544   26.6317 C.2     1  UNL1        0.2523
     17 O          -5.2709  -15.2709   26.9341 O.2     1  UNL1       -0.2697
     18 N          -6.6625  -14.4204   25.2600 N.am    1  UNL1       -0.2803
     19 H          -7.1147  -13.5226   24.9732 H       1  UNL1        0.1552
     20 C          -6.3802  -15.3979   24.2440 C.ar    1  UNL1        0.0505
     21 C          -7.4048  -16.1642   23.6616 C.ar    1  UNL1        0.0147
     22 C          -7.1110  -17.0774   22.6472 C.ar    1  UNL1        0.0012
     23 C          -5.7971  -17.2349   22.2014 C.ar    1  UNL1        0.0039
     24 C          -4.7573  -16.4838   22.7754 C.ar    1  UNL1        0.0726
     25 C          -5.0650  -15.5454   23.7768 C.ar    1  UNL1        0.0185
     26 C          -3.3474  -16.6082   22.2544 C.3     1  UNL1        0.4186
     27 F          -2.7470  -15.3638   22.1703 F       1  UNL1       -0.1659
     28 F          -2.5830  -17.4008   23.0931 F       1  UNL1       -0.1659
     29 F          -3.3761  -17.1805   20.9965 F       1  UNL1       -0.1659
     30 C          -8.8471  -15.5333   27.9037 C.3     1  UNL1        0.1654
     31 O          -9.0222  -15.5953   26.5154 O.3     1  UNL1       -0.3772
     32 H          -9.5351  -16.4262   26.3380 H       1  UNL1        0.2109
     33 N         -11.1321  -12.2696   31.5928 N.pl3   1  UNL1       -0.2814
     34 H         -11.8364  -11.5559   31.3032 H       1  UNL1        0.1551
     35 C         -11.4922  -13.1734   32.6478 C.ar    1  UNL1        0.0889
     36 C         -12.6129  -14.0054   32.4880 C.ar    1  UNL1        0.1543
     37 F         -13.3366  -13.9657   31.3408 F       1  UNL1       -0.2028
     38 C         -12.9793  -14.8977   33.4997 C.ar    1  UNL1        0.0310
     39 C         -12.2404  -14.9576   34.6826 C.ar    1  UNL1        0.0033
     40 C         -11.1392  -14.1176   34.8627 C.ar    1  UNL1        0.0128
     41 C         -10.7628  -13.2199   33.8562 C.ar    1  UNL1        0.0733
     42 CL         -9.4261  -12.1196   34.1725 Cl      1  UNL1       -0.0809
@<TRIPOS>BOND
     1     1     2    1
     2     2     3   ar
     3     3    33    1
     4    33    35    1
     5    35    36   ar
     6    36    37    1
     7    36    38   ar
     8    38    39   ar
     9    39    40   ar
    10    40    41   ar
    11    41    42    1
    12     3     4   ar
    13     4     5   ar
    14     5     6   ar
    15     6    30    1
    16    30    31    1
    17     6     7   ar
    18     7    16    1
    19    16    17    2
    20    16    18   am
    21    18    20    1
    22    20    21   ar
    23    21    22   ar
    24    22    23   ar
    25    23    24   ar
    26    24    26    1
    27    26    27    1
    28    26    28    1
    29    26    29    1
    30    24    25   ar
    31     7     8   ar
    32     8     9   ar
    33     9    10   ar
    34     9    11    1
    35    11    12    1
    36    12    13    1
    37    12    14    1
    38    12    15    1
    39    10     2   ar
    40    41    35   ar
    41    10     5   ar
    42    25    20   ar
    43    15     8    1
    44    33    34    1
    45    31    32    1
    46    18    19    1
@<TRIPOS>MOLECULE
*****
 42 46 0 0 0
SMALL
GASTEIGER

@<TRIPOS>ATOM
      1 C          -8.9531  -10.4207   31.5056 C.3     1  UNL1        0.1332
      2 N          -9.1645  -11.6674   30.7704 N.ar    1  UNL1       -0.2977
      3 C         -10.2233  -12.5187   30.8435 C.ar    1  UNL1        0.2018
      4 N         -10.1230  -13.5854   30.0083 N.ar    1  UNL1       -0.2137
      5 C          -8.9488  -13.3815   29.3822 C.ar    1  UNL1        0.0983
      6 C          -8.3527  -14.1902   28.3902 C.ar    1  UNL1        0.0334
      7 C          -7.1123  -13.7396   27.8341 C.ar    1  UNL1        0.0872
      8 C          -6.5511  -12.5408   28.3302 C.ar    1  UNL1        0.1398
      9 C          -7.1532  -11.7921   29.3100 C.ar    1  UNL1        0.0327
     10 C          -8.3715  -12.2226   29.8345 C.ar    1  UNL1        0.0787
     11 C          -6.3325  -10.5866   29.6088 C.3     1  UNL1        0.0709
     12 C          -5.1423  -10.7255   28.6032 C.3     1  UNL1        0.1375
     13 C          -5.1285   -9.5694   27.5940 C.3     1  UNL1        0.0439
     14 C          -3.7964  -10.8127   29.3352 C.3     1  UNL1        0.0439
     15 O          -5.3777  -11.9511   27.9070 O.3     1  UNL1       -0.4824
     16 C          -6.3971  -14.4831   26.7761 C.2     1  UNL1        0.2523
     17 O          -5.4130  -15.2077   27.0874 O.2     1  UNL1       -0.2697
     18 N          -6.7631  -14.3207   25.3982 N.am    1  UNL1       -0.2803
     19 H          -7.2069  -13.4164   25.1190 H       1  UNL1        0.1552
     20 C          -6.4583  -15.2781   24.3698 C.ar    1  UNL1        0.0505
     21 C          -5.1631  -15.3894   23.8348 C.ar    1  UNL1        0.0147
     22 C          -4.8819  -16.3553   22.8666 C.ar    1  UNL1        0.0012
     23 C          -5.8849  -17.2202   22.4239 C.ar    1  UNL1        0.0039
     24 C          -7.1879  -17.1208   22.9406 C.ar    1  UNL1        0.0726
     25 C          -7.4566  -16.1644   23.9362 C.ar    1  UNL1        0.0185
     26 C          -8.2573  -18.0926   22.5086 C.3     1  UNL1        0.4186
     27 F          -7.8010  -19.3957   22.6077 F       1  UNL1       -0.1659
     28 F          -9.3835  -17.9676   23.3037 F       1  UNL1       -0.1659
     29 F          -8.6025  -17.8348   21.1952 F       1  UNL1       -0.1659
     30 C          -9.0016  -15.4918   27.9802 C.3     1  UNL1        0.1654
     31 O          -8.0371  -16.3563   27.4470 O.3     1  UNL1       -0.3772
     32 H          -8.5305  -17.1518   27.1174 H       1  UNL1        0.2109
     33 N         -11.3714  -12.2974   31.6765 N.pl3   1  UNL1       -0.2814
     34 H         -12.0714  -11.5799   31.3858 H       1  UNL1        0.1551
     35 C         -11.7507  -13.2213   32.7071 C.ar    1  UNL1        0.0889
     36 C         -12.9155  -13.9903   32.5468 C.ar    1  UNL1        0.1543
     37 F         -13.6641  -13.8718   31.4212 F       1  UNL1       -0.2028
     38 C         -13.3014  -14.9007   33.5347 C.ar    1  UNL1        0.0310
     39 C         -12.5377  -15.0414   34.6948 C.ar    1  UNL1        0.0033
     40 C         -11.3916  -14.2642   34.8762 C.ar    1  UNL1        0.0128
     41 C         -10.9951  -13.3491   33.8933 C.ar    1  UNL1        0.0733
     42 CL         -9.5974  -12.3288   34.2140 Cl      1  UNL1       -0.0809
@<TRIPOS>BOND
     1     1     2    1
     2     2     3   ar
     3     3    33    1
     4    33    35    1
     5    35    36   ar
     6    36    37    1
     7    36    38   ar
     8    38    39   ar
     9    39    40   ar
    10    40    41   ar
    11    41    42    1
    12     3     4   ar
    13     4     5   ar
    14     5     6   ar
    15     6    30    1
    16    30    31    1
    17     6     7   ar
    18     7    16    1
    19    16    17    2
    20    16    18   am
    21    18    20    1
    22    20    21   ar
    23    21    22   ar
    24    22    23   ar
    25    23    24   ar
    26    24    26    1
    27    26    27    1
    28    26    28    1
    29    26    29    1
    30    24    25   ar
    31     7     8   ar
    32     8     9   ar
    33     9    10   ar
    34     9    11    1
    35    11    12    1
    36    12    13    1
    37    12    14    1
    38    12    15    1
    39    10     2   ar
    40    41    35   ar
    41    10     5   ar
    42    25    20   ar
    43    15     8    1
    44    33    34    1
    45    31    32    1
    46    18    19    1
@<TRIPOS>MOLECULE
*****
 42 46 0 0 0
SMALL
GASTEIGER

@<TRIPOS>ATOM
      1 C          -9.1155  -15.0244   28.2915 C.3     1  UNL1        0.1332
      2 N          -7.9191  -14.8269   27.4735 N.ar    1  UNL1       -0.2977
      3 C          -6.8232  -14.0709   27.7536 C.ar    1  UNL1        0.2018
      4 N          -5.8693  -14.1158   26.7874 N.ar    1  UNL1       -0.2137
      5 C          -6.3965  -14.9454   25.8676 C.ar    1  UNL1        0.0983
      6 C          -5.8146  -15.3575   24.6490 C.ar    1  UNL1        0.0334
      7 C          -6.5530  -16.2900   23.8514 C.ar    1  UNL1        0.0872
      8 C          -7.8203  -16.7119   24.3138 C.ar    1  UNL1        0.1398
      9 C          -8.3601  -16.2727   25.4965 C.ar    1  UNL1        0.0327
     10 C          -7.6293  -15.3811   26.2811 C.ar    1  UNL1        0.0787
     11 C          -9.6916  -16.9017   25.7152 C.3     1  UNL1        0.0709
     12 C          -9.8408  -17.8299   24.4650 C.3     1  UNL1        0.1375
     13 C          -9.9043  -19.3078   24.8735 C.3     1  UNL1        0.0439
     14 C         -11.0713  -17.4524   23.6293 C.3     1  UNL1        0.0439
     15 O          -8.6612  -17.6097   23.6887 O.3     1  UNL1       -0.4824
     16 C          -6.0466  -16.8147   22.5660 C.2     1  UNL1        0.2523
     17 O          -6.1344  -16.1013   21.5298 O.2     1  UNL1       -0.2697
     18 N          -5.5352  -18.1523   22.4769 N.am    1  UNL1       -0.2803
     19 H          -5.8963  -18.8548   23.1616 H       1  UNL1        0.1552
     20 C          -4.6451  -18.6028   21.4414 C.ar    1  UNL1        0.0505
     21 C          -5.1112  -19.3683   20.3583 C.ar    1  UNL1        0.0147
     22 C          -4.2354  -19.7584   19.3435 C.ar    1  UNL1        0.0012
     23 C          -2.8897  -19.3890   19.3952 C.ar    1  UNL1        0.0039
     24 C          -2.4021  -18.6302   20.4727 C.ar    1  UNL1        0.0726
     25 C          -3.2962  -18.2167   21.4766 C.ar    1  UNL1        0.0185
     26 C          -0.9633  -18.1791   20.5003 C.3     1  UNL1        0.4186
     27 F          -0.8862  -16.8011   20.6074 F       1  UNL1       -0.1659
     28 F          -0.2960  -18.7341   21.5786 F       1  UNL1       -0.1659
     29 F          -0.3397  -18.5758   19.3323 F       1  UNL1       -0.1659
     30 C          -4.4833  -14.7912   24.2129 C.3     1  UNL1        0.1654
     31 O          -4.6160  -14.1740   22.9626 O.3     1  UNL1       -0.3772
     32 H          -3.7015  -13.9013   22.6901 H       1  UNL1        0.2109
     33 N          -6.6500  -13.3346   28.9738 N.pl3   1  UNL1       -0.2814
     34 H          -6.2625  -13.8289   29.8074 H       1  UNL1        0.1551
     35 C          -6.6913  -11.9005   29.0072 C.ar    1  UNL1        0.0889
     36 C          -5.6820  -11.1682   28.3600 C.ar    1  UNL1        0.1543
     37 F          -4.6884  -11.8114   27.6964 F       1  UNL1       -0.2028
     38 C          -5.7047   -9.7707   28.3743 C.ar    1  UNL1        0.0310
     39 C          -6.7246   -9.0932   29.0448 C.ar    1  UNL1        0.0033
     40 C          -7.7193   -9.8108   29.7128 C.ar    1  UNL1        0.0128
     41 C          -7.7070  -11.2109   29.7051 C.ar    1  UNL1        0.0733
     42 CL         -8.9294  -12.0643   30.6406 Cl      1  UNL1       -0.0809
@<TRIPOS>BOND
     1     1     2    1
     2     2     3   ar
     3     3    33    1
     4    33    35    1
     5    35    36   ar
     6    36    37    1
     7    36    38   ar
     8    38    39   ar
     9    39    40   ar
    10    40    41   ar
    11    41    42    1
    12     3     4   ar
    13     4     5   ar
    14     5     6   ar
    15     6    30    1
    16    30    31    1
    17     6     7   ar
    18     7    16    1
    19    16    17    2
    20    16    18   am
    21    18    20    1
    22    20    21   ar
    23    21    22   ar
    24    22    23   ar
    25    23    24   ar
    26    24    26    1
    27    26    27    1
    28    26    28    1
    29    26    29    1
    30    24    25   ar
    31     7     8   ar
    32     8     9   ar
    33     9    10   ar
    34     9    11    1
    35    11    12    1
    36    12    13    1
    37    12    14    1
    38    12    15    1
    39    10     2   ar
    40    41    35   ar
    41    10     5   ar
    42    25    20   ar
    43    15     8    1
    44    33    34    1
    45    31    32    1
    46    18    19    1
@<TRIPOS>MOLECULE
*****
 42 46 0 0 0
SMALL
GASTEIGER

@<TRIPOS>ATOM
      1 C          -8.7309   -6.1560   29.4056 C.3     1  UNL1        0.1332
      2 N          -8.6998   -7.5992   29.6417 N.ar    1  UNL1       -0.2977
      3 C          -7.6933   -8.4746   29.3742 C.ar    1  UNL1        0.2018
      4 N          -7.9739   -9.7538   29.7351 N.ar    1  UNL1       -0.2137
      5 C          -9.2112   -9.6656   30.2580 C.ar    1  UNL1        0.0983
      6 C          -9.9890  -10.7095   30.8047 C.ar    1  UNL1        0.0334
      7 C         -11.2673  -10.3605   31.3478 C.ar    1  UNL1        0.0872
      8 C         -11.6807   -9.0107   31.2755 C.ar    1  UNL1        0.1398
      9 C         -10.9024   -8.0274   30.7183 C.ar    1  UNL1        0.0327
     10 C          -9.6492   -8.3669   30.2094 C.ar    1  UNL1        0.0787
     11 C         -11.6000   -6.7149   30.8016 C.3     1  UNL1        0.0709
     12 C         -12.9273   -7.0797   31.5447 C.3     1  UNL1        0.1375
     13 C         -13.0166   -6.3728   32.9039 C.3     1  UNL1        0.0439
     14 C         -14.1581   -6.7514   30.6889 C.3     1  UNL1        0.0439
     15 O         -12.8658   -8.4919   31.7554 O.3     1  UNL1       -0.4824
     16 C         -12.1683  -11.3551   31.9664 C.2     1  UNL1        0.2523
     17 O         -13.3133  -11.5431   31.4726 O.2     1  UNL1       -0.2697
     18 N         -11.7804  -12.0421   33.1649 N.am    1  UNL1       -0.2803
     19 H         -11.1039  -11.5615   33.8006 H       1  UNL1        0.1552
     20 C         -12.3467  -13.2933   33.5905 C.ar    1  UNL1        0.0505
     21 C         -12.9304  -13.4373   34.8613 C.ar    1  UNL1        0.0147
     22 C         -13.5111  -14.6505   35.2358 C.ar    1  UNL1        0.0012
     23 C         -13.5188  -15.7298   34.3498 C.ar    1  UNL1        0.0039
     24 C         -12.9343  -15.6089   33.0777 C.ar    1  UNL1        0.0726
     25 C         -12.3767  -14.3751   32.6968 C.ar    1  UNL1        0.0185
     26 C         -12.9949  -16.7532   32.0972 C.3     1  UNL1        0.4186
     27 F         -13.7460  -17.7964   32.6108 F       1  UNL1       -0.1659
     28 F         -13.5744  -16.3488   30.9069 F       1  UNL1       -0.1659
     29 F         -11.7128  -17.2033   31.8436 F       1  UNL1       -0.1659
     30 C          -9.4827  -12.1328   30.7691 C.3     1  UNL1        0.1654
     31 O          -9.0274  -12.4432   29.4814 O.3     1  UNL1       -0.3772
     32 H          -8.7917  -13.4071   29.4961 H       1  UNL1        0.2109
     33 N          -6.4273   -8.0913   28.8162 N.pl3   1  UNL1       -0.2814
     34 H          -6.2253   -7.0764   28.6807 H       1  UNL1        0.1551
     35 C          -5.3269   -9.0085   28.7304 C.ar    1  UNL1        0.0889
     36 C          -4.9807   -9.5525   27.4821 C.ar    1  UNL1        0.1543
     37 F          -5.6700   -9.2006   26.3675 F       1  UNL1       -0.2028
     38 C          -3.9091  -10.4434   27.3734 C.ar    1  UNL1        0.0310
     39 C          -3.1839  -10.8090   28.5089 C.ar    1  UNL1        0.0033
     40 C          -3.5347  -10.2939   29.7587 C.ar    1  UNL1        0.0128
     41 C          -4.6062   -9.4007   29.8798 C.ar    1  UNL1        0.0733
     42 CL         -5.0645   -8.8559   31.4893 Cl      1  UNL1       -0.0809
@<TRIPOS>BOND
     1     1     2    1
     2     2     3   ar
     3     3    33    1
     4    33    35    1
     5    35    36   ar
     6    36    37    1
     7    36    38   ar
     8    38    39   ar
     9    39    40   ar
    10    40    41   ar
    11    41    42    1
    12     3     4   ar
    13     4     5   ar
    14     5     6   ar
    15     6    30    1
    16    30    31    1
    17     6     7   ar
    18     7    16    1
    19    16    17    2
    20    16    18   am
    21    18    20    1
    22    20    21   ar
    23    21    22   ar
    24    22    23   ar
    25    23    24   ar
    26    24    26    1
    27    26    27    1
    28    26    28    1
    29    26    29    1
    30    24    25   ar
    31     7     8   ar
    32     8     9   ar
    33     9    10   ar
    34     9    11    1
    35    11    12    1
    36    12    13    1
    37    12    14    1
    38    12    15    1
    39    10     2   ar
    40    41    35   ar
    41    10     5   ar
    42    25    20   ar
    43    15     8    1
    44    33    34    1
    45    31    32    1
    46    18    19    1
