@<TRIPOS>MOLECULE
*****
 28 31 0 0 0
SMALL
GASTEIGER

@<TRIPOS>ATOM
      1 N          48.8307   10.1244  -22.3654 N.ar    1  UNL1       -0.3246
      2 C          47.8833   10.9876  -22.8122 C.ar    1  UNL1        0.0600
      3 C          46.7591   11.4596  -22.1274 C.ar    1  UNL1        0.0177
      4 C          45.8961   12.3438  -22.7999 C.ar    1  UNL1        0.0082
      5 C          46.1622   12.7360  -24.1310 C.ar    1  UNL1        0.0347
      6 BR         44.9731   13.9335  -25.0242 Br      1  UNL1       -0.0490
      7 C          47.2956   12.2460  -24.8046 C.ar    1  UNL1        0.0082
      8 C          48.1354   11.3751  -24.1133 C.ar    1  UNL1        0.0177
      9 C          49.2832   10.7207  -24.4973 C.ar    1  UNL1        0.0177
     10 C          49.9730   10.7060  -25.7079 C.ar    1  UNL1        0.0082
     11 C          51.1119    9.8866  -25.8035 C.ar    1  UNL1        0.0347
     12 BR         52.0942    9.8156  -27.4391 Br      1  UNL1       -0.0490
     13 C          51.5283    9.1098  -24.6998 C.ar    1  UNL1        0.0082
     14 C          50.8139    9.1441  -23.4890 C.ar    1  UNL1        0.0177
     15 C          49.6838    9.9662  -23.4117 C.ar    1  UNL1        0.0600
     16 C          48.8591    9.4350  -21.0690 C.3     1  UNL1        0.1365
     17 O          49.9479    9.2809  -18.9475 O.3     1  UNL1       -0.3811
     18 C          49.9894    9.9692  -20.1715 C.3     1  UNL1        0.1486
     19 H          50.8659    9.3016  -18.5701 H       1  UNL1        0.2105
     20 C          49.8442   11.4805  -19.9238 C.3     1  UNL1        0.1001
     21 N          51.1042   12.1766  -20.2346 N.3     1  UNL1       -0.2965
     22 H          51.6559   11.5688  -20.8857 H       1  UNL1        0.1233
     23 C          50.9409   13.5016  -20.8739 C.3     1  UNL1        0.0540
     24 C          51.9135   13.7501  -22.0645 C.3     1  UNL1        0.0157
     25 C          51.2191   13.5922  -23.4238 C.3     1  UNL1        0.0014
     26 C          50.0253   14.5574  -23.5779 C.3     1  UNL1        0.0001
     27 C          49.3440   14.9237  -22.2431 C.3     1  UNL1        0.0014
     28 C          49.4575   13.7919  -21.2173 C.3     1  UNL1        0.0157
@<TRIPOS>BOND
     1    17    18    1
     2    18    20    1
     3    20    21    1
     4    21    23    1
     5    23    24    1
     6    24    25    1
     7    25    26    1
     8    26    27    1
     9    27    28    1
    10    18    16    1
    11    16     1    1
    12     1     2   ar
    13     2     3   ar
    14     3     4   ar
    15     4     5   ar
    16     5     6    1
    17     5     7   ar
    18     7     8   ar
    19     8     9   ar
    20     9    10   ar
    21    10    11   ar
    22    11    12    1
    23    11    13   ar
    24    13    14   ar
    25    14    15   ar
    26    28    23    1
    27    15     1   ar
    28     8     2   ar
    29    15     9   ar
    30    17    19    1
    31    21    22    1
@<TRIPOS>MOLECULE
*****
 28 31 0 0 0
SMALL
GASTEIGER

@<TRIPOS>ATOM
      1 N          48.6688   10.0282  -22.3515 N.ar    1  UNL1       -0.3246
      2 C          49.5551    9.8618  -23.3660 C.ar    1  UNL1        0.0600
      3 C          50.6917    9.0474  -23.3895 C.ar    1  UNL1        0.0177
      4 C          51.4812    9.0447  -24.5537 C.ar    1  UNL1        0.0082
      5 C          51.1317    9.8481  -25.6622 C.ar    1  UNL1        0.0347
      6 BR         52.2222    9.8308  -27.2294 Br      1  UNL1       -0.0490
      7 C          49.9872   10.6645  -25.6171 C.ar    1  UNL1        0.0082
      8 C          49.2211   10.6445  -24.4533 C.ar    1  UNL1        0.0177
      9 C          48.0839   11.3340  -24.1002 C.ar    1  UNL1        0.0177
     10 C          47.3348   12.2869  -24.7873 C.ar    1  UNL1        0.0082
     11 C          46.2281   12.8509  -24.1279 C.ar    1  UNL1        0.0347
     12 BR         45.1680   14.1693  -25.0128 Br      1  UNL1       -0.0490
     13 C          45.9014   12.4541  -22.8123 C.ar    1  UNL1        0.0082
     14 C          46.6743   11.4892  -22.1421 C.ar    1  UNL1        0.0177
     15 C          47.7711   10.9378  -22.8143 C.ar    1  UNL1        0.0600
     16 C          48.7354    9.4311  -21.0114 C.3     1  UNL1        0.1365
     17 O          50.0133    9.2664  -18.9990 O.3     1  UNL1       -0.3811
     18 C          49.9417    9.9625  -20.2171 C.3     1  UNL1        0.1486
     19 H          50.9619    9.2872  -18.7066 H       1  UNL1        0.2105
     20 C          49.8166   11.4719  -19.9473 C.3     1  UNL1        0.1001
     21 N          51.0759   12.1601  -20.2777 N.3     1  UNL1       -0.2965
     22 H          51.6116   11.5511  -20.9409 H       1  UNL1        0.1233
     23 C          50.9110   13.4889  -20.9086 C.3     1  UNL1        0.0540
     24 C          51.8844   13.7467  -22.0966 C.3     1  UNL1        0.0157
     25 C          51.1916   13.5963  -23.4576 C.3     1  UNL1        0.0014
     26 C          49.9963   14.5604  -23.6068 C.3     1  UNL1        0.0001
     27 C          49.3130   14.9170  -22.2703 C.3     1  UNL1        0.0014
     28 C          49.4274   13.7789  -21.2517 C.3     1  UNL1        0.0157
@<TRIPOS>BOND
     1    17    18    1
     2    18    20    1
     3    20    21    1
     4    21    23    1
     5    23    24    1
     6    24    25    1
     7    25    26    1
     8    26    27    1
     9    27    28    1
    10    18    16    1
    11    16     1    1
    12     1     2   ar
    13     2     3   ar
    14     3     4   ar
    15     4     5   ar
    16     5     6    1
    17     5     7   ar
    18     7     8   ar
    19     8     9   ar
    20     9    10   ar
    21    10    11   ar
    22    11    12    1
    23    11    13   ar
    24    13    14   ar
    25    14    15   ar
    26    28    23    1
    27    15     1   ar
    28     8     2   ar
    29    15     9   ar
    30    17    19    1
    31    21    22    1
@<TRIPOS>MOLECULE
*****
 28 31 0 0 0
SMALL
GASTEIGER

@<TRIPOS>ATOM
      1 N          46.3239   13.6248  -24.4019 N.ar    1  UNL1       -0.3246
      2 C          46.2335   13.2271  -25.6965 C.ar    1  UNL1        0.0600
      3 C          46.0041   11.9372  -26.1854 C.ar    1  UNL1        0.0177
      4 C          45.9664   11.7536  -27.5795 C.ar    1  UNL1        0.0082
      5 C          46.1601   12.8458  -28.4547 C.ar    1  UNL1        0.0347
      6 BR         46.1093   12.5702  -30.3434 Br      1  UNL1       -0.0490
      7 C          46.3949   14.1349  -27.9434 C.ar    1  UNL1        0.0082
      8 C          46.4228   14.2888  -26.5588 C.ar    1  UNL1        0.0177
      9 C          46.6484   15.3935  -25.7700 C.ar    1  UNL1        0.0177
     10 C          46.9354   16.7165  -26.0997 C.ar    1  UNL1        0.0082
     11 C          47.1624   17.6201  -25.0463 C.ar    1  UNL1        0.0347
     12 BR         47.5699   19.4446  -25.4335 Br      1  UNL1       -0.0490
     13 C          47.0990   17.1841  -23.7043 C.ar    1  UNL1        0.0082
     14 C          46.8064   15.8427  -23.3997 C.ar    1  UNL1        0.0177
     15 C          46.5821   14.9580  -24.4607 C.ar    1  UNL1        0.0600
     16 C          46.2609   12.7723  -23.2078 C.3     1  UNL1        0.1365
     17 O          47.2428   10.7289  -22.4527 O.3     1  UNL1       -0.3811
     18 C          47.5635   11.9758  -23.0148 C.3     1  UNL1        0.1486
     19 H          47.9605   10.0962  -22.7180 H       1  UNL1        0.2105
     20 C          48.5484   12.7220  -22.0984 C.3     1  UNL1        0.1001
     21 N          49.9346   12.3314  -22.4059 N.3     1  UNL1       -0.2965
     22 H          49.9021   11.4702  -23.0017 H       1  UNL1        0.1233
     23 C          50.7239   13.3560  -23.1256 C.3     1  UNL1        0.0540
     24 C          51.0155   12.9961  -24.6125 C.3     1  UNL1        0.0157
     25 C          50.1105   13.7653  -25.5841 C.3     1  UNL1        0.0014
     26 C          50.2620   15.2928  -25.4280 C.3     1  UNL1        0.0001
     27 C          50.6576   15.7373  -24.0046 C.3     1  UNL1        0.0014
     28 C          50.1255   14.7738  -22.9394 C.3     1  UNL1        0.0157
@<TRIPOS>BOND
     1    17    18    1
     2    18    20    1
     3    20    21    1
     4    21    23    1
     5    23    24    1
     6    24    25    1
     7    25    26    1
     8    26    27    1
     9    27    28    1
    10    18    16    1
    11    16     1    1
    12     1     2   ar
    13     2     3   ar
    14     3     4   ar
    15     4     5   ar
    16     5     6    1
    17     5     7   ar
    18     7     8   ar
    19     8     9   ar
    20     9    10   ar
    21    10    11   ar
    22    11    12    1
    23    11    13   ar
    24    13    14   ar
    25    14    15   ar
    26    28    23    1
    27    15     1   ar
    28     8     2   ar
    29    15     9   ar
    30    17    19    1
    31    21    22    1
@<TRIPOS>MOLECULE
*****
 28 31 0 0 0
SMALL
GASTEIGER

@<TRIPOS>ATOM
      1 N          46.2656   13.5880  -24.3936 N.ar    1  UNL1       -0.3246
      2 C          46.5844   14.9059  -24.4567 C.ar    1  UNL1        0.0600
      3 C          46.7287   15.8069  -23.3971 C.ar    1  UNL1        0.0177
      4 C          47.0498   17.1422  -23.7015 C.ar    1  UNL1        0.0082
      5 C          47.2159   17.5547  -25.0426 C.ar    1  UNL1        0.0347
      6 BR         47.6468   19.3739  -25.4305 Br      1  UNL1       -0.0490
      7 C          47.0613   16.6342  -26.0949 C.ar    1  UNL1        0.0082
      8 C          46.7474   15.3174  -25.7645 C.ar    1  UNL1        0.0177
      9 C          46.5132   14.2128  -26.5508 C.ar    1  UNL1        0.0177
     10 C          46.5009   14.0544  -27.9350 C.ar    1  UNL1        0.0082
     11 C          46.1772   12.7851  -28.4467 C.ar    1  UNL1        0.0347
     12 BR         46.1338   12.5070  -30.3351 Br      1  UNL1       -0.0490
     13 C          45.8759   11.7175  -27.5724 C.ar    1  UNL1        0.0082
     14 C          45.8965   11.9048  -26.1788 C.ar    1  UNL1        0.0177
     15 C          46.2220   13.1743  -25.6876 C.ar    1  UNL1        0.0600
     16 C          45.9368   12.8137  -23.1898 C.3     1  UNL1        0.1365
     17 O          46.5668   10.8039  -22.0612 O.3     1  UNL1       -0.3811
     18 C          47.0962   11.8878  -22.7814 C.3     1  UNL1        0.1486
     19 H          47.1963   10.0443  -22.1730 H       1  UNL1        0.2105
     20 C          48.1315   12.6298  -21.9187 C.3     1  UNL1        0.1001
     21 N          49.4813   12.0919  -22.1577 N.3     1  UNL1       -0.2965
     22 H          49.3866   11.2393  -22.7593 H       1  UNL1        0.1233
     23 C          50.4122   13.0253  -22.8308 C.3     1  UNL1        0.0540
     24 C          50.7953   12.5974  -24.2784 C.3     1  UNL1        0.0157
     25 C          50.0432   13.4089  -25.3417 C.3     1  UNL1        0.0014
     26 C          50.3103   14.9227  -25.2089 C.3     1  UNL1        0.0001
     27 C          50.6221   15.3761  -23.7675 C.3     1  UNL1        0.0014
     28 C          49.9230   14.4928  -22.7297 C.3     1  UNL1        0.0157
@<TRIPOS>BOND
     1    17    18    1
     2    18    20    1
     3    20    21    1
     4    21    23    1
     5    23    24    1
     6    24    25    1
     7    25    26    1
     8    26    27    1
     9    27    28    1
    10    18    16    1
    11    16     1    1
    12     1     2   ar
    13     2     3   ar
    14     3     4   ar
    15     4     5   ar
    16     5     6    1
    17     5     7   ar
    18     7     8   ar
    19     8     9   ar
    20     9    10   ar
    21    10    11   ar
    22    11    12    1
    23    11    13   ar
    24    13    14   ar
    25    14    15   ar
    26    28    23    1
    27    15     1   ar
    28     8     2   ar
    29    15     9   ar
    30    17    19    1
    31    21    22    1
@<TRIPOS>MOLECULE
*****
 28 31 0 0 0
SMALL
GASTEIGER

@<TRIPOS>ATOM
      1 N          45.8820   14.4948  -26.9265 N.ar    1  UNL1       -0.3246
      2 C          46.1554   13.9153  -25.7298 C.ar    1  UNL1        0.0600
      3 C          46.1457   14.5105  -24.4644 C.ar    1  UNL1        0.0177
      4 C          46.4816   13.7140  -23.3547 C.ar    1  UNL1        0.0082
      5 C          46.8221   12.3530  -23.5224 C.ar    1  UNL1        0.0347
      6 BR         47.2791   11.2937  -22.0009 Br      1  UNL1       -0.0490
      7 C          46.8312   11.7740  -24.8043 C.ar    1  UNL1        0.0082
      8 C          46.4904   12.5849  -25.8850 C.ar    1  UNL1        0.0177
      9 C          46.4313   12.3250  -27.2350 C.ar    1  UNL1        0.0177
     10 C          46.7056   11.1687  -27.9624 C.ar    1  UNL1        0.0082
     11 C          46.5927   11.2329  -29.3627 C.ar    1  UNL1        0.0347
     12 BR         46.9650    9.6846  -30.4158 Br      1  UNL1       -0.0490
     13 C          46.2138   12.4378  -29.9947 C.ar    1  UNL1        0.0082
     14 C          45.9418   13.5903  -29.2361 C.ar    1  UNL1        0.0177
     15 C          46.0580   13.5074  -27.8438 C.ar    1  UNL1        0.0600
     16 C          45.5691   15.9081  -27.1743 C.3     1  UNL1        0.1365
     17 O          46.7651   17.0029  -28.9296 O.3     1  UNL1       -0.3811
     18 C          46.8285   16.7050  -27.5582 C.3     1  UNL1        0.1486
     19 H          47.3025   17.8251  -29.0745 H       1  UNL1        0.2105
     20 C          48.1106   15.9099  -27.2570 C.3     1  UNL1        0.1001
     21 N          49.0143   16.6955  -26.3999 N.3     1  UNL1       -0.2965
     22 H          48.4383   17.1388  -25.6452 H       1  UNL1        0.1233
     23 C          50.0925   15.9146  -25.7530 C.3     1  UNL1        0.0540
     24 C          50.3809   16.3379  -24.2823 C.3     1  UNL1        0.0157
     25 C          49.7786   15.3571  -23.2674 C.3     1  UNL1        0.0014
     26 C          50.3149   13.9235  -23.4615 C.3     1  UNL1        0.0001
     27 C          50.7146   13.5995  -24.9159 C.3     1  UNL1        0.0014
     28 C          49.8762   14.3893  -25.9255 C.3     1  UNL1        0.0157
@<TRIPOS>BOND
     1    17    18    1
     2    18    20    1
     3    20    21    1
     4    21    23    1
     5    23    24    1
     6    24    25    1
     7    25    26    1
     8    26    27    1
     9    27    28    1
    10    18    16    1
    11    16     1    1
    12     1     2   ar
    13     2     3   ar
    14     3     4   ar
    15     4     5   ar
    16     5     6    1
    17     5     7   ar
    18     7     8   ar
    19     8     9   ar
    20     9    10   ar
    21    10    11   ar
    22    11    12    1
    23    11    13   ar
    24    13    14   ar
    25    14    15   ar
    26    28    23    1
    27    15     1   ar
    28     8     2   ar
    29    15     9   ar
    30    17    19    1
    31    21    22    1
@<TRIPOS>MOLECULE
*****
 28 31 0 0 0
SMALL
GASTEIGER

@<TRIPOS>ATOM
      1 N          46.1124   14.6275  -26.5948 N.ar    1  UNL1       -0.3246
      2 C          46.2278   13.6902  -27.5698 C.ar    1  UNL1        0.0600
      3 C          46.0253   13.8502  -28.9442 C.ar    1  UNL1        0.0177
      4 C          46.1862   12.7253  -29.7733 C.ar    1  UNL1        0.0082
      5 C          46.5385   11.4716  -29.2250 C.ar    1  UNL1        0.0347
      6 BR         46.7463    9.9583  -30.3707 Br      1  UNL1       -0.0490
      7 C          46.7328   11.3299  -27.8391 C.ar    1  UNL1        0.0082
      8 C          46.5710   12.4613  -27.0420 C.ar    1  UNL1        0.0177
      9 C          46.6660   12.6368  -25.6806 C.ar    1  UNL1        0.0177
     10 C          46.9427   11.7365  -24.6538 C.ar    1  UNL1        0.0082
     11 C          46.9244   12.2217  -23.3340 C.ar    1  UNL1        0.0347
     12 BR         47.2857   11.0352  -21.8826 Br      1  UNL1       -0.0490
     13 C          46.6323   13.5792  -23.0754 C.ar    1  UNL1        0.0082
     14 C          46.3574   14.4668  -24.1310 C.ar    1  UNL1        0.0177
     15 C          46.3813   13.9666  -25.4380 C.ar    1  UNL1        0.0600
     16 C          45.6851   16.0233  -26.7554 C.3     1  UNL1        0.1365
     17 O          47.2605   16.7085  -28.4163 O.3     1  UNL1       -0.3811
     18 C          46.8745   16.9422  -27.0859 C.3     1  UNL1        0.1486
     19 H          47.6941   17.5392  -28.7443 H       1  UNL1        0.2105
     20 C          48.0641   16.6825  -26.1456 C.3     1  UNL1        0.1001
     21 N          49.0589   15.8166  -26.8009 N.3     1  UNL1       -0.2965
     22 H          49.4723   16.3500  -27.6024 H       1  UNL1        0.1233
     23 C          50.1677   15.3720  -25.9270 C.3     1  UNL1        0.0540
     24 C          50.3406   16.2343  -24.6417 C.3     1  UNL1        0.0157
     25 C          49.7768   15.5383  -23.3957 C.3     1  UNL1        0.0014
     26 C          50.4483   14.1723  -23.1437 C.3     1  UNL1        0.0001
     27 C          50.9501   13.4785  -24.4271 C.3     1  UNL1        0.0014
     28 C          50.0978   13.8495  -25.6444 C.3     1  UNL1        0.0157
@<TRIPOS>BOND
     1    17    18    1
     2    18    20    1
     3    20    21    1
     4    21    23    1
     5    23    24    1
     6    24    25    1
     7    25    26    1
     8    26    27    1
     9    27    28    1
    10    18    16    1
    11    16     1    1
    12     1     2   ar
    13     2     3   ar
    14     3     4   ar
    15     4     5   ar
    16     5     6    1
    17     5     7   ar
    18     7     8   ar
    19     8     9   ar
    20     9    10   ar
    21    10    11   ar
    22    11    12    1
    23    11    13   ar
    24    13    14   ar
    25    14    15   ar
    26    28    23    1
    27    15     1   ar
    28     8     2   ar
    29    15     9   ar
    30    17    19    1
    31    21    22    1
@<TRIPOS>MOLECULE
*****
 28 31 0 0 0
SMALL
GASTEIGER

@<TRIPOS>ATOM
      1 N          49.7199   12.6929  -23.0837 N.ar    1  UNL1       -0.3246
      2 C          49.8465   13.9224  -23.6447 C.ar    1  UNL1        0.0600
      3 C          49.4960   15.1589  -23.0936 C.ar    1  UNL1        0.0177
      4 C          49.7028   16.3133  -23.8702 C.ar    1  UNL1        0.0082
      5 C          50.2457   16.2178  -25.1711 C.ar    1  UNL1        0.0347
      6 BR         50.5124   17.7990  -26.2076 Br      1  UNL1       -0.0490
      7 C          50.5870   14.9641  -25.7099 C.ar    1  UNL1        0.0082
      8 C          50.3755   13.8378  -24.9173 C.ar    1  UNL1        0.0177
      9 C          50.5804   12.4997  -25.1639 C.ar    1  UNL1        0.0177
     10 C          51.0545   11.8340  -26.2924 C.ar    1  UNL1        0.0082
     11 C          51.1083   10.4293  -26.2506 C.ar    1  UNL1        0.0347
     12 BR         51.7392    9.4591  -27.7690 Br      1  UNL1       -0.0490
     13 C          50.6907    9.7321  -25.0954 C.ar    1  UNL1        0.0082
     14 C          50.2170   10.4292  -23.9696 C.ar    1  UNL1        0.0177
     15 C          50.1717   11.8268  -24.0288 C.ar    1  UNL1        0.0600
     16 C          49.1240   12.3720  -21.7804 C.3     1  UNL1        0.1365
     17 O          47.1398   12.5236  -20.4575 O.3     1  UNL1       -0.3811
     18 C          47.6046   12.6169  -21.7799 C.3     1  UNL1        0.1486
     19 H          46.3152   13.0734  -20.3989 H       1  UNL1        0.2105
     20 C          46.8698   11.5938  -22.6632 C.3     1  UNL1        0.1001
     21 N          45.5919   12.1490  -23.1399 N.3     1  UNL1       -0.2965
     22 H          45.4432   13.0703  -22.6637 H       1  UNL1        0.1233
     23 C          45.5177   12.3723  -24.6012 C.3     1  UNL1        0.0540
     24 C          45.0904   13.8167  -24.9963 C.3     1  UNL1        0.0157
     25 C          46.2810   14.6690  -25.4556 C.3     1  UNL1        0.0014
     26 C          47.0076   14.0427  -26.6640 C.3     1  UNL1        0.0001
     27 C          46.9130   12.5038  -26.7186 C.3     1  UNL1        0.0014
     28 C          46.8044   11.8907  -25.3192 C.3     1  UNL1        0.0157
@<TRIPOS>BOND
     1    17    18    1
     2    18    20    1
     3    20    21    1
     4    21    23    1
     5    23    24    1
     6    24    25    1
     7    25    26    1
     8    26    27    1
     9    27    28    1
    10    18    16    1
    11    16     1    1
    12     1     2   ar
    13     2     3   ar
    14     3     4   ar
    15     4     5   ar
    16     5     6    1
    17     5     7   ar
    18     7     8   ar
    19     8     9   ar
    20     9    10   ar
    21    10    11   ar
    22    11    12    1
    23    11    13   ar
    24    13    14   ar
    25    14    15   ar
    26    28    23    1
    27    15     1   ar
    28     8     2   ar
    29    15     9   ar
    30    17    19    1
    31    21    22    1
@<TRIPOS>MOLECULE
*****
 28 31 0 0 0
SMALL
GASTEIGER

@<TRIPOS>ATOM
      1 N          47.3474   13.3213  -23.9244 N.ar    1  UNL1       -0.3246
      2 C          48.2208   14.3430  -24.1135 C.ar    1  UNL1        0.0600
      3 C          48.8822   15.0995  -23.1409 C.ar    1  UNL1        0.0177
      4 C          49.7372   16.1303  -23.5711 C.ar    1  UNL1        0.0082
      5 C          49.9143   16.3906  -24.9485 C.ar    1  UNL1        0.0347
      6 BR         51.0767   17.7986  -25.5073 Br      1  UNL1       -0.0490
      7 C          49.2360   15.6218  -25.9114 C.ar    1  UNL1        0.0082
      8 C          48.3987   14.6046  -25.4575 C.ar    1  UNL1        0.0177
      9 C          47.5973   13.7148  -26.1352 C.ar    1  UNL1        0.0177
     10 C          47.3523   13.5496  -27.4968 C.ar    1  UNL1        0.0082
     11 C          46.4293   12.5608  -27.8815 C.ar    1  UNL1        0.0347
     12 BR         46.0433   12.2926  -29.7320 Br      1  UNL1       -0.0490
     13 C          45.7802   11.7709  -26.9069 C.ar    1  UNL1        0.0082
     14 C          46.0468   11.9582  -25.5390 C.ar    1  UNL1        0.0177
     15 C          46.9691   12.9459  -25.1747 C.ar    1  UNL1        0.0600
     16 C          46.8460   12.8117  -22.6415 C.3     1  UNL1        0.1365
     17 O          46.2433   10.7981  -21.5047 O.3     1  UNL1       -0.3811
     18 C          47.1014   11.3009  -22.4969 C.3     1  UNL1        0.1486
     19 H          46.0992    9.8362  -21.7040 H       1  UNL1        0.2105
     20 C          48.5635   11.0116  -22.1159 C.3     1  UNL1        0.1001
     21 N          49.1422   10.0053  -23.0219 N.3     1  UNL1       -0.2965
     22 H          48.4477    9.8208  -23.7844 H       1  UNL1        0.1233
     23 C          50.4211   10.4001  -23.6538 C.3     1  UNL1        0.0540
     24 C          50.5318    9.9990  -25.1545 C.3     1  UNL1        0.0157
     25 C          50.3045   11.1921  -26.0925 C.3     1  UNL1        0.0014
     26 C          51.3109   12.3320  -25.8313 C.3     1  UNL1        0.0001
     27 C          51.8096   12.4007  -24.3730 C.3     1  UNL1        0.0014
     28 C          50.7548   11.8902  -23.3867 C.3     1  UNL1        0.0157
@<TRIPOS>BOND
     1    17    18    1
     2    18    20    1
     3    20    21    1
     4    21    23    1
     5    23    24    1
     6    24    25    1
     7    25    26    1
     8    26    27    1
     9    27    28    1
    10    18    16    1
    11    16     1    1
    12     1     2   ar
    13     2     3   ar
    14     3     4   ar
    15     4     5   ar
    16     5     6    1
    17     5     7   ar
    18     7     8   ar
    19     8     9   ar
    20     9    10   ar
    21    10    11   ar
    22    11    12    1
    23    11    13   ar
    24    13    14   ar
    25    14    15   ar
    26    28    23    1
    27    15     1   ar
    28     8     2   ar
    29    15     9   ar
    30    17    19    1
    31    21    22    1
@<TRIPOS>MOLECULE
*****
 28 31 0 0 0
SMALL
GASTEIGER

@<TRIPOS>ATOM
      1 N          46.3197   13.5094  -24.3794 N.ar    1  UNL1       -0.3246
      2 C          46.6653   14.8199  -24.4542 C.ar    1  UNL1        0.0600
      3 C          46.8262   15.7277  -23.4027 C.ar    1  UNL1        0.0177
      4 C          47.1749   17.0533  -23.7189 C.ar    1  UNL1        0.0082
      5 C          47.3516   17.4497  -25.0635 C.ar    1  UNL1        0.0347
      6 BR         47.8200   19.2561  -25.4676 Br      1  UNL1       -0.0490
      7 C          47.1801   16.5228  -26.1075 C.ar    1  UNL1        0.0082
      8 C          46.8389   15.2158  -25.7655 C.ar    1  UNL1        0.0177
      9 C          46.5835   14.1088  -26.5418 C.ar    1  UNL1        0.0177
     10 C          46.5704   13.9378  -27.9246 C.ar    1  UNL1        0.0082
     11 C          46.2217   12.6706  -28.4250 C.ar    1  UNL1        0.0347
     12 BR         46.1759   12.3758  -30.3108 Br      1  UNL1       -0.0490
     13 C          45.8973   11.6176  -27.5414 C.ar    1  UNL1        0.0082
     14 C          45.9194   11.8175  -26.1496 C.ar    1  UNL1        0.0177
     15 C          46.2699   13.0846  -25.6696 C.ar    1  UNL1        0.0600
     16 C          45.9733   12.7532  -23.1691 C.3     1  UNL1        0.1365
     17 O          46.5233   10.7712  -21.9529 O.3     1  UNL1       -0.3811
     18 C          47.0772   11.7472  -22.7980 C.3     1  UNL1        0.1486
     19 H          47.0667    9.9477  -22.0631 H       1  UNL1        0.2105
     20 C          48.2550   12.4399  -22.0911 C.3     1  UNL1        0.1001
     21 N          49.5340   12.0120  -22.6823 N.3     1  UNL1       -0.2965
     22 H          49.8348   11.1330  -22.1980 H       1  UNL1        0.1233
     23 C          49.4864   11.7397  -24.1364 C.3     1  UNL1        0.0540
     24 C          50.0018   12.9179  -25.0147 C.3     1  UNL1        0.0157
     25 C          51.4196   12.6686  -25.5461 C.3     1  UNL1        0.0014
     26 C          51.5021   11.3786  -26.3884 C.3     1  UNL1        0.0001
     27 C          50.4800   10.2990  -25.9761 C.3     1  UNL1        0.0014
     28 C          50.1399   10.3779  -24.4848 C.3     1  UNL1        0.0157
@<TRIPOS>BOND
     1    17    18    1
     2    18    20    1
     3    20    21    1
     4    21    23    1
     5    23    24    1
     6    24    25    1
     7    25    26    1
     8    26    27    1
     9    27    28    1
    10    18    16    1
    11    16     1    1
    12     1     2   ar
    13     2     3   ar
    14     3     4   ar
    15     4     5   ar
    16     5     6    1
    17     5     7   ar
    18     7     8   ar
    19     8     9   ar
    20     9    10   ar
    21    10    11   ar
    22    11    12    1
    23    11    13   ar
    24    13    14   ar
    25    14    15   ar
    26    28    23    1
    27    15     1   ar
    28     8     2   ar
    29    15     9   ar
    30    17    19    1
    31    21    22    1
