@<TRIPOS>MOLECULE
*****
 35 39 0 0 0
SMALL
GASTEIGER

@<TRIPOS>ATOM
      1 C         -28.9049   51.1840   -8.2030 C.ar    1  UNL1        0.1317
      2 C         -30.0969   50.6816   -8.7626 C.ar    1  UNL1        0.0286
      3 C         -30.1237   50.2141  -10.0902 C.ar    1  UNL1        0.0777
      4 C         -28.9491   50.2339  -10.8540 C.ar    1  UNL1        0.2967
      5 N         -27.8189   50.7137  -10.2778 N.ar    1  UNL1       -0.1224
      6 C         -26.5786   50.8133  -10.7759 C.ar    1  UNL1        0.3137
      7 C         -25.7844   51.3585   -9.7748 C.ar    1  UNL1        0.1320
      8 N         -26.5284   51.5883   -8.6660 N.ar    1  UNL1       -0.2941
      9 C         -27.7643   51.1815   -9.0196 C.ar    1  UNL1        0.3123
     10 H         -26.2354   51.9640   -7.8044 H       1  UNL1        0.1718
     11 N         -29.0123   49.9131   -4.8561 N.3     1  UNL1       -0.2647
     12 C         -30.0303   50.9776   -4.7454 C.3     1  UNL1        0.0941
     13 C         -30.1051   51.7641   -6.0676 C.3     1  UNL1        0.1084
     14 N         -28.8576   51.5998   -6.8244 N.pl3   1  UNL1       -0.2988
     15 C         -27.6052   51.5954   -6.0622 C.3     1  UNL1        0.1084
     16 C         -27.6579   50.5085   -4.9670 C.3     1  UNL1        0.0941
     17 C         -29.0915   48.9683   -3.7252 C.3     1  UNL1        0.1200
     18 N         -26.4036   46.4796   -3.6023 N.ar    1  UNL1       -0.3128
     19 C         -27.2792   45.9679   -4.4904 C.ar    1  UNL1        0.1780
     20 N         -28.3459   46.7692   -4.6899 N.ar    1  UNL1       -0.2273
     21 C         -28.1076   47.8470   -3.9123 C.ar    1  UNL1        0.0885
     22 C         -26.9107   47.6761   -3.2404 C.ar    1  UNL1        0.0537
     23 C         -26.3376   48.5888   -2.1956 C.3     1  UNL1        0.0514
     24 C         -25.4171   44.5311   -2.4927 C.3     1  UNL1        0.0265
     25 C         -25.1454   45.8592   -3.1869 C.3     1  UNL1        0.1073
     26 C         -24.3453   51.6835   -9.8724 C.ar    1  UNL1        0.0218
     27 C         -23.7846   52.1198  -11.0800 C.ar    1  UNL1        0.0013
     28 C         -22.4251   52.4299  -11.1594 C.ar    1  UNL1       -0.0042
     29 C         -21.5871   52.3467  -10.0253 C.ar    1  UNL1       -0.0228
     30 C         -22.1609   51.8788   -8.8203 C.ar    1  UNL1       -0.0042
     31 C         -23.5174   51.5500   -8.7494 C.ar    1  UNL1        0.0013
     32 C         -20.0913   52.7049  -10.1508 C.3     1  UNL1        0.0189
     33 C         -19.3910   51.9790  -11.3256 C.3     1  UNL1        0.0044
     34 C         -19.9570   54.2245  -10.3736 C.3     1  UNL1        0.0044
     35 C         -19.3401   52.3074   -8.8580 C.3     1  UNL1        0.0044
@<TRIPOS>BOND
     1    24    25    1
     2    25    18    1
     3    18    19   ar
     4    19    20   ar
     5    20    21   ar
     6    21    17    1
     7    17    11    1
     8    11    12    1
     9    12    13    1
    10    13    14    1
    11    14     1    1
    12     1     2   ar
    13     2     3   ar
    14     3     4   ar
    15     4     5   ar
    16     5     6   ar
    17     6     7   ar
    18     7    26    1
    19    26    27   ar
    20    27    28   ar
    21    28    29   ar
    22    29    32    1
    23    32    33    1
    24    32    34    1
    25    32    35    1
    26    29    30   ar
    27    30    31   ar
    28     7     8   ar
    29     8     9   ar
    30    14    15    1
    31    15    16    1
    32    21    22   ar
    33    22    23    1
    34    22    18   ar
    35    16    11    1
    36     9     1   ar
    37     9     5   ar
    38    31    26   ar
    39     8    10    1
@<TRIPOS>MOLECULE
*****
 35 39 0 0 0
SMALL
GASTEIGER

@<TRIPOS>ATOM
      1 C         -30.3127   50.4076   -8.5966 C.ar    1  UNL1        0.1317
      2 C         -31.5270   50.1789   -9.2747 C.ar    1  UNL1        0.0286
      3 C         -31.5808   50.2189  -10.6808 C.ar    1  UNL1        0.0777
      4 C         -30.4115   50.4717  -11.4105 C.ar    1  UNL1        0.2967
      5 N         -29.2598   50.6754  -10.7238 N.ar    1  UNL1       -0.1224
      6 C         -28.0200   50.9053  -11.1782 C.ar    1  UNL1        0.3137
      7 C         -27.1986   51.0291  -10.0645 C.ar    1  UNL1        0.1320
      8 N         -27.9257   50.8713   -8.9321 N.ar    1  UNL1       -0.2941
      9 C         -29.1787   50.6596   -9.3829 C.ar    1  UNL1        0.3123
     10 H         -27.6126   50.9037   -7.9993 H       1  UNL1        0.1718
     11 N         -27.9900   50.0000   -5.9008 N.3     1  UNL1       -0.2647
     12 C         -28.9592   48.9423   -5.5494 C.3     1  UNL1        0.0941
     13 C         -30.1451   48.9775   -6.5316 C.3     1  UNL1        0.1084
     14 N         -30.2401   50.3004   -7.1617 N.pl3   1  UNL1       -0.2988
     15 C         -29.9744   51.4680   -6.3156 C.3     1  UNL1        0.1084
     16 C         -28.5826   51.3388   -5.6602 C.3     1  UNL1        0.0941
     17 C         -26.7200   49.8364   -5.1671 C.3     1  UNL1        0.1200
     18 N         -26.3626   46.4293   -3.8641 N.ar    1  UNL1       -0.3128
     19 C         -26.7471   47.1485   -2.7907 C.ar    1  UNL1        0.1780
     20 N         -26.9546   48.4489   -3.0831 N.ar    1  UNL1       -0.2273
     21 C         -26.7187   48.5377   -4.4097 C.ar    1  UNL1        0.0885
     22 C         -26.3553   47.2956   -4.8981 C.ar    1  UNL1        0.0537
     23 C         -25.9035   46.9855   -6.2955 C.3     1  UNL1        0.0514
     24 C         -25.4048   44.5816   -2.5721 C.3     1  UNL1        0.0265
     25 C         -26.0773   44.9944   -3.8747 C.3     1  UNL1        0.1073
     26 C         -25.7489   51.3193  -10.0684 C.ar    1  UNL1        0.0218
     27 C         -25.0529   51.5016  -11.2707 C.ar    1  UNL1        0.0013
     28 C         -23.6845   51.7814  -11.2625 C.ar    1  UNL1       -0.0042
     29 C         -22.9726   51.9220  -10.0505 C.ar    1  UNL1       -0.0228
     30 C         -23.6822   51.7083   -8.8459 C.ar    1  UNL1       -0.0042
     31 C         -25.0472   51.4084   -8.8584 C.ar    1  UNL1        0.0013
     32 C         -21.4627   52.2387  -10.0821 C.3     1  UNL1        0.0189
     33 C         -20.6407   51.1930  -10.8746 C.3     1  UNL1        0.0044
     34 C         -21.2536   53.6169  -10.7407 C.3     1  UNL1        0.0044
     35 C         -20.8961   52.2667   -8.6427 C.3     1  UNL1        0.0044
@<TRIPOS>BOND
     1    24    25    1
     2    25    18    1
     3    18    19   ar
     4    19    20   ar
     5    20    21   ar
     6    21    17    1
     7    17    11    1
     8    11    12    1
     9    12    13    1
    10    13    14    1
    11    14     1    1
    12     1     2   ar
    13     2     3   ar
    14     3     4   ar
    15     4     5   ar
    16     5     6   ar
    17     6     7   ar
    18     7    26    1
    19    26    27   ar
    20    27    28   ar
    21    28    29   ar
    22    29    32    1
    23    32    33    1
    24    32    34    1
    25    32    35    1
    26    29    30   ar
    27    30    31   ar
    28     7     8   ar
    29     8     9   ar
    30    14    15    1
    31    15    16    1
    32    21    22   ar
    33    22    23    1
    34    22    18   ar
    35    16    11    1
    36     9     1   ar
    37     9     5   ar
    38    31    26   ar
    39     8    10    1
@<TRIPOS>MOLECULE
*****
 35 39 0 0 0
SMALL
GASTEIGER

@<TRIPOS>ATOM
      1 C         -28.1231   48.9181   -6.5075 C.ar    1  UNL1        0.1317
      2 C         -29.3934   49.2586   -6.0008 C.ar    1  UNL1        0.0286
      3 C         -29.8668   50.5817   -6.0843 C.ar    1  UNL1        0.0777
      4 C         -29.0727   51.5631   -6.6924 C.ar    1  UNL1        0.2967
      5 N         -27.8611   51.1954   -7.1787 N.ar    1  UNL1       -0.1224
      6 C         -26.9372   51.9250   -7.8194 C.ar    1  UNL1        0.3137
      7 C         -25.8833   51.0701   -8.1172 C.ar    1  UNL1        0.1320
      8 N         -26.1578   49.8215   -7.6681 N.ar    1  UNL1       -0.2941
      9 C         -27.3744   49.9457   -7.1003 C.ar    1  UNL1        0.3123
     10 H         -25.5999   49.0135   -7.7396 H       1  UNL1        0.1718
     11 N         -27.8682   46.0507   -4.3764 N.3     1  UNL1       -0.2647
     12 C         -26.4786   46.1089   -4.8740 C.3     1  UNL1        0.0941
     13 C         -26.3476   47.2336   -5.9181 C.3     1  UNL1        0.1084
     14 N         -27.6640   47.5526   -6.4849 N.pl3   1  UNL1       -0.2988
     15 C         -28.5715   46.4315   -6.7482 C.3     1  UNL1        0.1084
     16 C         -28.7822   45.6092   -5.4586 C.3     1  UNL1        0.0941
     17 C         -27.9826   45.1804   -3.1900 C.3     1  UNL1        0.1200
     18 N         -30.0414   47.2436   -0.9677 N.ar    1  UNL1       -0.3128
     19 C         -30.6513   46.0415   -0.9520 C.ar    1  UNL1        0.1780
     20 N         -30.0138   45.1248   -1.7088 N.ar    1  UNL1       -0.2273
     21 C         -28.9369   45.7788   -2.1942 C.ar    1  UNL1        0.0885
     22 C         -28.9465   47.0852   -1.7396 C.ar    1  UNL1        0.0537
     23 C         -27.9906   48.1728   -2.1350 C.3     1  UNL1        0.0514
     24 C         -29.9735   48.3856    1.1983 C.3     1  UNL1        0.0265
     25 C         -30.4780   48.4340   -0.2378 C.3     1  UNL1        0.1073
     26 C         -24.6202   51.4333   -8.7944 C.ar    1  UNL1        0.0218
     27 C         -24.6150   51.8694  -10.1258 C.ar    1  UNL1        0.0013
     28 C         -23.4165   52.2157  -10.7538 C.ar    1  UNL1       -0.0042
     29 C         -22.1863   52.1702  -10.0610 C.ar    1  UNL1       -0.0228
     30 C         -22.2036   51.7021   -8.7265 C.ar    1  UNL1       -0.0042
     31 C         -23.4022   51.3370   -8.1075 C.ar    1  UNL1        0.0013
     32 C         -20.8839   52.5677  -10.7868 C.3     1  UNL1        0.0189
     33 C         -20.0999   51.3502  -11.3350 C.3     1  UNL1        0.0044
     34 C         -21.2323   53.4906  -11.9717 C.3     1  UNL1        0.0044
     35 C         -19.9411   53.3152   -9.8141 C.3     1  UNL1        0.0044
@<TRIPOS>BOND
     1    24    25    1
     2    25    18    1
     3    18    19   ar
     4    19    20   ar
     5    20    21   ar
     6    21    17    1
     7    17    11    1
     8    11    12    1
     9    12    13    1
    10    13    14    1
    11    14     1    1
    12     1     2   ar
    13     2     3   ar
    14     3     4   ar
    15     4     5   ar
    16     5     6   ar
    17     6     7   ar
    18     7    26    1
    19    26    27   ar
    20    27    28   ar
    21    28    29   ar
    22    29    32    1
    23    32    33    1
    24    32    34    1
    25    32    35    1
    26    29    30   ar
    27    30    31   ar
    28     7     8   ar
    29     8     9   ar
    30    14    15    1
    31    15    16    1
    32    21    22   ar
    33    22    23    1
    34    22    18   ar
    35    16    11    1
    36     9     1   ar
    37     9     5   ar
    38    31    26   ar
    39     8    10    1
@<TRIPOS>MOLECULE
*****
 35 39 0 0 0
SMALL
GASTEIGER

@<TRIPOS>ATOM
      1 C         -28.8242   48.7210   -8.6877 C.ar    1  UNL1        0.1317
      2 C         -30.1918   48.8998   -8.9779 C.ar    1  UNL1        0.0286
      3 C         -30.6244   50.0023   -9.7389 C.ar    1  UNL1        0.0777
      4 C         -29.6828   50.9191  -10.2250 C.ar    1  UNL1        0.2967
      5 N         -28.3748   50.7078   -9.9351 N.ar    1  UNL1       -0.1224
      6 C         -27.2921   51.4097  -10.2978 C.ar    1  UNL1        0.3137
      7 C         -26.1905   50.7634   -9.7509 C.ar    1  UNL1        0.1320
      8 N         -26.5906   49.6683   -9.0607 N.ar    1  UNL1       -0.2941
      9 C         -27.9319   49.6751   -9.1987 C.ar    1  UNL1        0.3123
     10 H         -26.0330   49.0198   -8.5730 H       1  UNL1        0.1718
     11 N         -28.0308   47.5611   -5.3932 N.3     1  UNL1       -0.2647
     12 C         -26.8128   47.1242   -6.1053 C.3     1  UNL1        0.0941
     13 C         -26.9533   47.4277   -7.6088 C.3     1  UNL1        0.1084
     14 N         -28.3711   47.5583   -7.9675 N.pl3   1  UNL1       -0.2988
     15 C         -29.3129   46.6319   -7.3316 C.3     1  UNL1        0.1084
     16 C         -29.1880   46.7243   -5.7956 C.3     1  UNL1        0.0941
     17 C         -27.8389   47.5423   -3.9300 C.3     1  UNL1        0.1200
     18 N         -25.8749   50.5719   -3.2994 N.ar    1  UNL1       -0.3128
     19 C         -25.4286   49.6977   -2.3753 C.ar    1  UNL1        0.1780
     20 N         -26.0294   48.4933   -2.4658 N.ar    1  UNL1       -0.2273
     21 C         -26.8678   48.6132   -3.5175 C.ar    1  UNL1        0.0885
     22 C         -26.7761   49.8917   -4.0375 C.ar    1  UNL1        0.0537
     23 C         -27.6188   50.4681   -5.1378 C.3     1  UNL1        0.0514
     24 C         -24.5046   52.3455   -2.3108 C.3     1  UNL1        0.0265
     25 C         -25.4099   51.9486   -3.4695 C.3     1  UNL1        0.1073
     26 C         -24.7786   51.1895   -9.8563 C.ar    1  UNL1        0.0218
     27 C         -24.2093   51.4990  -11.0985 C.ar    1  UNL1        0.0013
     28 C         -22.8762   51.9063  -11.1858 C.ar    1  UNL1       -0.0042
     29 C         -22.0769   52.0505  -10.0301 C.ar    1  UNL1       -0.0228
     30 C         -22.6566   51.7083   -8.7863 C.ar    1  UNL1       -0.0042
     31 C         -23.9850   51.2816   -8.7047 C.ar    1  UNL1        0.0013
     32 C         -20.6101   52.5101  -10.1664 C.3     1  UNL1        0.0189
     33 C         -19.8364   52.4727   -8.8257 C.3     1  UNL1        0.0044
     34 C         -19.8867   51.5868  -11.1670 C.3     1  UNL1        0.0044
     35 C         -20.5563   53.9678  -10.6821 C.3     1  UNL1        0.0044
@<TRIPOS>BOND
     1    24    25    1
     2    25    18    1
     3    18    19   ar
     4    19    20   ar
     5    20    21   ar
     6    21    17    1
     7    17    11    1
     8    11    12    1
     9    12    13    1
    10    13    14    1
    11    14     1    1
    12     1     2   ar
    13     2     3   ar
    14     3     4   ar
    15     4     5   ar
    16     5     6   ar
    17     6     7   ar
    18     7    26    1
    19    26    27   ar
    20    27    28   ar
    21    28    29   ar
    22    29    32    1
    23    32    33    1
    24    32    34    1
    25    32    35    1
    26    29    30   ar
    27    30    31   ar
    28     7     8   ar
    29     8     9   ar
    30    14    15    1
    31    15    16    1
    32    21    22   ar
    33    22    23    1
    34    22    18   ar
    35    16    11    1
    36     9     1   ar
    37     9     5   ar
    38    31    26   ar
    39     8    10    1
@<TRIPOS>MOLECULE
*****
 35 39 0 0 0
SMALL
GASTEIGER

@<TRIPOS>ATOM
      1 C         -29.3460   44.9926   -5.4999 C.ar    1  UNL1        0.1317
      2 C         -30.4318   44.1189   -5.7100 C.ar    1  UNL1        0.0286
      3 C         -31.1245   44.1186   -6.9355 C.ar    1  UNL1        0.0777
      4 C         -30.7176   44.9840   -7.9598 C.ar    1  UNL1        0.2967
      5 N         -29.6615   45.8019   -7.7250 N.ar    1  UNL1       -0.1224
      6 C         -29.0672   46.6887   -8.5354 C.ar    1  UNL1        0.3137
      7 C         -28.0224   47.2556   -7.8163 C.ar    1  UNL1        0.1320
      8 N         -27.9696   46.7185   -6.5735 N.ar    1  UNL1       -0.2941
      9 C         -28.9902   45.8374   -6.5618 C.ar    1  UNL1        0.3123
     10 H         -27.3351   46.9234   -5.8491 H       1  UNL1        0.1718
     11 N         -27.4254   47.0440   -3.2792 N.3     1  UNL1       -0.2647
     12 C         -26.4797   45.9230   -3.4547 C.3     1  UNL1        0.0941
     13 C         -27.1302   44.8250   -4.3170 C.3     1  UNL1        0.1084
     14 N         -28.5927   44.9479   -4.2726 N.pl3   1  UNL1       -0.2988
     15 C         -29.1982   45.3017   -2.9851 C.3     1  UNL1        0.1084
     16 C         -28.5823   46.6146   -2.4555 C.3     1  UNL1        0.0941
     17 C         -26.7618   48.2262   -2.6963 C.3     1  UNL1        0.1200
     18 N         -27.7042   50.9574   -4.9515 N.ar    1  UNL1       -0.3128
     19 C         -26.4327   51.2446   -4.6076 C.ar    1  UNL1        0.1780
     20 N         -25.8959   50.3220   -3.7828 N.ar    1  UNL1       -0.2273
     21 C         -26.8695   49.3988   -3.6309 C.ar    1  UNL1        0.0885
     22 C         -27.9865   49.7832   -4.3505 C.ar    1  UNL1        0.0537
     23 C         -29.3202   49.0946   -4.3599 C.3     1  UNL1        0.0514
     24 C         -27.8198   52.0344   -7.1486 C.3     1  UNL1        0.0265
     25 C         -28.5499   51.7524   -5.8421 C.3     1  UNL1        0.1073
     26 C         -27.1008   48.3113   -8.2876 C.ar    1  UNL1        0.0218
     27 C         -27.3076   48.9540   -9.5153 C.ar    1  UNL1        0.0013
     28 C         -26.4341   49.9543   -9.9480 C.ar    1  UNL1       -0.0042
     29 C         -25.3435   50.3694   -9.1521 C.ar    1  UNL1       -0.0228
     30 C         -25.1314   49.6930   -7.9282 C.ar    1  UNL1       -0.0042
     31 C         -25.9957   48.6785   -7.5075 C.ar    1  UNL1        0.0013
     32 C         -24.4045   51.4831   -9.6611 C.3     1  UNL1        0.0189
     33 C         -25.0376   52.8938   -9.5795 C.3     1  UNL1        0.0044
     34 C         -23.1183   51.4815   -8.8110 C.3     1  UNL1        0.0044
     35 C         -24.0398   51.2334  -11.1438 C.3     1  UNL1        0.0044
@<TRIPOS>BOND
     1    24    25    1
     2    25    18    1
     3    18    19   ar
     4    19    20   ar
     5    20    21   ar
     6    21    17    1
     7    17    11    1
     8    11    12    1
     9    12    13    1
    10    13    14    1
    11    14     1    1
    12     1     2   ar
    13     2     3   ar
    14     3     4   ar
    15     4     5   ar
    16     5     6   ar
    17     6     7   ar
    18     7    26    1
    19    26    27   ar
    20    27    28   ar
    21    28    29   ar
    22    29    32    1
    23    32    33    1
    24    32    34    1
    25    32    35    1
    26    29    30   ar
    27    30    31   ar
    28     7     8   ar
    29     8     9   ar
    30    14    15    1
    31    15    16    1
    32    21    22   ar
    33    22    23    1
    34    22    18   ar
    35    16    11    1
    36     9     1   ar
    37     9     5   ar
    38    31    26   ar
    39     8    10    1
@<TRIPOS>MOLECULE
*****
 35 39 0 0 0
SMALL
GASTEIGER

@<TRIPOS>ATOM
      1 C         -29.6389   49.8752   -9.3632 C.ar    1  UNL1        0.1317
      2 C         -30.4458   49.0799   -8.5249 C.ar    1  UNL1        0.0286
      3 C         -29.8786   48.3640   -7.4537 C.ar    1  UNL1        0.0777
      4 C         -28.5017   48.4584   -7.2111 C.ar    1  UNL1        0.2967
      5 N         -27.7594   49.2426   -8.0319 N.ar    1  UNL1       -0.1224
      6 C         -26.4484   49.5194   -7.9983 C.ar    1  UNL1        0.3137
      7 C         -26.1920   50.3864   -9.0532 C.ar    1  UNL1        0.1320
      8 N         -27.3373   50.6463   -9.7289 N.ar    1  UNL1       -0.2941
      9 C         -28.2678   49.9251   -9.0714 C.ar    1  UNL1        0.3123
     10 H         -27.4611   51.2255  -10.5153 H       1  UNL1        0.1718
     11 N         -30.1592   49.9241  -12.9066 N.3     1  UNL1       -0.2647
     12 C         -29.6026   51.2800  -12.7232 C.3     1  UNL1        0.0941
     13 C         -29.3791   51.5511  -11.2236 C.3     1  UNL1        0.1084
     14 N         -30.2256   50.6622  -10.4178 N.pl3   1  UNL1       -0.2988
     15 C         -31.5840   50.4042  -10.9055 C.3     1  UNL1        0.1084
     16 C         -31.5314   49.8531  -12.3467 C.3     1  UNL1        0.0941
     17 C         -30.1374   49.5170  -14.3250 C.3     1  UNL1        0.1200
     18 N         -30.7546   46.0332  -15.2819 N.ar    1  UNL1       -0.3128
     19 C         -30.1563   45.9378  -14.0776 C.ar    1  UNL1        0.1780
     20 N         -29.8672   47.1423  -13.5436 N.ar    1  UNL1       -0.2273
     21 C         -30.3369   48.0317  -14.4445 C.ar    1  UNL1        0.0885
     22 C         -30.8873   47.3547  -15.5178 C.ar    1  UNL1        0.0537
     23 C         -31.4173   47.9686  -16.7809 C.3     1  UNL1        0.0514
     24 C         -30.1983   44.6361  -17.2156 C.3     1  UNL1        0.0265
     25 C         -31.2039   44.9103  -16.1052 C.3     1  UNL1        0.1073
     26 C         -24.8763   50.9423   -9.4353 C.ar    1  UNL1        0.0218
     27 C         -23.8802   51.1633   -8.4751 C.ar    1  UNL1        0.0013
     28 C         -22.6387   51.6833   -8.8481 C.ar    1  UNL1       -0.0042
     29 C         -22.3395   51.9680  -10.1989 C.ar    1  UNL1       -0.0228
     30 C         -23.3637   51.7658  -11.1530 C.ar    1  UNL1       -0.0042
     31 C         -24.6118   51.2644  -10.7735 C.ar    1  UNL1        0.0013
     32 C         -20.9537   52.5347  -10.5729 C.3     1  UNL1        0.0189
     33 C         -20.0285   51.4849  -11.2357 C.3     1  UNL1        0.0044
     34 C         -21.1405   53.7047  -11.5594 C.3     1  UNL1        0.0044
     35 C         -20.2286   53.0438   -9.3045 C.3     1  UNL1        0.0044
@<TRIPOS>BOND
     1    24    25    1
     2    25    18    1
     3    18    19   ar
     4    19    20   ar
     5    20    21   ar
     6    21    17    1
     7    17    11    1
     8    11    12    1
     9    12    13    1
    10    13    14    1
    11    14     1    1
    12     1     2   ar
    13     2     3   ar
    14     3     4   ar
    15     4     5   ar
    16     5     6   ar
    17     6     7   ar
    18     7    26    1
    19    26    27   ar
    20    27    28   ar
    21    28    29   ar
    22    29    32    1
    23    32    33    1
    24    32    34    1
    25    32    35    1
    26    29    30   ar
    27    30    31   ar
    28     7     8   ar
    29     8     9   ar
    30    14    15    1
    31    15    16    1
    32    21    22   ar
    33    22    23    1
    34    22    18   ar
    35    16    11    1
    36     9     1   ar
    37     9     5   ar
    38    31    26   ar
    39     8    10    1
@<TRIPOS>MOLECULE
*****
 35 39 0 0 0
SMALL
GASTEIGER

@<TRIPOS>ATOM
      1 C         -20.0818   53.3711   -9.4554 C.ar    1  UNL1        0.1317
      2 C         -19.6419   52.0673   -9.1505 C.ar    1  UNL1        0.0286
      3 C         -18.7076   51.8490   -8.1203 C.ar    1  UNL1        0.0777
      4 C         -18.2255   52.9381   -7.3820 C.ar    1  UNL1        0.2967
      5 N         -18.6805   54.1765   -7.6967 N.ar    1  UNL1       -0.1224
      6 C         -18.4016   55.3607   -7.1344 C.ar    1  UNL1        0.3137
      7 C         -19.1399   56.3170   -7.8204 C.ar    1  UNL1        0.1320
      8 N         -19.8726   55.7260   -8.7950 N.ar    1  UNL1       -0.2941
      9 C         -19.5590   54.4194   -8.6837 C.ar    1  UNL1        0.3123
     10 H         -20.4891   56.1509   -9.4342 H       1  UNL1        0.1718
     11 N         -23.2909   52.2190  -10.5523 N.3     1  UNL1       -0.2647
     12 C         -22.5614   52.1665  -11.8355 C.3     1  UNL1        0.0941
     13 C         -21.1382   52.7244  -11.6470 C.3     1  UNL1        0.1084
     14 N         -21.0880   53.5911  -10.4628 N.pl3   1  UNL1       -0.2988
     15 C         -22.2394   54.4663  -10.2218 C.3     1  UNL1        0.1084
     16 C         -23.5347   53.6286  -10.1585 C.3     1  UNL1        0.0941
     17 C         -24.5515   51.4542  -10.6142 C.3     1  UNL1        0.1200
     18 N         -26.4605   50.9300   -7.5296 N.ar    1  UNL1       -0.3128
     19 C         -25.2254   50.4827   -7.2268 C.ar    1  UNL1        0.1780
     20 N         -24.3579   50.6170   -8.2511 N.ar    1  UNL1       -0.2273
     21 C         -25.0796   51.2058   -9.2287 C.ar    1  UNL1        0.0885
     22 C         -26.3764   51.4036   -8.7899 C.ar    1  UNL1        0.0537
     23 C         -27.5226   51.9265   -9.6059 C.3     1  UNL1        0.0514
     24 C         -27.2448   51.5961   -5.3066 C.3     1  UNL1        0.0265
     25 C         -27.6131   50.9355   -6.6285 C.3     1  UNL1        0.1073
     26 C         -19.1337   57.7752   -7.5763 C.ar    1  UNL1        0.0218
     27 C         -19.1318   58.6850   -8.6417 C.ar    1  UNL1        0.0013
     28 C         -19.1321   60.0606   -8.3994 C.ar    1  UNL1       -0.0042
     29 C         -19.1685   60.5729   -7.0836 C.ar    1  UNL1       -0.0228
     30 C         -19.1424   59.6431   -6.0181 C.ar    1  UNL1       -0.0042
     31 C         -19.1217   58.2674   -6.2640 C.ar    1  UNL1        0.0013
     32 C         -19.1753   62.0992   -6.8563 C.3     1  UNL1        0.0189
     33 C         -19.5186   62.4932   -5.3988 C.3     1  UNL1        0.0044
     34 C         -17.7799   62.6620   -7.1924 C.3     1  UNL1        0.0044
     35 C         -20.2314   62.7670   -7.7688 C.3     1  UNL1        0.0044
@<TRIPOS>BOND
     1    24    25    1
     2    25    18    1
     3    18    19   ar
     4    19    20   ar
     5    20    21   ar
     6    21    17    1
     7    17    11    1
     8    11    12    1
     9    12    13    1
    10    13    14    1
    11    14     1    1
    12     1     2   ar
    13     2     3   ar
    14     3     4   ar
    15     4     5   ar
    16     5     6   ar
    17     6     7   ar
    18     7    26    1
    19    26    27   ar
    20    27    28   ar
    21    28    29   ar
    22    29    32    1
    23    32    33    1
    24    32    34    1
    25    32    35    1
    26    29    30   ar
    27    30    31   ar
    28     7     8   ar
    29     8     9   ar
    30    14    15    1
    31    15    16    1
    32    21    22   ar
    33    22    23    1
    34    22    18   ar
    35    16    11    1
    36     9     1   ar
    37     9     5   ar
    38    31    26   ar
    39     8    10    1
@<TRIPOS>MOLECULE
*****
 35 39 0 0 0
SMALL
GASTEIGER

@<TRIPOS>ATOM
      1 C         -29.1674   51.3542  -10.1145 C.ar    1  UNL1        0.1317
      2 C         -30.2317   51.0266   -9.2506 C.ar    1  UNL1        0.0286
      3 C         -29.9931   50.7587   -7.8894 C.ar    1  UNL1        0.0777
      4 C         -28.6868   50.8359   -7.3882 C.ar    1  UNL1        0.2967
      5 N         -27.6901   51.1653   -8.2471 N.ar    1  UNL1       -0.1224
      6 C         -26.3800   51.3303   -8.0172 C.ar    1  UNL1        0.3137
      7 C         -25.7984   51.6790   -9.2297 C.ar    1  UNL1        0.1320
      8 N         -26.7437   51.7338  -10.1989 N.ar    1  UNL1       -0.2941
      9 C         -27.8828   51.4109   -9.5537 C.ar    1  UNL1        0.3123
     10 H         -26.6263   51.9569  -11.1506 H       1  UNL1        0.1718
     11 N         -30.7962   50.1686  -13.0759 N.3     1  UNL1       -0.2647
     12 C         -29.4654   50.4781  -13.6370 C.3     1  UNL1        0.0941
     13 C         -28.5795   51.1165  -12.5507 C.3     1  UNL1        0.1084
     14 N         -29.4163   51.6951  -11.4920 N.pl3   1  UNL1       -0.2988
     15 C         -30.6472   52.3761  -11.9055 C.3     1  UNL1        0.1084
     16 C         -31.5195   51.4224  -12.7500 C.3     1  UNL1        0.0941
     17 C         -31.5840   49.3171  -13.9882 C.3     1  UNL1        0.1200
     18 N         -30.1509   48.7673  -17.3165 N.ar    1  UNL1       -0.3128
     19 C         -30.6142   50.0323  -17.3676 C.ar    1  UNL1        0.1780
     20 N         -31.1677   50.4309  -16.2038 N.ar    1  UNL1       -0.2273
     21 C         -31.0132   49.3739  -15.3779 C.ar    1  UNL1        0.0885
     22 C         -30.3851   48.3454  -16.0568 C.ar    1  UNL1        0.0537
     23 C         -30.1271   46.9614  -15.5361 C.3     1  UNL1        0.0514
     24 C         -28.0534   48.5494  -18.5629 C.3     1  UNL1        0.0265
     25 C         -29.4856   48.0553  -18.4078 C.3     1  UNL1        0.1073
     26 C         -24.3626   51.9318   -9.4764 C.ar    1  UNL1        0.0218
     27 C         -23.9364   52.6063  -10.6281 C.ar    1  UNL1        0.0013
     28 C         -22.5779   52.8450  -10.8481 C.ar    1  UNL1       -0.0042
     29 C         -21.6022   52.4472   -9.9072 C.ar    1  UNL1       -0.0228
     30 C         -22.0447   51.7433   -8.7631 C.ar    1  UNL1       -0.0042
     31 C         -23.4032   51.4883   -8.5559 C.ar    1  UNL1        0.0013
     32 C         -20.1114   52.7352  -10.1822 C.3     1  UNL1        0.0189
     33 C         -19.2027   52.4418   -8.9634 C.3     1  UNL1        0.0044
     34 C         -19.6400   51.8567  -11.3582 C.3     1  UNL1        0.0044
     35 C         -19.9172   54.2265  -10.5458 C.3     1  UNL1        0.0044
@<TRIPOS>BOND
     1    24    25    1
     2    25    18    1
     3    18    19   ar
     4    19    20   ar
     5    20    21   ar
     6    21    17    1
     7    17    11    1
     8    11    12    1
     9    12    13    1
    10    13    14    1
    11    14     1    1
    12     1     2   ar
    13     2     3   ar
    14     3     4   ar
    15     4     5   ar
    16     5     6   ar
    17     6     7   ar
    18     7    26    1
    19    26    27   ar
    20    27    28   ar
    21    28    29   ar
    22    29    32    1
    23    32    33    1
    24    32    34    1
    25    32    35    1
    26    29    30   ar
    27    30    31   ar
    28     7     8   ar
    29     8     9   ar
    30    14    15    1
    31    15    16    1
    32    21    22   ar
    33    22    23    1
    34    22    18   ar
    35    16    11    1
    36     9     1   ar
    37     9     5   ar
    38    31    26   ar
    39     8    10    1
@<TRIPOS>MOLECULE
*****
 35 39 0 0 0
SMALL
GASTEIGER

@<TRIPOS>ATOM
      1 C         -28.4505   48.8833   -8.9722 C.ar    1  UNL1        0.1317
      2 C         -29.8172   49.1323   -9.2101 C.ar    1  UNL1        0.0286
      3 C         -30.2313   50.3311   -9.8209 C.ar    1  UNL1        0.0777
      4 C         -29.2723   51.2759  -10.2100 C.ar    1  UNL1        0.2967
      5 N         -27.9661   50.9962   -9.9753 N.ar    1  UNL1       -0.1224
      6 C         -26.8702   51.7089  -10.2712 C.ar    1  UNL1        0.3137
      7 C         -25.7783   50.9715   -9.8307 C.ar    1  UNL1        0.1320
      8 N         -26.1975   49.8105   -9.2721 N.ar    1  UNL1       -0.2941
      9 C         -27.5402   49.8694   -9.3805 C.ar    1  UNL1        0.3123
     10 H         -25.6503   49.0925   -8.8792 H       1  UNL1        0.1718
     11 N         -29.4974   46.2523   -6.7789 N.3     1  UNL1       -0.2647
     12 C         -28.1654   46.5323   -6.2053 C.3     1  UNL1        0.0941
     13 C         -27.4452   47.5934   -7.0584 C.3     1  UNL1        0.1084
     14 N         -28.0184   47.6292   -8.4098 N.pl3   1  UNL1       -0.2988
     15 C         -28.3839   46.3465   -9.0186 C.3     1  UNL1        0.1084
     16 C         -29.3582   45.5831   -8.0958 C.3     1  UNL1        0.0941
     17 C         -30.3272   45.4530   -5.8567 C.3     1  UNL1        0.1200
     18 N         -30.6842   46.9164   -2.5153 N.ar    1  UNL1       -0.3128
     19 C         -31.1360   47.8807   -3.3419 C.ar    1  UNL1        0.1780
     20 N         -31.1034   47.5114   -4.6389 N.ar    1  UNL1       -0.2273
     21 C         -30.6386   46.2439   -4.6166 C.ar    1  UNL1        0.0885
     22 C         -30.3800   45.8699   -3.3103 C.ar    1  UNL1        0.0537
     23 C         -29.7496   44.5841   -2.8602 C.3     1  UNL1        0.0514
     24 C         -29.9110   48.2944   -0.6434 C.3     1  UNL1        0.0265
     25 C         -30.6093   47.0057   -1.0569 C.3     1  UNL1        0.1073
     26 C         -24.3568   51.3702   -9.9120 C.ar    1  UNL1        0.0218
     27 C         -23.7507   51.6321  -11.1477 C.ar    1  UNL1        0.0013
     28 C         -22.4087   52.0139  -11.2124 C.ar    1  UNL1       -0.0042
     29 C         -21.6367   52.1797  -10.0412 C.ar    1  UNL1       -0.0228
     30 C         -22.2540   51.8853   -8.8032 C.ar    1  UNL1       -0.0042
     31 C         -23.5913   51.4839   -8.7434 C.ar    1  UNL1        0.0013
     32 C         -20.1590   52.6100  -10.1529 C.3     1  UNL1        0.0189
     33 C         -19.3428   52.3129   -8.8711 C.3     1  UNL1        0.0044
     34 C         -19.5048   51.8551  -11.3273 C.3     1  UNL1        0.0044
     35 C         -20.0676   54.1333  -10.4076 C.3     1  UNL1        0.0044
@<TRIPOS>BOND
     1    24    25    1
     2    25    18    1
     3    18    19   ar
     4    19    20   ar
     5    20    21   ar
     6    21    17    1
     7    17    11    1
     8    11    12    1
     9    12    13    1
    10    13    14    1
    11    14     1    1
    12     1     2   ar
    13     2     3   ar
    14     3     4   ar
    15     4     5   ar
    16     5     6   ar
    17     6     7   ar
    18     7    26    1
    19    26    27   ar
    20    27    28   ar
    21    28    29   ar
    22    29    32    1
    23    32    33    1
    24    32    34    1
    25    32    35    1
    26    29    30   ar
    27    30    31   ar
    28     7     8   ar
    29     8     9   ar
    30    14    15    1
    31    15    16    1
    32    21    22   ar
    33    22    23    1
    34    22    18   ar
    35    16    11    1
    36     9     1   ar
    37     9     5   ar
    38    31    26   ar
    39     8    10    1
