@<TRIPOS>MOLECULE
*****
 51 56 0 0 0
SMALL
GASTEIGER

@<TRIPOS>ATOM
      1 C          60.3692   84.9540   13.2481 C.2     1  UNL1        0.2483
      2 O          59.4887   84.9756   14.1515 O.2     1  UNL1       -0.2701
      3 N          61.4380   83.9965   13.3151 N.am    1  UNL1       -0.2945
      4 H          61.9963   83.8278   12.4504 H       1  UNL1        0.1501
      5 C          60.0252   87.6433    9.9076 C.ar    1  UNL1        0.0502
      6 C          59.1725   86.5351   10.0278 C.ar    1  UNL1        0.0148
      7 C          59.2852   85.6714   11.1202 C.ar    1  UNL1        0.0080
      8 C          60.2604   85.8912   12.1074 C.ar    1  UNL1        0.0808
      9 C          61.1066   87.0117   11.9939 C.ar    1  UNL1        0.1457
     10 F          62.0157   87.3028   12.9580 F       1  UNL1       -0.2040
     11 C          60.9894   87.8745   10.8997 C.ar    1  UNL1        0.0443
     12 N          60.1791   90.0072    6.4388 N.pl3   1  UNL1       -0.2897
     13 C          61.0888   90.3032    7.5536 C.3     1  UNL1        0.1136
     14 C          60.4380   89.9037    8.8763 C.3     1  UNL1        0.1123
     15 N          59.9167   88.5351    8.7821 N.pl3   1  UNL1       -0.3040
     16 C          59.0156   88.2205    7.6671 C.3     1  UNL1        0.1123
     17 C          59.6504   88.6415    6.3393 C.3     1  UNL1        0.1136
     18 C          61.2230   91.9826    3.4217 C.ar    1  UNL1       -0.0140
     19 C          61.2807   91.1288    4.5352 C.ar    1  UNL1        0.0300
     20 C          60.1306   90.8738    5.2902 C.ar    1  UNL1        0.1315
     21 N          58.9632   91.4780    4.9482 N.ar    1  UNL1       -0.2292
     22 C          58.8642   92.3155    3.8852 C.ar    1  UNL1        0.1038
     23 C          59.9889   92.6051    3.0890 C.ar    1  UNL1        0.0867
     24 C          59.8424   93.5235    1.8896 C.3     1  UNL1        0.4197
     25 F          59.9134   94.8576    2.2531 F       1  UNL1       -0.1658
     26 F          60.8515   93.2823    0.9760 F       1  UNL1       -0.1658
     27 F          58.6160   93.3063    1.2883 F       1  UNL1       -0.1658
     28 C          63.5799   91.2169    3.0481 C.3     1  UNL1        0.0050
     29 C          62.5073   92.2311    2.6588 C.3     1  UNL1        0.0265
     30 C          61.5847   83.0744   14.4464 C.3     1  UNL1        0.1535
     31 C          61.0651   81.7018   14.0917 C.2     1  UNL1        0.2443
     32 O          61.8450   80.7149   14.1787 O.2     1  UNL1       -0.2730
     33 N          59.7032   81.5158   13.6659 N.am    1  UNL1       -0.2825
     34 H          59.0169   82.2815   13.8497 H       1  UNL1        0.1549
     35 C          59.2025   80.3105   13.0628 C.ar    1  UNL1        0.0535
     36 C          58.9030   80.3003   11.6936 C.ar    1  UNL1        0.0353
     37 C          58.4447   79.1250   11.0942 C.ar    1  UNL1        0.1002
     38 N          58.3067   77.9921   11.8321 N.ar    1  UNL1       -0.2422
     39 C          58.6083   77.9649   13.1571 C.ar    1  UNL1        0.1002
     40 C          59.0683   79.1190   13.7962 C.ar    1  UNL1        0.0353
     41 C          63.0409   83.0266   14.9581 C.3     1  UNL1        0.0569
     42 C          63.7150   84.3720   15.0152 C.ar    1  UNL1       -0.0017
     43 C          64.9486   84.7036   14.4607 C.ar    1  UNL1        0.0681
     44 N          65.2298   86.0084   14.6762 N.ar    1  UNL1       -0.3523
     45 C          64.1890   86.5032   15.3679 C.ar    1  UNL1        0.0563
     46 C          64.0234   87.8106   15.8232 C.ar    1  UNL1        0.0170
     47 C          62.8504   88.1146   16.5377 C.ar    1  UNL1        0.0015
     48 C          61.8821   87.1158   16.7818 C.ar    1  UNL1        0.0001
     49 C          62.0770   85.8044   16.3124 C.ar    1  UNL1        0.0012
     50 C          63.2459   85.5343   15.5990 C.ar    1  UNL1        0.0131
     51 H          66.0837   86.5229   14.3660 H       1  UNL1        0.1660
@<TRIPOS>BOND
     1    28    29    1
     2    29    18    1
     3    18    19   ar
     4    19    20   ar
     5    20    12    1
     6    12    13    1
     7    13    14    1
     8    14    15    1
     9    15     5    1
    10     5     6   ar
    11     6     7   ar
    12     7     8   ar
    13     8     1    1
    14     1     2    2
    15     1     3   am
    16     3    30    1
    17    30    41    1
    18    41    42    1
    19    42    43   ar
    20    43    44   ar
    21    44    45   ar
    22    45    46   ar
    23    46    47   ar
    24    47    48   ar
    25    48    49   ar
    26    49    50   ar
    27    30    31    1
    28    31    32    2
    29    31    33   am
    30    33    35    1
    31    35    36   ar
    32    36    37   ar
    33    37    38   ar
    34    38    39   ar
    35    39    40   ar
    36     8     9   ar
    37     9    10    1
    38     9    11   ar
    39    15    16    1
    40    16    17    1
    41    20    21   ar
    42    21    22   ar
    43    22    23   ar
    44    23    24    1
    45    24    25    1
    46    24    26    1
    47    24    27    1
    48    23    18   ar
    49    17    12    1
    50    11     5   ar
    51    50    42   ar
    52    40    35   ar
    53    50    45   ar
    54     3     4    1
    55    44    51    1
    56    33    34    1
@<TRIPOS>MOLECULE
*****
 51 56 0 0 0
SMALL
GASTEIGER

@<TRIPOS>ATOM
      1 C          60.0329   87.7267   11.6542 C.2     1  UNL1        0.2483
      2 O          59.3514   88.2372   12.5852 O.2     1  UNL1       -0.2701
      3 N          60.8114   86.5455   11.9038 N.am    1  UNL1       -0.2945
      4 H          61.1547   86.0049   11.0805 H       1  UNL1        0.1501
      5 C          59.8911   89.4385    7.7098 C.ar    1  UNL1        0.0502
      6 C          59.6158   88.0773    7.9119 C.ar    1  UNL1        0.0148
      7 C          59.6557   87.5311    9.1973 C.ar    1  UNL1        0.0080
      8 C          59.9836   88.3318   10.3041 C.ar    1  UNL1        0.0808
      9 C          60.2458   89.7012   10.1027 C.ar    1  UNL1        0.1457
     10 F          60.4982   90.5268   11.1492 F       1  UNL1       -0.2040
     11 C          60.2033   90.2441    8.8147 C.ar    1  UNL1        0.0443
     12 N          59.9143   91.5815    4.0970 N.pl3   1  UNL1       -0.2897
     13 C          58.7751   91.7258    5.0132 C.3     1  UNL1        0.1136
     14 C          58.5779   90.4349    5.8055 C.3     1  UNL1        0.1123
     15 N          59.8555   90.0068    6.3870 N.pl3   1  UNL1       -0.3040
     16 C          61.0062   89.8691    5.4863 C.3     1  UNL1        0.1123
     17 C          61.1950   91.1502    4.6700 C.3     1  UNL1        0.1136
     18 C          61.0249   93.3430    0.9732 C.ar    1  UNL1       -0.0140
     19 C          61.0617   92.7230    2.2327 C.ar    1  UNL1        0.0300
     20 C          59.8907   92.2114    2.8027 C.ar    1  UNL1        0.1315
     21 N          58.7149   92.3406    2.1352 N.ar    1  UNL1       -0.2292
     22 C          58.6326   92.9389    0.9201 C.ar    1  UNL1        0.1038
     23 C          59.7798   93.4684    0.2987 C.ar    1  UNL1        0.0867
     24 C          59.6624   94.1072   -1.0731 C.3     1  UNL1        0.4197
     25 F          59.5765   93.1566   -2.0762 F       1  UNL1       -0.1658
     26 F          58.5267   94.8925   -1.1398 F       1  UNL1       -0.1658
     27 F          60.7771   94.8890   -1.3158 F       1  UNL1       -0.1658
     28 C          63.0979   94.6506    1.4965 C.3     1  UNL1        0.0050
     29 C          62.3240   93.8917    0.4214 C.3     1  UNL1        0.0265
     30 C          60.8992   85.9407   13.2373 C.3     1  UNL1        0.1535
     31 C          60.3674   84.5277   13.2224 C.2     1  UNL1        0.2443
     32 O          60.8445   83.6895   14.0346 O.2     1  UNL1       -0.2730
     33 N          59.3306   84.1391   12.3032 N.am    1  UNL1       -0.2825
     34 H          58.7767   84.8901   11.8338 H       1  UNL1        0.1549
     35 C          58.9552   82.7769   12.0373 C.ar    1  UNL1        0.0535
     36 C          58.7403   82.3693   10.7136 C.ar    1  UNL1        0.0353
     37 C          58.4046   81.0404   10.4446 C.ar    1  UNL1        0.1002
     38 N          58.3042   80.1433   11.4606 N.ar    1  UNL1       -0.2422
     39 C          58.5265   80.5034   12.7523 C.ar    1  UNL1        0.1002
     40 C          58.8630   81.8228   13.0652 C.ar    1  UNL1        0.0353
     41 C          62.3344   86.0121   13.8026 C.3     1  UNL1        0.0569
     42 C          63.2708   84.9809   13.2301 C.ar    1  UNL1       -0.0017
     43 C          64.2495   84.2753   13.9252 C.ar    1  UNL1        0.0681
     44 N          64.8822   83.4079   13.1035 N.ar    1  UNL1       -0.3523
     45 C          64.3176   83.5635   11.8937 C.ar    1  UNL1        0.0563
     46 C          64.6385   82.8842   10.7191 C.ar    1  UNL1        0.0170
     47 C          63.9197   83.2088    9.5543 C.ar    1  UNL1        0.0015
     48 C          62.9106   84.1965    9.5881 C.ar    1  UNL1        0.0001
     49 C          62.6099   84.8674   10.7871 C.ar    1  UNL1        0.0012
     50 C          63.3332   84.5181   11.9287 C.ar    1  UNL1        0.0131
     51 H          65.6527   82.7520   13.3612 H       1  UNL1        0.1660
@<TRIPOS>BOND
     1    28    29    1
     2    29    18    1
     3    18    19   ar
     4    19    20   ar
     5    20    12    1
     6    12    13    1
     7    13    14    1
     8    14    15    1
     9    15     5    1
    10     5     6   ar
    11     6     7   ar
    12     7     8   ar
    13     8     1    1
    14     1     2    2
    15     1     3   am
    16     3    30    1
    17    30    41    1
    18    41    42    1
    19    42    43   ar
    20    43    44   ar
    21    44    45   ar
    22    45    46   ar
    23    46    47   ar
    24    47    48   ar
    25    48    49   ar
    26    49    50   ar
    27    30    31    1
    28    31    32    2
    29    31    33   am
    30    33    35    1
    31    35    36   ar
    32    36    37   ar
    33    37    38   ar
    34    38    39   ar
    35    39    40   ar
    36     8     9   ar
    37     9    10    1
    38     9    11   ar
    39    15    16    1
    40    16    17    1
    41    20    21   ar
    42    21    22   ar
    43    22    23   ar
    44    23    24    1
    45    24    25    1
    46    24    26    1
    47    24    27    1
    48    23    18   ar
    49    17    12    1
    50    11     5   ar
    51    50    42   ar
    52    40    35   ar
    53    50    45   ar
    54     3     4    1
    55    44    51    1
    56    33    34    1
@<TRIPOS>MOLECULE
*****
 51 56 0 0 0
SMALL
GASTEIGER

@<TRIPOS>ATOM
      1 C          58.8290   83.8742   12.5799 C.2     1  UNL1        0.2483
      2 O          57.6811   84.1535   12.1372 O.2     1  UNL1       -0.2701
      3 N          59.2436   82.5020   12.6750 N.am    1  UNL1       -0.2945
      4 H          60.2610   82.3075   12.7972 H       1  UNL1        0.1501
      5 C          61.5409   87.0355   13.6572 C.ar    1  UNL1        0.0502
      6 C          61.9859   85.9288   12.9178 C.ar    1  UNL1        0.0148
      7 C          61.0968   84.9105   12.5647 C.ar    1  UNL1        0.0080
      8 C          59.7484   84.9723   12.9543 C.ar    1  UNL1        0.0808
      9 C          59.2989   86.0902   13.6841 C.ar    1  UNL1        0.1457
     10 F          57.9919   86.2264   14.0216 F       1  UNL1       -0.2040
     11 C          60.1918   87.1079   14.0342 C.ar    1  UNL1        0.0443
     12 N          64.5906   89.8095   14.4627 N.pl3   1  UNL1       -0.2897
     13 C          64.5537   88.5429   15.2060 C.3     1  UNL1        0.1136
     14 C          63.1110   88.0598   15.3393 C.3     1  UNL1        0.1123
     15 N          62.4531   88.0865   14.0277 N.pl3   1  UNL1       -0.3040
     16 C          62.4912   89.3415   13.2677 C.3     1  UNL1        0.1123
     17 C          63.9319   89.8458   13.1516 C.3     1  UNL1        0.1136
     18 C          67.6905   91.9273   14.4423 C.ar    1  UNL1       -0.0140
     19 C          66.7552   90.9387   14.0958 C.ar    1  UNL1        0.0300
     20 C          65.5533   90.8244   14.8030 C.ar    1  UNL1        0.1315
     21 N          65.3106   91.6651   15.8419 N.ar    1  UNL1       -0.2292
     22 C          66.1894   92.6292   16.2153 C.ar    1  UNL1        0.1038
     23 C          67.4126   92.7910   15.5369 C.ar    1  UNL1        0.0867
     24 C          68.3638   93.8959   15.9587 C.3     1  UNL1        0.4197
     25 F          68.4502   94.8920   15.0010 F       1  UNL1       -0.1658
     26 F          67.9286   94.4792   17.1340 F       1  UNL1       -0.1658
     27 F          69.6288   93.3697   16.1473 F       1  UNL1       -0.1658
     28 C          68.7056   91.8684   12.1517 C.3     1  UNL1        0.0050
     29 C          68.9791   91.9851   13.6492 C.3     1  UNL1        0.0265
     30 C          58.3443   81.3938   12.3359 C.3     1  UNL1        0.1535
     31 C          58.0958   81.3397   10.8476 C.2     1  UNL1        0.2443
     32 O          57.4034   80.3952   10.3804 O.2     1  UNL1       -0.2730
     33 N          58.6327   82.3482    9.9727 N.am    1  UNL1       -0.2825
     34 H          58.9696   83.2426   10.3944 H       1  UNL1        0.1549
     35 C          58.6735   82.2366    8.5398 C.ar    1  UNL1        0.0535
     36 C          59.7190   82.8458    7.8326 C.ar    1  UNL1        0.0353
     37 C          59.7821   82.7168    6.4433 C.ar    1  UNL1        0.1002
     38 N          58.8435   81.9890    5.7827 N.ar    1  UNL1       -0.2422
     39 C          57.8292   81.3696    6.4424 C.ar    1  UNL1        0.1002
     40 C          57.7282   81.4746    7.8319 C.ar    1  UNL1        0.0353
     41 C          58.8662   80.0478   12.8840 C.3     1  UNL1        0.0569
     42 C          60.3585   79.8783   12.7740 C.ar    1  UNL1       -0.0017
     43 C          61.0310   78.9908   11.9379 C.ar    1  UNL1        0.0681
     44 N          62.3687   79.1303   12.0764 N.ar    1  UNL1       -0.3523
     45 C          62.5483   80.0926   12.9973 C.ar    1  UNL1        0.0563
     46 C          63.7610   80.5866   13.4762 C.ar    1  UNL1        0.0170
     47 C          63.7195   81.5994   14.4516 C.ar    1  UNL1        0.0015
     48 C          62.4812   82.0875   14.9240 C.ar    1  UNL1        0.0001
     49 C          61.2732   81.5686   14.4244 C.ar    1  UNL1        0.0012
     50 C          61.3453   80.5708   13.4510 C.ar    1  UNL1        0.0131
     51 H          63.1084   78.5964   11.5684 H       1  UNL1        0.1660
@<TRIPOS>BOND
     1    28    29    1
     2    29    18    1
     3    18    19   ar
     4    19    20   ar
     5    20    12    1
     6    12    13    1
     7    13    14    1
     8    14    15    1
     9    15     5    1
    10     5     6   ar
    11     6     7   ar
    12     7     8   ar
    13     8     1    1
    14     1     2    2
    15     1     3   am
    16     3    30    1
    17    30    41    1
    18    41    42    1
    19    42    43   ar
    20    43    44   ar
    21    44    45   ar
    22    45    46   ar
    23    46    47   ar
    24    47    48   ar
    25    48    49   ar
    26    49    50   ar
    27    30    31    1
    28    31    32    2
    29    31    33   am
    30    33    35    1
    31    35    36   ar
    32    36    37   ar
    33    37    38   ar
    34    38    39   ar
    35    39    40   ar
    36     8     9   ar
    37     9    10    1
    38     9    11   ar
    39    15    16    1
    40    16    17    1
    41    20    21   ar
    42    21    22   ar
    43    22    23   ar
    44    23    24    1
    45    24    25    1
    46    24    26    1
    47    24    27    1
    48    23    18   ar
    49    17    12    1
    50    11     5   ar
    51    50    42   ar
    52    40    35   ar
    53    50    45   ar
    54     3     4    1
    55    44    51    1
    56    33    34    1
@<TRIPOS>MOLECULE
*****
 51 56 0 0 0
SMALL
GASTEIGER

@<TRIPOS>ATOM
      1 C          59.9230   85.5055   12.7772 C.2     1  UNL1        0.2483
      2 O          58.8666   85.3218   13.4420 O.2     1  UNL1       -0.2701
      3 N          61.1150   84.7781   13.1146 N.am    1  UNL1       -0.2945
      4 H          61.8857   84.7524   12.4123 H       1  UNL1        0.1501
      5 C          59.8602   88.1802    9.4081 C.ar    1  UNL1        0.0502
      6 C          59.4005   86.8599    9.2852 C.ar    1  UNL1        0.0148
      7 C          59.4164   86.0002   10.3865 C.ar    1  UNL1        0.0080
      8 C          59.9036   86.4395   11.6289 C.ar    1  UNL1        0.0808
      9 C          60.3515   87.7690   11.7555 C.ar    1  UNL1        0.1457
     10 F          60.7649   88.2574   12.9518 F       1  UNL1       -0.2040
     11 C          60.3324   88.6266   10.6511 C.ar    1  UNL1        0.0443
     12 N          60.2609   90.4759    5.9132 N.pl3   1  UNL1       -0.2897
     13 C          61.2244   90.6550    7.0076 C.3     1  UNL1        0.1136
     14 C          60.5525   90.3566    8.3463 C.3     1  UNL1        0.1123
     15 N          59.8501   89.0700    8.2759 N.pl3   1  UNL1       -0.3040
     16 C          58.8925   88.8714    7.1813 C.3     1  UNL1        0.1123
     17 C          59.5514   89.1932    5.8376 C.3     1  UNL1        0.1136
     18 C          61.4653   92.1973    2.8018 C.ar    1  UNL1       -0.0140
     19 C          61.4290   91.3513    3.9221 C.ar    1  UNL1        0.0300
     20 C          60.3064   91.3325    4.7571 C.ar    1  UNL1        0.1315
     21 N          59.2618   92.1570    4.4853 N.ar    1  UNL1       -0.2292
     22 C          59.2580   92.9954    3.4184 C.ar    1  UNL1        0.1038
     23 C          60.3599   93.0530    2.5435 C.ar    1  UNL1        0.0867
     24 C          60.3162   93.9799    1.3425 C.3     1  UNL1        0.4197
     25 F          60.4344   93.2831    0.1520 F       1  UNL1       -0.1658
     26 F          59.1165   94.6661    1.3108 F       1  UNL1       -0.1658
     27 F          61.3608   94.8832    1.4178 F       1  UNL1       -0.1658
     28 C          63.8129   93.0445    2.5730 C.3     1  UNL1        0.0050
     29 C          62.7173   92.1828    1.9500 C.3     1  UNL1        0.0265
     30 C          61.1697   83.8667   14.2628 C.3     1  UNL1        0.1535
     31 C          60.9040   82.4441   13.8326 C.2     1  UNL1        0.2443
     32 O          61.8840   81.6819   13.6124 O.2     1  UNL1       -0.2730
     33 N          59.5579   81.9587   13.6798 N.am    1  UNL1       -0.2825
     34 H          58.7806   82.5075   14.1107 H       1  UNL1        0.1549
     35 C          59.2132   80.7236   13.0293 C.ar    1  UNL1        0.0535
     36 C          59.1324   79.5472   13.7869 C.ar    1  UNL1        0.0353
     37 C          58.7689   78.3491   13.1679 C.ar    1  UNL1        0.1002
     38 N          58.4779   78.3282   11.8404 N.ar    1  UNL1       -0.2422
     39 C          58.5276   79.4559   11.0833 C.ar    1  UNL1        0.1002
     40 C          58.8882   80.6751   11.6628 C.ar    1  UNL1        0.0353
     41 C          62.5020   83.9985   15.0324 C.3     1  UNL1        0.0569
     42 C          62.6551   85.2998   15.7746 C.ar    1  UNL1       -0.0017
     43 C          62.3963   85.5174   17.1254 C.ar    1  UNL1        0.0681
     44 N          62.6729   86.7976   17.4609 N.ar    1  UNL1       -0.3523
     45 C          63.0973   87.3935   16.3334 C.ar    1  UNL1        0.0563
     46 C          63.4980   88.7200   16.1793 C.ar    1  UNL1        0.0170
     47 C          63.9037   89.1402   14.8996 C.ar    1  UNL1        0.0015
     48 C          63.8960   88.2367   13.8140 C.ar    1  UNL1        0.0001
     49 C          63.4843   86.9046   13.9984 C.ar    1  UNL1        0.0012
     50 C          63.0959   86.5138   15.2808 C.ar    1  UNL1        0.0131
     51 H          62.5752   87.2309   18.4058 H       1  UNL1        0.1660
@<TRIPOS>BOND
     1    28    29    1
     2    29    18    1
     3    18    19   ar
     4    19    20   ar
     5    20    12    1
     6    12    13    1
     7    13    14    1
     8    14    15    1
     9    15     5    1
    10     5     6   ar
    11     6     7   ar
    12     7     8   ar
    13     8     1    1
    14     1     2    2
    15     1     3   am
    16     3    30    1
    17    30    41    1
    18    41    42    1
    19    42    43   ar
    20    43    44   ar
    21    44    45   ar
    22    45    46   ar
    23    46    47   ar
    24    47    48   ar
    25    48    49   ar
    26    49    50   ar
    27    30    31    1
    28    31    32    2
    29    31    33   am
    30    33    35    1
    31    35    36   ar
    32    36    37   ar
    33    37    38   ar
    34    38    39   ar
    35    39    40   ar
    36     8     9   ar
    37     9    10    1
    38     9    11   ar
    39    15    16    1
    40    16    17    1
    41    20    21   ar
    42    21    22   ar
    43    22    23   ar
    44    23    24    1
    45    24    25    1
    46    24    26    1
    47    24    27    1
    48    23    18   ar
    49    17    12    1
    50    11     5   ar
    51    50    42   ar
    52    40    35   ar
    53    50    45   ar
    54     3     4    1
    55    44    51    1
    56    33    34    1
