@<TRIPOS>MOLECULE
*****
 58 65 0 0 0
SMALL
GASTEIGER

@<TRIPOS>ATOM
      1 O          57.0550   83.4172    8.2495 O.3     1  UNL1       -0.4727
      2 C          59.4140   86.4111   10.0713 C.ar    1  UNL1        0.0481
      3 C          59.6139   86.0945    8.7172 C.ar    1  UNL1        0.0176
      4 C          58.8394   85.1131    8.0931 C.ar    1  UNL1        0.0382
      5 C          57.8400   84.4343    8.8134 C.ar    1  UNL1        0.1388
      6 C          57.6094   84.7808   10.1486 C.ar    1  UNL1        0.0382
      7 C          58.3925   85.7521   10.7775 C.ar    1  UNL1        0.0176
      8 N          62.0635   89.1250   12.0754 N.pl3   1  UNL1       -0.3041
      9 C          62.3919   88.6249   10.7307 C.3     1  UNL1        0.1122
     10 C          61.1311   88.2596    9.9414 C.3     1  UNL1        0.1122
     11 N          60.2639   87.3743   10.7305 N.pl3   1  UNL1       -0.3041
     12 C          60.1610   87.5519   12.1875 C.3     1  UNL1        0.1122
     13 C          60.7202   88.9069   12.6317 C.3     1  UNL1        0.1122
     14 C          64.9258   91.4620   14.2215 C.ar    1  UNL1        0.0699
     15 C          64.6118   91.7665   12.8868 C.ar    1  UNL1        0.0190
     16 C          63.6760   91.0016   12.1849 C.ar    1  UNL1        0.0160
     17 C          63.0323   89.9144   12.8016 C.ar    1  UNL1        0.0480
     18 C          63.3406   89.6177   14.1413 C.ar    1  UNL1        0.0160
     19 C          64.2746   90.3843   14.8432 C.ar    1  UNL1        0.0190
     20 N          67.7011   93.3840   15.5498 N.ar    1  UNL1       -0.2024
     21 N          66.8770   93.4109   16.5873 N.ar    1  UNL1       -0.1442
     22 C          65.7771   92.7196   16.2165 C.ar    1  UNL1        0.2073
     23 N          65.8852   92.2504   14.9522 N.ar    1  UNL1       -0.2398
     24 C          67.1049   92.6794   14.5715 C.ar    1  UNL1        0.3522
     25 O          67.6392   92.4205   13.4593 O.2     1  UNL1       -0.2444
     26 C          69.0401   93.9831   15.5326 C.3     1  UNL1        0.1099
     27 C          69.2171   94.8925   16.7517 C.3     1  UNL1        0.0265
     28 C          69.9812   91.9163   16.6768 C.3     1  UNL1        0.0021
     29 C          70.1232   92.8887   15.5068 C.3     1  UNL1        0.0245
     30 C          57.5418   82.3107    7.4855 C.3     1  UNL1        0.2374
     31 C          58.4200   81.3742    8.3335 C.3     1  UNL1        0.1909
     32 C          57.7519   80.9429    9.6196 C.3     1  UNL1        0.1783
     33 O          58.5724   81.3879   10.6536 O.3     1  UNL1       -0.3266
     34 C          59.8199   81.6729   10.0560 C.3     1  UNL1        0.2315
     35 O          59.6109   82.0044    8.7006 O.3     1  UNL1       -0.3254
     36 C          60.7439   80.4563   10.2231 C.ar    1  UNL1        0.0410
     37 C          61.6402   80.1641    9.1723 C.ar    1  UNL1        0.0022
     38 C          62.5312   79.0946    9.2592 C.ar    1  UNL1        0.0113
     39 C          62.5479   78.2901   10.3957 C.ar    1  UNL1        0.0585
     40 CL         63.6809   76.9559   10.5095 Cl      1  UNL1       -0.0822
     41 C          61.6487   78.5350   11.4338 C.ar    1  UNL1        0.0226
     42 C          60.7298   79.5899   11.3522 C.ar    1  UNL1        0.0591
     43 CL         59.5747   79.7223   12.6761 Cl      1  UNL1       -0.0824
     44 C          60.4167   82.8907   10.7858 C.3     1  UNL1        0.1914
     45 N          61.7799   83.1960   10.3395 N.ar    1  UNL1       -0.2079
     46 N          62.0800   83.6238    9.1264 N.ar    1  UNL1       -0.0427
     47 N          63.3925   83.7681    9.0320 N.ar    1  UNL1       -0.0227
     48 N          63.9685   83.4317   10.1774 N.ar    1  UNL1       -0.1081
     49 C          62.9570   83.0715   10.9908 C.ar    1  UNL1        0.1837
     50 C          63.1496   82.6161   12.3866 C.ar    1  UNL1        0.0357
     51 C          63.3670   81.2487   12.6285 C.ar    1  UNL1        0.0029
     52 C          63.5308   80.7721   13.9287 C.ar    1  UNL1        0.0001
     53 C          63.4439   81.6470   15.0086 C.ar    1  UNL1       -0.0002
     54 C          63.1845   83.0007   14.7936 C.ar    1  UNL1       -0.0018
     55 C          63.0468   83.5105   13.4869 C.ar    1  UNL1        0.0103
     56 C          62.6938   84.9711   13.2935 C.3     1  UNL1        0.1688
     57 O          62.2767   85.5500   14.5136 O.3     1  UNL1       -0.3463
     58 C          63.3265   86.3229   15.0506 C.3     1  UNL1        0.1746
@<TRIPOS>BOND
     1    28    29    1
     2    29    26    1
     3    26    27    1
     4    26    20    1
     5    20    21   ar
     6    21    22   ar
     7    22    23   ar
     8    23    14    1
     9    14    15   ar
    10    15    16   ar
    11    16    17   ar
    12    17     8    1
    13     8     9    1
    14     9    10    1
    15    10    11    1
    16    11     2    1
    17     2     3   ar
    18     3     4   ar
    19     4     5   ar
    20     5     1    1
    21     1    30    1
    22    30    31    1
    23    31    32    1
    24    32    33    1
    25    33    34    1
    26    34    44    1
    27    44    45    1
    28    45    46   ar
    29    46    47   ar
    30    47    48   ar
    31    48    49   ar
    32    49    50    1
    33    50    51   ar
    34    51    52   ar
    35    52    53   ar
    36    53    54   ar
    37    54    55   ar
    38    55    56    1
    39    56    57    1
    40    57    58    1
    41    34    36    1
    42    36    37   ar
    43    37    38   ar
    44    38    39   ar
    45    39    40    1
    46    39    41   ar
    47    41    42   ar
    48    42    43    1
    49    34    35    1
    50     5     6   ar
    51     6     7   ar
    52    11    12    1
    53    12    13    1
    54    17    18   ar
    55    18    19   ar
    56    23    24   ar
    57    24    25    2
    58    24    20   ar
    59    19    14   ar
    60    13     8    1
    61     7     2   ar
    62    35    31    1
    63    49    45   ar
    64    55    50   ar
    65    42    36   ar
@<TRIPOS>MOLECULE
*****
 58 65 0 0 0
SMALL
GASTEIGER

@<TRIPOS>ATOM
      1 O          60.7145   87.6969   15.6380 O.3     1  UNL1       -0.4727
      2 C          60.6967   88.6814   11.5298 C.ar    1  UNL1        0.0481
      3 C          61.9066   88.6931   12.2438 C.ar    1  UNL1        0.0176
      4 C          61.9361   88.3632   13.6012 C.ar    1  UNL1        0.0382
      5 C          60.7515   88.0049   14.2696 C.ar    1  UNL1        0.1388
      6 C          59.5541   87.9486   13.5491 C.ar    1  UNL1        0.0382
      7 C          59.5212   88.2917   12.1951 C.ar    1  UNL1        0.0176
      8 N          60.4810   90.0598    7.4732 N.pl3   1  UNL1       -0.3041
      9 C          61.4099   90.6927    8.4233 C.3     1  UNL1        0.1122
     10 C          61.8352   89.7212    9.5284 C.3     1  UNL1        0.1122
     11 N          60.6599   89.0920   10.1460 N.pl3   1  UNL1       -0.3041
     12 C          59.4854   88.7601    9.3242 C.3     1  UNL1        0.1122
     13 C          59.8139   88.7988    7.8287 C.3     1  UNL1        0.1122
     14 C          59.9621   91.7469    3.5817 C.ar    1  UNL1        0.0699
     15 C          58.8733   91.6330    4.4617 C.ar    1  UNL1        0.0190
     16 C          59.0432   91.0806    5.7342 C.ar    1  UNL1        0.0160
     17 C          60.3061   90.6294    6.1564 C.ar    1  UNL1        0.0480
     18 C          61.3969   90.7539    5.2776 C.ar    1  UNL1        0.0160
     19 C          61.2268   91.3084    4.0063 C.ar    1  UNL1        0.0190
     20 N          60.1601   93.1067    0.2242 N.ar    1  UNL1       -0.2024
     21 N          58.8703   93.2809    0.4740 N.ar    1  UNL1       -0.1442
     22 C          58.6567   92.8018    1.7191 C.ar    1  UNL1        0.2073
     23 N          59.7945   92.3209    2.2708 N.ar    1  UNL1       -0.2398
     24 C          60.7139   92.5362    1.3090 C.ar    1  UNL1        0.3522
     25 O          61.9425   92.2772    1.4231 O.2     1  UNL1       -0.2444
     26 C          60.8347   93.5260   -1.0092 C.3     1  UNL1        0.1099
     27 C          59.8133   94.1207   -1.9826 C.3     1  UNL1        0.0265
     28 C          63.2858   94.1314   -1.3127 C.3     1  UNL1        0.0021
     29 C          61.9485   94.5431   -0.6988 C.3     1  UNL1        0.0245
     30 C          61.5286   86.7248   16.2992 C.3     1  UNL1        0.2374
     31 C          61.3546   85.3237   15.6876 C.3     1  UNL1        0.1909
     32 C          62.5564   84.4320   15.9040 C.3     1  UNL1        0.1783
     33 O          63.0182   84.0854   14.6362 O.3     1  UNL1       -0.3266
     34 C          61.9567   84.3742   13.7506 C.3     1  UNL1        0.2315
     35 O          61.1666   85.4028   14.3060 O.3     1  UNL1       -0.3254
     36 C          61.1506   83.0899   13.5008 C.ar    1  UNL1        0.0410
     37 C          61.7171   81.8674   13.9220 C.ar    1  UNL1        0.0022
     38 C          61.0366   80.6611   13.7576 C.ar    1  UNL1        0.0113
     39 C          59.7755   80.6456   13.1671 C.ar    1  UNL1        0.0585
     40 CL         58.9148   79.1291   12.9764 Cl      1  UNL1       -0.0822
     41 C          59.2077   81.8349   12.7096 C.ar    1  UNL1        0.0226
     42 C          59.8882   83.0525   12.8442 C.ar    1  UNL1        0.0591
     43 CL         59.1145   84.4624   12.1246 Cl      1  UNL1       -0.0824
     44 C          62.5756   84.8717   12.4310 C.3     1  UNL1        0.1914
     45 N          63.4720   83.8809   11.8264 N.ar    1  UNL1       -0.2079
     46 N          64.4744   83.3062   12.4665 N.ar    1  UNL1       -0.0427
     47 N          65.1089   82.4947   11.6350 N.ar    1  UNL1       -0.0227
     48 N          64.5355   82.5318   10.4405 N.ar    1  UNL1       -0.1081
     49 C          63.5148   83.4022   10.5638 C.ar    1  UNL1        0.1837
     50 C          62.5967   83.7517    9.4558 C.ar    1  UNL1        0.0357
     51 C          62.7890   84.9662    8.7750 C.ar    1  UNL1        0.0029
     52 C          61.9350   85.3463    7.7403 C.ar    1  UNL1        0.0001
     53 C          60.8554   84.5378    7.3941 C.ar    1  UNL1       -0.0002
     54 C          60.6201   83.3498    8.0866 C.ar    1  UNL1       -0.0018
     55 C          61.4880   82.9297    9.1146 C.ar    1  UNL1        0.0103
     56 C          61.1618   81.6718    9.8935 C.3     1  UNL1        0.1688
     57 O          61.7887   80.5470    9.3110 O.3     1  UNL1       -0.3463
     58 C          61.9947   79.5603   10.2968 C.3     1  UNL1        0.1746
@<TRIPOS>BOND
     1    28    29    1
     2    29    26    1
     3    26    27    1
     4    26    20    1
     5    20    21   ar
     6    21    22   ar
     7    22    23   ar
     8    23    14    1
     9    14    15   ar
    10    15    16   ar
    11    16    17   ar
    12    17     8    1
    13     8     9    1
    14     9    10    1
    15    10    11    1
    16    11     2    1
    17     2     3   ar
    18     3     4   ar
    19     4     5   ar
    20     5     1    1
    21     1    30    1
    22    30    31    1
    23    31    32    1
    24    32    33    1
    25    33    34    1
    26    34    44    1
    27    44    45    1
    28    45    46   ar
    29    46    47   ar
    30    47    48   ar
    31    48    49   ar
    32    49    50    1
    33    50    51   ar
    34    51    52   ar
    35    52    53   ar
    36    53    54   ar
    37    54    55   ar
    38    55    56    1
    39    56    57    1
    40    57    58    1
    41    34    36    1
    42    36    37   ar
    43    37    38   ar
    44    38    39   ar
    45    39    40    1
    46    39    41   ar
    47    41    42   ar
    48    42    43    1
    49    34    35    1
    50     5     6   ar
    51     6     7   ar
    52    11    12    1
    53    12    13    1
    54    17    18   ar
    55    18    19   ar
    56    23    24   ar
    57    24    25    2
    58    24    20   ar
    59    19    14   ar
    60    13     8    1
    61     7     2   ar
    62    35    31    1
    63    49    45   ar
    64    55    50   ar
    65    42    36   ar
@<TRIPOS>MOLECULE
*****
 58 65 0 0 0
SMALL
GASTEIGER

@<TRIPOS>ATOM
      1 O          57.9510   80.0498   11.4617 O.3     1  UNL1       -0.4727
      2 C          59.7397   83.4517   13.2153 C.ar    1  UNL1        0.0481
      3 C          58.5417   83.5881   12.4940 C.ar    1  UNL1        0.0176
      4 C          57.9293   82.4748   11.9127 C.ar    1  UNL1        0.0382
      5 C          58.5021   81.1977   12.0511 C.ar    1  UNL1        0.1388
      6 C          59.6698   81.0540   12.8073 C.ar    1  UNL1        0.0382
      7 C          60.2905   82.1684   13.3773 C.ar    1  UNL1        0.0176
      8 N          61.8351   86.9085   14.6511 N.pl3   1  UNL1       -0.3041
      9 C          60.8159   87.0432   13.5980 C.3     1  UNL1        0.1122
     10 C          59.7637   85.9337   13.6862 C.3     1  UNL1        0.1122
     11 N          60.4063   84.6141   13.7530 N.pl3   1  UNL1       -0.3041
     12 C          61.6735   84.4484   14.4821 C.3     1  UNL1        0.1122
     13 C          61.9611   85.6455   15.3932 C.3     1  UNL1        0.1122
     14 C          64.2169   90.2854   15.7390 C.ar    1  UNL1        0.0699
     15 C          63.1942   89.8298   16.5872 C.ar    1  UNL1        0.0190
     16 C          62.4149   88.7257   16.2307 C.ar    1  UNL1        0.0160
     17 C          62.6405   88.0513   15.0179 C.ar    1  UNL1        0.0480
     18 C          63.6718   88.5027   14.1750 C.ar    1  UNL1        0.0160
     19 C          64.4521   89.6053   14.5331 C.ar    1  UNL1        0.0190
     20 N          66.6653   92.9161   16.2345 N.ar    1  UNL1       -0.2024
     21 N          65.7546   93.2691   17.1302 N.ar    1  UNL1       -0.1442
     22 C          64.7638   92.3546   17.0448 C.ar    1  UNL1        0.2073
     23 N          65.0275   91.4194   16.1035 N.ar    1  UNL1       -0.2398
     24 C          66.2285   91.7998   15.6244 C.ar    1  UNL1        0.3522
     25 O          66.8810   91.1706   14.7482 O.2     1  UNL1       -0.2444
     26 C          67.9362   93.6159   16.0170 C.3     1  UNL1        0.1099
     27 C          69.1037   92.7007   16.3962 C.3     1  UNL1        0.0265
     28 C          66.6950   94.1678   13.8672 C.3     1  UNL1        0.0021
     29 C          68.0577   94.0763   14.5525 C.3     1  UNL1        0.0245
     30 C          57.6792   79.8726   10.0690 C.3     1  UNL1        0.2374
     31 C          57.9580   81.1549    9.2656 C.3     1  UNL1        0.1909
     32 C          57.8673   80.9460    7.7708 C.3     1  UNL1        0.1783
     33 O          59.1198   81.2712    7.2548 O.3     1  UNL1       -0.3266
     34 C          59.7683   82.0144    8.2656 C.3     1  UNL1        0.2315
     35 O          59.2459   81.6318    9.5191 O.3     1  UNL1       -0.3254
     36 C          59.5751   83.5131    7.9861 C.ar    1  UNL1        0.0410
     37 C          58.5571   84.1868    8.6951 C.ar    1  UNL1        0.0022
     38 C          58.3369   85.5528    8.5196 C.ar    1  UNL1        0.0113
     39 C          59.1258   86.2788    7.6309 C.ar    1  UNL1        0.0585
     40 CL         58.8576   87.9999    7.4242 Cl      1  UNL1       -0.0822
     41 C          60.1154   85.6309    6.8912 C.ar    1  UNL1        0.0226
     42 C          60.3335   84.2543    7.0367 C.ar    1  UNL1        0.0591
     43 CL         61.5332   83.5369    5.9640 Cl      1  UNL1       -0.0824
     44 C          61.2658   81.6587    8.2146 C.3     1  UNL1        0.1914
     45 N          61.6968   80.8883    9.3857 N.ar    1  UNL1       -0.2079
     46 N          61.5586   79.5796    9.4987 N.ar    1  UNL1       -0.0427
     47 N          62.0093   79.1986   10.6837 N.ar    1  UNL1       -0.0227
     48 N          62.4420   80.2511   11.3632 N.ar    1  UNL1       -0.1081
     49 C          62.2416   81.3057   10.5494 C.ar    1  UNL1        0.1837
     50 C          62.5852   82.6994   10.9134 C.ar    1  UNL1        0.0357
     51 C          61.9988   83.7520   10.1899 C.ar    1  UNL1        0.0029
     52 C          62.3107   85.0791   10.4831 C.ar    1  UNL1        0.0001
     53 C          63.2395   85.3740   11.4780 C.ar    1  UNL1       -0.0002
     54 C          63.8666   84.3431   12.1780 C.ar    1  UNL1       -0.0018
     55 C          63.5439   82.9954   11.9206 C.ar    1  UNL1        0.0103
     56 C          64.2964   81.9002   12.6482 C.3     1  UNL1        0.1688
     57 O          64.1794   82.0585   14.0477 O.3     1  UNL1       -0.3463
     58 C          63.4539   80.9753   14.5846 C.3     1  UNL1        0.1746
@<TRIPOS>BOND
     1    28    29    1
     2    29    26    1
     3    26    27    1
     4    26    20    1
     5    20    21   ar
     6    21    22   ar
     7    22    23   ar
     8    23    14    1
     9    14    15   ar
    10    15    16   ar
    11    16    17   ar
    12    17     8    1
    13     8     9    1
    14     9    10    1
    15    10    11    1
    16    11     2    1
    17     2     3   ar
    18     3     4   ar
    19     4     5   ar
    20     5     1    1
    21     1    30    1
    22    30    31    1
    23    31    32    1
    24    32    33    1
    25    33    34    1
    26    34    44    1
    27    44    45    1
    28    45    46   ar
    29    46    47   ar
    30    47    48   ar
    31    48    49   ar
    32    49    50    1
    33    50    51   ar
    34    51    52   ar
    35    52    53   ar
    36    53    54   ar
    37    54    55   ar
    38    55    56    1
    39    56    57    1
    40    57    58    1
    41    34    36    1
    42    36    37   ar
    43    37    38   ar
    44    38    39   ar
    45    39    40    1
    46    39    41   ar
    47    41    42   ar
    48    42    43    1
    49    34    35    1
    50     5     6   ar
    51     6     7   ar
    52    11    12    1
    53    12    13    1
    54    17    18   ar
    55    18    19   ar
    56    23    24   ar
    57    24    25    2
    58    24    20   ar
    59    19    14   ar
    60    13     8    1
    61     7     2   ar
    62    35    31    1
    63    49    45   ar
    64    55    50   ar
    65    42    36   ar
@<TRIPOS>MOLECULE
*****
 58 65 0 0 0
SMALL
GASTEIGER

@<TRIPOS>ATOM
      1 O          62.0316   85.7728   14.6791 O.3     1  UNL1       -0.4727
      2 C          61.0386   87.9530   11.1994 C.ar    1  UNL1        0.0481
      3 C          60.0282   87.5877   12.1048 C.ar    1  UNL1        0.0176
      4 C          60.3359   86.8733   13.2655 C.ar    1  UNL1        0.0382
      5 C          61.6673   86.5181   13.5474 C.ar    1  UNL1        0.1388
      6 C          62.6793   86.9209   12.6702 C.ar    1  UNL1        0.0382
      7 C          62.3712   87.6231   11.5022 C.ar    1  UNL1        0.0176
      8 N          60.2402   89.9264    7.4752 N.pl3   1  UNL1       -0.3041
      9 C          60.2949   88.4571    7.5393 C.3     1  UNL1        0.1122
     10 C          59.9241   87.9391    8.9322 C.3     1  UNL1        0.1122
     11 N          60.7073   88.6281    9.9669 N.pl3   1  UNL1       -0.3041
     12 C          61.0477   90.0506    9.8074 C.3     1  UNL1        0.1122
     13 C          60.2025   90.7143    8.7160 C.3     1  UNL1        0.1122
     14 C          59.8932   91.8702    3.6855 C.ar    1  UNL1        0.0699
     15 C          58.7556   91.6386    4.4762 C.ar    1  UNL1        0.0190
     16 C          58.8694   91.0023    5.7154 C.ar    1  UNL1        0.0160
     17 C          60.1235   90.5829    6.1928 C.ar    1  UNL1        0.0480
     18 C          61.2625   90.8250    5.4042 C.ar    1  UNL1        0.0160
     19 C          61.1483   91.4634    4.1664 C.ar    1  UNL1        0.0190
     20 N          59.8747   93.0101    0.2416 N.ar    1  UNL1       -0.2024
     21 N          59.3801   94.0800    0.8473 N.ar    1  UNL1       -0.1442
     22 C          59.3286   93.7811    2.1638 C.ar    1  UNL1        0.2073
     23 N          59.7833   92.5309    2.4099 N.ar    1  UNL1       -0.2398
     24 C          60.1228   92.0837    1.1846 C.ar    1  UNL1        0.3522
     25 O          60.6448   90.9598    0.9526 O.2     1  UNL1       -0.2444
     26 C          60.1397   92.9148   -1.1982 C.3     1  UNL1        0.1099
     27 C          58.8181   92.9328   -1.9712 C.3     1  UNL1        0.0265
     28 C          62.5041   93.8507   -1.2190 C.3     1  UNL1        0.0021
     29 C          61.0561   94.0639   -1.6578 C.3     1  UNL1        0.0245
     30 C          62.8815   84.6228   14.6855 C.3     1  UNL1        0.2374
     31 C          62.3196   83.4930   13.8051 C.3     1  UNL1        0.1909
     32 C          63.2926   83.0333   12.7430 C.3     1  UNL1        0.1783
     33 O          62.6663   83.2540   11.5184 O.3     1  UNL1       -0.3266
     34 C          61.2954   83.4201   11.8147 C.3     1  UNL1        0.2315
     35 O          61.1699   83.9110   13.1315 O.3     1  UNL1       -0.3254
     36 C          60.5759   82.0759   11.6222 C.ar    1  UNL1        0.0410
     37 C          59.3451   81.8895   12.2880 C.ar    1  UNL1        0.0022
     38 C          58.6163   80.7093   12.1420 C.ar    1  UNL1        0.0113
     39 C          59.0991   79.6863   11.3299 C.ar    1  UNL1        0.0585
     40 CL         58.1726   78.2097   11.1349 Cl      1  UNL1       -0.0822
     41 C          60.3296   79.8302   10.6886 C.ar    1  UNL1        0.0226
     42 C          61.0867   80.9991   10.8442 C.ar    1  UNL1        0.0591
     43 CL         62.6719   81.0100   10.0751 Cl      1  UNL1       -0.0824
     44 C          60.7315   84.4638   10.8326 C.3     1  UNL1        0.1914
     45 N          61.4237   84.4450    9.5398 N.ar    1  UNL1       -0.2079
     46 N          62.5305   85.1197    9.2864 N.ar    1  UNL1       -0.0427
     47 N          62.8774   84.9217    8.0243 N.ar    1  UNL1       -0.0227
     48 N          62.0010   84.1214    7.4342 N.ar    1  UNL1       -0.1081
     49 C          61.0921   83.8286    8.3843 C.ar    1  UNL1        0.1837
     50 C          59.9198   82.9531    8.1557 C.ar    1  UNL1        0.0357
     51 C          60.0892   81.7780    7.4035 C.ar    1  UNL1        0.0029
     52 C          59.0086   80.9356    7.1442 C.ar    1  UNL1        0.0001
     53 C          57.7367   81.2719    7.6008 C.ar    1  UNL1       -0.0002
     54 C          57.5383   82.4561    8.3111 C.ar    1  UNL1       -0.0018
     55 C          58.6208   83.3070    8.6121 C.ar    1  UNL1        0.0103
     56 C          58.3579   84.6195    9.3217 C.3     1  UNL1        0.1688
     57 O          57.1401   84.5654   10.0371 O.3     1  UNL1       -0.3463
     58 C          57.3450   85.0351   11.3506 C.3     1  UNL1        0.1746
@<TRIPOS>BOND
     1    28    29    1
     2    29    26    1
     3    26    27    1
     4    26    20    1
     5    20    21   ar
     6    21    22   ar
     7    22    23   ar
     8    23    14    1
     9    14    15   ar
    10    15    16   ar
    11    16    17   ar
    12    17     8    1
    13     8     9    1
    14     9    10    1
    15    10    11    1
    16    11     2    1
    17     2     3   ar
    18     3     4   ar
    19     4     5   ar
    20     5     1    1
    21     1    30    1
    22    30    31    1
    23    31    32    1
    24    32    33    1
    25    33    34    1
    26    34    44    1
    27    44    45    1
    28    45    46   ar
    29    46    47   ar
    30    47    48   ar
    31    48    49   ar
    32    49    50    1
    33    50    51   ar
    34    51    52   ar
    35    52    53   ar
    36    53    54   ar
    37    54    55   ar
    38    55    56    1
    39    56    57    1
    40    57    58    1
    41    34    36    1
    42    36    37   ar
    43    37    38   ar
    44    38    39   ar
    45    39    40    1
    46    39    41   ar
    47    41    42   ar
    48    42    43    1
    49    34    35    1
    50     5     6   ar
    51     6     7   ar
    52    11    12    1
    53    12    13    1
    54    17    18   ar
    55    18    19   ar
    56    23    24   ar
    57    24    25    2
    58    24    20   ar
    59    19    14   ar
    60    13     8    1
    61     7     2   ar
    62    35    31    1
    63    49    45   ar
    64    55    50   ar
    65    42    36   ar
@<TRIPOS>MOLECULE
*****
 58 65 0 0 0
SMALL
GASTEIGER

@<TRIPOS>ATOM
      1 O          56.9108   83.4544    8.4526 O.3     1  UNL1       -0.4727
      2 C          59.3833   86.4136   10.1783 C.ar    1  UNL1        0.0481
      3 C          59.5367   86.0819    8.8217 C.ar    1  UNL1        0.0176
      4 C          58.7242   85.1117    8.2292 C.ar    1  UNL1        0.0382
      5 C          57.7328   84.4597    8.9844 C.ar    1  UNL1        0.1388
      6 C          57.5488   84.8218   10.3227 C.ar    1  UNL1        0.0382
      7 C          58.3697   85.7817   10.9199 C.ar    1  UNL1        0.0176
      8 N          62.1095   89.0875   12.1327 N.pl3   1  UNL1       -0.3041
      9 C          62.5602   88.2691   10.9956 C.3     1  UNL1        0.1122
     10 C          61.4024   87.9269   10.0530 C.3     1  UNL1        0.1122
     11 N          60.2717   87.3644   10.8039 N.pl3   1  UNL1       -0.3041
     12 C          59.9631   87.8631   12.1534 C.3     1  UNL1        0.1122
     13 C          60.6757   89.1878   12.4421 C.3     1  UNL1        0.1122
     14 C          64.9541   91.3908   14.3379 C.ar    1  UNL1        0.0699
     15 C          64.3948   90.2271   14.8910 C.ar    1  UNL1        0.0190
     16 C          63.4639   89.4744   14.1698 C.ar    1  UNL1        0.0160
     17 C          63.0709   89.8677   12.8784 C.ar    1  UNL1        0.0480
     18 C          63.6400   91.0274   12.3225 C.ar    1  UNL1        0.0160
     19 C          64.5724   91.7783   13.0433 C.ar    1  UNL1        0.0190
     20 N          67.7211   93.3272   15.6627 N.ar    1  UNL1       -0.2024
     21 N          66.9428   93.2641   16.7334 N.ar    1  UNL1       -0.1442
     22 C          65.8507   92.5578   16.3678 C.ar    1  UNL1        0.2073
     23 N          65.9185   92.1679   15.0741 N.ar    1  UNL1       -0.2398
     24 C          67.1058   92.6610   14.6694 C.ar    1  UNL1        0.3522
     25 O          67.5991   92.4869   13.5223 O.2     1  UNL1       -0.2444
     26 C          69.0379   93.9728   15.6258 C.3     1  UNL1        0.1099
     27 C          69.1990   94.8924   16.8394 C.3     1  UNL1        0.0265
     28 C          70.1862   92.1587   14.2628 C.3     1  UNL1        0.0021
     29 C          70.1583   92.9168   15.5892 C.3     1  UNL1        0.0245
     30 C          57.3290   82.4142    7.5650 C.3     1  UNL1        0.2374
     31 C          58.3214   81.4520    8.2409 C.3     1  UNL1        0.1909
     32 C          57.6463   80.4534    9.1538 C.3     1  UNL1        0.1783
     33 O          58.1767   80.6658   10.4243 O.3     1  UNL1       -0.3266
     34 C          59.3595   81.4114   10.2250 C.3     1  UNL1        0.2315
     35 O          59.2354   82.1526    9.0309 O.3     1  UNL1       -0.3254
     36 C          60.5574   80.4494   10.1924 C.ar    1  UNL1        0.0410
     37 C          60.3593   79.1384   10.6772 C.ar    1  UNL1        0.0022
     38 C          61.3880   78.1969   10.6554 C.ar    1  UNL1        0.0113
     39 C          62.6395   78.5415   10.1512 C.ar    1  UNL1        0.0585
     40 CL         63.9268   77.3508   10.1097 Cl      1  UNL1       -0.0822
     41 C          62.8728   79.8403    9.6986 C.ar    1  UNL1        0.0226
     42 C          61.8578   80.8058    9.7365 C.ar    1  UNL1        0.0591
     43 CL         62.3121   82.4352    9.2433 Cl      1  UNL1       -0.0824
     44 C          59.4992   82.3854   11.4097 C.3     1  UNL1        0.1914
     45 N          59.7895   81.6935   12.6699 N.ar    1  UNL1       -0.2079
     46 N          58.9047   80.9746   13.3369 N.ar    1  UNL1       -0.0427
     47 N          59.4666   80.5182   14.4452 N.ar    1  UNL1       -0.0227
     48 N          60.7220   80.9364   14.5216 N.ar    1  UNL1       -0.1081
     49 C          60.9186   81.6735   13.4114 C.ar    1  UNL1        0.1837
     50 C          62.1993   82.3427   13.0875 C.ar    1  UNL1        0.0357
     51 C          63.2853   81.5572   12.6646 C.ar    1  UNL1        0.0029
     52 C          64.5165   82.1422   12.3707 C.ar    1  UNL1        0.0001
     53 C          64.6925   83.5144   12.5293 C.ar    1  UNL1       -0.0002
     54 C          63.6407   84.3063   12.9906 C.ar    1  UNL1       -0.0018
     55 C          62.3784   83.7420   13.2637 C.ar    1  UNL1        0.0103
     56 C          61.2809   84.6185   13.8317 C.3     1  UNL1        0.1688
     57 O          61.6053   85.0394   15.1413 O.3     1  UNL1       -0.3463
     58 C          60.7811   86.1241   15.5045 C.3     1  UNL1        0.1746
@<TRIPOS>BOND
     1    28    29    1
     2    29    26    1
     3    26    27    1
     4    26    20    1
     5    20    21   ar
     6    21    22   ar
     7    22    23   ar
     8    23    14    1
     9    14    15   ar
    10    15    16   ar
    11    16    17   ar
    12    17     8    1
    13     8     9    1
    14     9    10    1
    15    10    11    1
    16    11     2    1
    17     2     3   ar
    18     3     4   ar
    19     4     5   ar
    20     5     1    1
    21     1    30    1
    22    30    31    1
    23    31    32    1
    24    32    33    1
    25    33    34    1
    26    34    44    1
    27    44    45    1
    28    45    46   ar
    29    46    47   ar
    30    47    48   ar
    31    48    49   ar
    32    49    50    1
    33    50    51   ar
    34    51    52   ar
    35    52    53   ar
    36    53    54   ar
    37    54    55   ar
    38    55    56    1
    39    56    57    1
    40    57    58    1
    41    34    36    1
    42    36    37   ar
    43    37    38   ar
    44    38    39   ar
    45    39    40    1
    46    39    41   ar
    47    41    42   ar
    48    42    43    1
    49    34    35    1
    50     5     6   ar
    51     6     7   ar
    52    11    12    1
    53    12    13    1
    54    17    18   ar
    55    18    19   ar
    56    23    24   ar
    57    24    25    2
    58    24    20   ar
    59    19    14   ar
    60    13     8    1
    61     7     2   ar
    62    35    31    1
    63    49    45   ar
    64    55    50   ar
    65    42    36   ar
@<TRIPOS>MOLECULE
*****
 58 65 0 0 0
SMALL
GASTEIGER

@<TRIPOS>ATOM
      1 O          60.9748   85.8408   14.7112 O.3     1  UNL1       -0.4727
      2 C          60.3723   87.9744   11.1151 C.ar    1  UNL1        0.0481
      3 C          59.2807   87.3616   11.7528 C.ar    1  UNL1        0.0176
      4 C          59.4566   86.6577   12.9470 C.ar    1  UNL1        0.0382
      5 C          60.7319   86.5618   13.5322 C.ar    1  UNL1        0.1388
      6 C          61.8109   87.2100   12.9224 C.ar    1  UNL1        0.0382
      7 C          61.6388   87.9024   11.7211 C.ar    1  UNL1        0.0176
      8 N          60.0540   89.9508    7.3211 N.pl3   1  UNL1       -0.3041
      9 C          60.3401   88.5085    7.3845 C.3     1  UNL1        0.1122
     10 C          59.7775   87.8775    8.6616 C.3     1  UNL1        0.1122
     11 N          60.1988   88.6393    9.8453 N.pl3   1  UNL1       -0.3041
     12 C          60.3212   90.1038    9.7730 C.3     1  UNL1        0.1122
     13 C          59.6248   90.6677    8.5308 C.3     1  UNL1        0.1122
     14 C          60.1907   91.9748    3.5602 C.ar    1  UNL1        0.0699
     15 C          59.0160   91.9774    4.3303 C.ar    1  UNL1        0.0190
     16 C          58.9715   91.3148    5.5601 C.ar    1  UNL1        0.0160
     17 C          60.1007   90.6343    6.0484 C.ar    1  UNL1        0.0480
     18 C          61.2789   90.6417    5.2805 C.ar    1  UNL1        0.0160
     19 C          61.3234   91.3064    4.0521 C.ar    1  UNL1        0.0190
     20 N          59.7475   93.4746    0.2868 N.ar    1  UNL1       -0.2024
     21 N          60.9862   93.8600    0.5575 N.ar    1  UNL1       -0.1442
     22 C          61.2807   93.3611    1.7780 C.ar    1  UNL1        0.2073
     23 N          60.2447   92.6610    2.2944 N.ar    1  UNL1       -0.2398
     24 C          59.3075   92.7480    1.3296 C.ar    1  UNL1        0.3522
     25 O          58.1792   92.1874    1.3758 O.2     1  UNL1       -0.2444
     26 C          59.0384   93.7649   -0.9642 C.3     1  UNL1        0.1099
     27 C          58.3543   92.4956   -1.4793 C.3     1  UNL1        0.0265
     28 C          56.5944   94.4496   -1.1220 C.3     1  UNL1        0.0021
     29 C          58.0102   94.8922   -0.7554 C.3     1  UNL1        0.0245
     30 C          62.1353   85.0516   14.9853 C.3     1  UNL1        0.2374
     31 C          62.3481   83.9609   13.9210 C.3     1  UNL1        0.1909
     32 C          63.5213   84.2458   13.0107 C.3     1  UNL1        0.1783
     33 O          63.0036   84.3220   11.7196 O.3     1  UNL1       -0.3266
     34 C          61.7290   83.7170   11.7826 C.3     1  UNL1        0.2315
     35 O          61.2279   83.8451   13.0952 O.3     1  UNL1       -0.3254
     36 C          61.8504   82.2487   11.3453 C.ar    1  UNL1        0.0410
     37 C          63.0206   81.8643   10.6555 C.ar    1  UNL1        0.0022
     38 C          63.2198   80.5447   10.2502 C.ar    1  UNL1        0.0113
     39 C          62.2552   79.5777   10.5217 C.ar    1  UNL1        0.0585
     40 CL         62.5156   77.9155   10.0255 Cl      1  UNL1       -0.0822
     41 C          61.0738   79.9374   11.1705 C.ar    1  UNL1        0.0226
     42 C          60.8464   81.2635   11.5625 C.ar    1  UNL1        0.0591
     43 CL         59.2697   81.6087   12.2691 Cl      1  UNL1       -0.0824
     44 C          60.8052   84.4793   10.8145 C.3     1  UNL1        0.1914
     45 N          61.3763   84.5896    9.4682 N.ar    1  UNL1       -0.2079
     46 N          62.3821   85.3873    9.1573 N.ar    1  UNL1       -0.0427
     47 N          62.6321   85.2820    7.8616 N.ar    1  UNL1       -0.0227
     48 N          61.7913   84.4204    7.3070 N.ar    1  UNL1       -0.1081
     49 C          61.0059   83.9926    8.3143 C.ar    1  UNL1        0.1837
     50 C          59.9121   83.0096    8.1406 C.ar    1  UNL1        0.0357
     51 C          60.2352   81.7009    7.7426 C.ar    1  UNL1        0.0029
     52 C          59.2359   80.7487    7.5450 C.ar    1  UNL1        0.0001
     53 C          57.8975   81.0981    7.7064 C.ar    1  UNL1       -0.0002
     54 C          57.5523   82.4033    8.0577 C.ar    1  UNL1       -0.0018
     55 C          58.5465   83.3742    8.2934 C.ar    1  UNL1        0.0103
     56 C          58.1340   84.7989    8.6021 C.3     1  UNL1        0.1688
     57 O          56.9699   84.8194    9.4034 O.3     1  UNL1       -0.3463
     58 C          57.3189   84.5689   10.7463 C.3     1  UNL1        0.1746
@<TRIPOS>BOND
     1    28    29    1
     2    29    26    1
     3    26    27    1
     4    26    20    1
     5    20    21   ar
     6    21    22   ar
     7    22    23   ar
     8    23    14    1
     9    14    15   ar
    10    15    16   ar
    11    16    17   ar
    12    17     8    1
    13     8     9    1
    14     9    10    1
    15    10    11    1
    16    11     2    1
    17     2     3   ar
    18     3     4   ar
    19     4     5   ar
    20     5     1    1
    21     1    30    1
    22    30    31    1
    23    31    32    1
    24    32    33    1
    25    33    34    1
    26    34    44    1
    27    44    45    1
    28    45    46   ar
    29    46    47   ar
    30    47    48   ar
    31    48    49   ar
    32    49    50    1
    33    50    51   ar
    34    51    52   ar
    35    52    53   ar
    36    53    54   ar
    37    54    55   ar
    38    55    56    1
    39    56    57    1
    40    57    58    1
    41    34    36    1
    42    36    37   ar
    43    37    38   ar
    44    38    39   ar
    45    39    40    1
    46    39    41   ar
    47    41    42   ar
    48    42    43    1
    49    34    35    1
    50     5     6   ar
    51     6     7   ar
    52    11    12    1
    53    12    13    1
    54    17    18   ar
    55    18    19   ar
    56    23    24   ar
    57    24    25    2
    58    24    20   ar
    59    19    14   ar
    60    13     8    1
    61     7     2   ar
    62    35    31    1
    63    49    45   ar
    64    55    50   ar
    65    42    36   ar
@<TRIPOS>MOLECULE
*****
 58 65 0 0 0
SMALL
GASTEIGER

@<TRIPOS>ATOM
      1 O          59.6404   81.6130   12.1391 O.3     1  UNL1       -0.4727
      2 C          59.4672   85.0348    9.6675 C.ar    1  UNL1        0.0481
      3 C          60.2416   83.9303    9.2750 C.ar    1  UNL1        0.0176
      4 C          60.3065   82.7856   10.0737 C.ar    1  UNL1        0.0382
      5 C          59.5870   82.7215   11.2805 C.ar    1  UNL1        0.1388
      6 C          58.7798   83.8023   11.6496 C.ar    1  UNL1        0.0382
      7 C          58.7250   84.9528   10.8587 C.ar    1  UNL1        0.0176
      8 N          59.5605   88.5288    7.1805 N.pl3   1  UNL1       -0.3041
      9 C          58.7014   87.3879    6.8249 C.3     1  UNL1        0.1122
     10 C          58.2855   86.5877    8.0629 C.3     1  UNL1        0.1122
     11 N          59.4599   86.2418    8.8753 N.pl3   1  UNL1       -0.3041
     12 C          60.5823   87.1868    8.9865 C.3     1  UNL1        0.1122
     13 C          60.1900   88.5878    8.5079 C.3     1  UNL1        0.1122
     14 C          59.9727   91.7973    4.4589 C.ar    1  UNL1        0.0699
     15 C          58.7062   91.4191    4.9342 C.ar    1  UNL1        0.0190
     16 C          58.5717   90.3496    5.8238 C.ar    1  UNL1        0.0160
     17 C          59.7006   89.6335    6.2591 C.ar    1  UNL1        0.0480
     18 C          60.9687   90.0205    5.7901 C.ar    1  UNL1        0.0160
     19 C          61.1028   91.0914    4.9024 C.ar    1  UNL1        0.0190
     20 N          60.7943   94.2337    1.8997 N.ar    1  UNL1       -0.2024
     21 N          59.8519   94.8921    2.5590 N.ar    1  UNL1       -0.1442
     22 C          59.4474   94.0772    3.5577 C.ar    1  UNL1        0.2073
     23 N          60.1186   92.9026    3.5462 N.ar    1  UNL1       -0.2398
     24 C          60.9572   93.0413    2.5003 C.ar    1  UNL1        0.3522
     25 O          61.8142   92.1847    2.1521 O.2     1  UNL1       -0.2444
     26 C          61.5408   94.7690    0.7559 C.3     1  UNL1        0.1099
     27 C          63.0407   94.7557    1.0634 C.3     1  UNL1        0.0265
     28 C          59.8333   93.3558   -0.4908 C.3     1  UNL1        0.0021
     29 C          61.2379   93.9568   -0.5170 C.3     1  UNL1        0.0245
     30 C          60.8163   80.8735   12.4786 C.3     1  UNL1        0.2374
     31 C          61.8585   81.7540   13.1899 C.3     1  UNL1        0.1909
     32 C          61.6193   81.8655   14.6787 C.3     1  UNL1        0.1783
     33 O          61.4278   83.2199   14.9426 O.3     1  UNL1       -0.3266
     34 C          61.9293   83.9039   13.8133 C.3     1  UNL1        0.2315
     35 O          61.8353   83.0573   12.6886 O.3     1  UNL1       -0.3254
     36 C          63.3754   84.3412   14.0951 C.ar    1  UNL1        0.0410
     37 C          63.6278   85.0374   15.2969 C.ar    1  UNL1        0.0022
     38 C          64.9175   85.4432   15.6395 C.ar    1  UNL1        0.0113
     39 C          65.9856   85.1658   14.7902 C.ar    1  UNL1        0.0585
     40 CL         67.6090   85.6627   15.2312 Cl      1  UNL1       -0.0822
     41 C          65.7589   84.5104   13.5797 C.ar    1  UNL1        0.0226
     42 C          64.4660   84.1178   13.2082 C.ar    1  UNL1        0.0591
     43 CL         64.2978   83.4024   11.6069 Cl      1  UNL1       -0.0824
     44 C          61.0403   85.1411   13.5877 C.3     1  UNL1        0.1914
     45 N          61.0709   86.0656   14.7257 N.ar    1  UNL1       -0.2079
     46 N          60.8109   85.7104   15.9711 N.ar    1  UNL1       -0.0427
     47 N          60.8851   86.7789   16.7492 N.ar    1  UNL1       -0.0227
     48 N          61.1880   87.8465   16.0243 N.ar    1  UNL1       -0.1081
     49 C          61.2999   87.3966   14.7596 C.ar    1  UNL1        0.1837
     50 C          61.6304   88.2650   13.6065 C.ar    1  UNL1        0.0357
     51 C          62.9822   88.4969   13.2996 C.ar    1  UNL1        0.0029
     52 C          63.3398   89.3258   12.2368 C.ar    1  UNL1        0.0001
     53 C          62.3545   89.9640   11.4876 C.ar    1  UNL1       -0.0002
     54 C          61.0077   89.7828   11.8034 C.ar    1  UNL1       -0.0018
     55 C          60.6216   88.9250   12.8529 C.ar    1  UNL1        0.0103
     56 C          59.1550   88.8082   13.2145 C.3     1  UNL1        0.1688
     57 O          58.6504   87.5391   12.8507 O.3     1  UNL1       -0.3463
     58 C          57.3154   87.4207   13.2884 C.3     1  UNL1        0.1746
@<TRIPOS>BOND
     1    28    29    1
     2    29    26    1
     3    26    27    1
     4    26    20    1
     5    20    21   ar
     6    21    22   ar
     7    22    23   ar
     8    23    14    1
     9    14    15   ar
    10    15    16   ar
    11    16    17   ar
    12    17     8    1
    13     8     9    1
    14     9    10    1
    15    10    11    1
    16    11     2    1
    17     2     3   ar
    18     3     4   ar
    19     4     5   ar
    20     5     1    1
    21     1    30    1
    22    30    31    1
    23    31    32    1
    24    32    33    1
    25    33    34    1
    26    34    44    1
    27    44    45    1
    28    45    46   ar
    29    46    47   ar
    30    47    48   ar
    31    48    49   ar
    32    49    50    1
    33    50    51   ar
    34    51    52   ar
    35    52    53   ar
    36    53    54   ar
    37    54    55   ar
    38    55    56    1
    39    56    57    1
    40    57    58    1
    41    34    36    1
    42    36    37   ar
    43    37    38   ar
    44    38    39   ar
    45    39    40    1
    46    39    41   ar
    47    41    42   ar
    48    42    43    1
    49    34    35    1
    50     5     6   ar
    51     6     7   ar
    52    11    12    1
    53    12    13    1
    54    17    18   ar
    55    18    19   ar
    56    23    24   ar
    57    24    25    2
    58    24    20   ar
    59    19    14   ar
    60    13     8    1
    61     7     2   ar
    62    35    31    1
    63    49    45   ar
    64    55    50   ar
    65    42    36   ar
@<TRIPOS>MOLECULE
*****
 58 65 0 0 0
SMALL
GASTEIGER

@<TRIPOS>ATOM
      1 O          61.9128   85.7888   15.3777 O.3     1  UNL1       -0.4727
      2 C          60.8890   87.8427   11.8308 C.ar    1  UNL1        0.0481
      3 C          59.8746   87.3270   12.6548 C.ar    1  UNL1        0.0176
      4 C          60.1910   86.6512   13.8361 C.ar    1  UNL1        0.0382
      5 C          61.5338   86.4868   14.2210 C.ar    1  UNL1        0.1388
      6 C          62.5423   87.0395   13.4251 C.ar    1  UNL1        0.0382
      7 C          62.2278   87.7033   12.2365 C.ar    1  UNL1        0.0176
      8 N          60.1033   89.7088    8.0489 N.pl3   1  UNL1       -0.3041
      9 C          60.2685   88.2489    8.1357 C.3     1  UNL1        0.1122
     10 C          59.8786   87.7183    9.5186 C.3     1  UNL1        0.1122
     11 N          60.5605   88.4770   10.5760 N.pl3   1  UNL1       -0.3041
     12 C          60.7967   89.9200   10.4114 C.3     1  UNL1        0.1122
     13 C          59.9509   90.5043    9.2760 C.3     1  UNL1        0.1122
     14 C          59.7724   91.5797    4.2214 C.ar    1  UNL1        0.0699
     15 C          58.6242   91.2947    4.9786 C.ar    1  UNL1        0.0190
     16 C          58.7327   90.6821    6.2302 C.ar    1  UNL1        0.0160
     17 C          59.9921   90.3407    6.7538 C.ar    1  UNL1        0.0480
     18 C          61.1410   90.6364    5.9985 C.ar    1  UNL1        0.0160
     19 C          61.0319   91.2510    4.7483 C.ar    1  UNL1        0.0190
     20 N          60.1243   93.2885    1.0407 N.ar    1  UNL1       -0.2024
     21 N          58.8205   93.0510    1.0384 N.ar    1  UNL1       -0.1442
     22 C          58.5512   92.4004    2.1913 C.ar    1  UNL1        0.2073
     23 N          59.6674   92.2164    2.9331 N.ar    1  UNL1       -0.2398
     24 C          60.6289   92.7921    2.1844 C.ar    1  UNL1        0.3522
     25 O          61.8382   92.8923    2.5266 O.2     1  UNL1       -0.2444
     26 C          60.8414   94.0156   -0.0125 C.3     1  UNL1        0.1099
     27 C          61.9316   94.8910    0.6116 C.3     1  UNL1        0.0265
     28 C          62.7202   93.5875   -1.6719 C.3     1  UNL1        0.0021
     29 C          61.4476   93.0339   -1.0324 C.3     1  UNL1        0.0245
     30 C          63.0779   84.9717   15.5179 C.3     1  UNL1        0.2374
     31 C          63.1742   83.9187   14.4002 C.3     1  UNL1        0.1909
     32 C          64.2007   84.2689   13.3466 C.3     1  UNL1        0.1783
     33 O          63.5070   84.3626   12.1422 O.3     1  UNL1       -0.3266
     34 C          62.2724   83.7123   12.3606 C.3     1  UNL1        0.2315
     35 O          61.9544   83.7869   13.7331 O.3     1  UNL1       -0.3254
     36 C          62.3768   82.2617   11.8641 C.ar    1  UNL1        0.0410
     37 C          62.0678   81.2315   12.7785 C.ar    1  UNL1        0.0022
     38 C          62.1106   79.8905   12.3975 C.ar    1  UNL1        0.0113
     39 C          62.4646   79.5453   11.0957 C.ar    1  UNL1        0.0585
     40 CL         62.5015   77.8589   10.6145 Cl      1  UNL1       -0.0822
     41 C          62.8090   80.5415   10.1818 C.ar    1  UNL1        0.0226
     42 C          62.7956   81.8922   10.5549 C.ar    1  UNL1        0.0591
     43 CL         63.3603   83.0414    9.3446 Cl      1  UNL1       -0.0824
     44 C          61.2005   84.4684   11.5537 C.3     1  UNL1        0.1914
     45 N          59.8540   83.9303   11.7727 N.ar    1  UNL1       -0.2079
     46 N          59.2133   83.9939   12.9261 N.ar    1  UNL1       -0.0427
     47 N          58.0433   83.3866   12.8040 N.ar    1  UNL1       -0.0227
     48 N          57.9052   82.9132   11.5737 N.ar    1  UNL1       -0.1081
     49 C          59.0409   83.2523   10.9335 C.ar    1  UNL1        0.1837
     50 C          59.3159   82.9159    9.5178 C.ar    1  UNL1        0.0357
     51 C          59.8866   83.8962    8.6878 C.ar    1  UNL1        0.0029
     52 C          60.1419   83.6308    7.3429 C.ar    1  UNL1        0.0001
     53 C          59.7983   82.3963    6.7979 C.ar    1  UNL1       -0.0002
     54 C          59.1901   81.4248    7.5933 C.ar    1  UNL1       -0.0018
     55 C          58.9512   81.6590    8.9625 C.ar    1  UNL1        0.0103
     56 C          58.2238   80.6104    9.7789 C.3     1  UNL1        0.1688
     57 O          59.1398   79.8332   10.5236 O.3     1  UNL1       -0.3463
     58 C          58.5529   79.4620   11.7506 C.3     1  UNL1        0.1746
@<TRIPOS>BOND
     1    28    29    1
     2    29    26    1
     3    26    27    1
     4    26    20    1
     5    20    21   ar
     6    21    22   ar
     7    22    23   ar
     8    23    14    1
     9    14    15   ar
    10    15    16   ar
    11    16    17   ar
    12    17     8    1
    13     8     9    1
    14     9    10    1
    15    10    11    1
    16    11     2    1
    17     2     3   ar
    18     3     4   ar
    19     4     5   ar
    20     5     1    1
    21     1    30    1
    22    30    31    1
    23    31    32    1
    24    32    33    1
    25    33    34    1
    26    34    44    1
    27    44    45    1
    28    45    46   ar
    29    46    47   ar
    30    47    48   ar
    31    48    49   ar
    32    49    50    1
    33    50    51   ar
    34    51    52   ar
    35    52    53   ar
    36    53    54   ar
    37    54    55   ar
    38    55    56    1
    39    56    57    1
    40    57    58    1
    41    34    36    1
    42    36    37   ar
    43    37    38   ar
    44    38    39   ar
    45    39    40    1
    46    39    41   ar
    47    41    42   ar
    48    42    43    1
    49    34    35    1
    50     5     6   ar
    51     6     7   ar
    52    11    12    1
    53    12    13    1
    54    17    18   ar
    55    18    19   ar
    56    23    24   ar
    57    24    25    2
    58    24    20   ar
    59    19    14   ar
    60    13     8    1
    61     7     2   ar
    62    35    31    1
    63    49    45   ar
    64    55    50   ar
    65    42    36   ar
