@<TRIPOS>MOLECULE
*****
 37 41 0 0 0
SMALL
GASTEIGER

@<TRIPOS>ATOM
      1 C          47.0441   13.7187  -23.1296 C.2     1  UNL1        0.2491
      2 O          45.9404   13.1234  -23.2676 O.2     1  UNL1       -0.2699
      3 N          47.9881   13.2372  -22.1573 N.am    1  UNL1       -0.2760
      4 C          48.4630   14.1418  -21.1041 C.3     1  UNL1        0.0954
      5 C          49.9020   13.7929  -20.6981 C.3     1  UNL1        0.0399
      6 C          50.1122   12.2829  -20.3997 C.3     1  UNL1        0.0645
      7 C          49.5733   11.4492  -21.5910 C.3     1  UNL1        0.0399
      8 C          48.1225   11.7941  -21.9427 C.3     1  UNL1        0.0954
      9 C          49.3818   11.8596  -19.0728 C.3     1  UNL1        0.0474
     10 C          50.1313   12.3404  -17.8600 C.ar    1  UNL1        0.0188
     11 C          51.4792   12.5019  -17.8530 C.ar    1  UNL1        0.1512
     12 N          51.9224   12.7463  -16.6121 N.ar    1  UNL1       -0.1653
     13 N          50.8713   12.7585  -15.7953 N.ar    1  UNL1       -0.2564
     14 C          49.7502   12.4717  -16.5336 C.ar    1  UNL1        0.0826
     15 C          52.2716   12.3132  -19.0579 C.2     1  UNL1        0.2649
     16 O          53.5297   12.3596  -19.0286 O.2     1  UNL1       -0.2684
     17 N          51.5705   12.0445  -20.2809 N.am    1  UNL1       -0.3023
     18 H          52.1371   11.8547  -21.1389 H       1  UNL1        0.1497
     19 C          50.5457   18.0745  -25.6738 C.ar    1  UNL1        0.2249
     20 C          49.5630   18.6910  -26.4547 C.ar    1  UNL1        0.0577
     21 C          48.2549   18.2023  -26.4315 C.ar    1  UNL1        0.0063
     22 C          47.9373   17.1007  -25.6271 C.ar    1  UNL1        0.0179
     23 C          46.6371   16.5816  -25.5827 C.ar    1  UNL1        0.0016
     24 C          46.3496   15.4811  -24.7694 C.ar    1  UNL1        0.0046
     25 C          47.3551   14.8890  -23.9837 C.ar    1  UNL1        0.0551
     26 C          48.6628   15.4043  -24.0408 C.ar    1  UNL1        0.0237
     27 C          48.9551   16.5055  -24.8519 C.ar    1  UNL1        0.0845
     28 N          50.2202   17.0032  -24.8966 N.ar    1  UNL1       -0.2117
     29 C          52.6638   18.6628  -24.5357 C.3     1  UNL1        0.2542
     30 O          51.8534   18.5676  -25.7011 O.3     1  UNL1       -0.4561
     31 C          51.0498   12.9031  -14.3254 C.3     1  UNL1        0.0864
     32 C          52.4775   13.4262  -14.0312 C.3     1  UNL1        0.0244
     33 C          50.8932   11.5266  -13.6549 C.3     1  UNL1        0.0244
     34 C          50.0577   13.9104  -13.7044 C.3     1  UNL1        0.0244
     35 C          48.3469   12.2481  -16.0331 C.3     1  UNL1        0.1822
     36 O          48.0618   10.8794  -15.9948 O.3     1  UNL1       -0.3760
     37 H          47.1541   10.7969  -15.6021 H       1  UNL1        0.2110
@<TRIPOS>BOND
     1    29    30    1
     2    30    19    1
     3    19    20   ar
     4    20    21   ar
     5    21    22   ar
     6    22    23   ar
     7    23    24   ar
     8    24    25   ar
     9    25     1    1
    10     1     2    2
    11     1     3   am
    12     3     4    1
    13     4     5    1
    14     5     6    1
    15     6     7    1
    16     7     8    1
    17     6     9    1
    18     9    10    1
    19    10    11   ar
    20    11    12   ar
    21    12    13   ar
    22    13    31    1
    23    31    32    1
    24    31    33    1
    25    31    34    1
    26    13    14   ar
    27    14    35    1
    28    35    36    1
    29    11    15    1
    30    15    16    2
    31    15    17   am
    32    25    26   ar
    33    26    27   ar
    34    27    28   ar
    35    28    19   ar
    36    27    22   ar
    37     8     3    1
    38    14    10   ar
    39    17     6    1
    40    36    37    1
    41    17    18    1
@<TRIPOS>MOLECULE
*****
 37 41 0 0 0
SMALL
GASTEIGER

@<TRIPOS>ATOM
      1 C          51.9712   10.4183  -27.1015 C.2     1  UNL1        0.2491
      2 O          53.2293   10.4712  -27.0246 O.2     1  UNL1       -0.2699
      3 N          51.1758   11.2067  -26.1991 N.am    1  UNL1       -0.2760
      4 C          50.1910   10.5423  -25.3378 C.3     1  UNL1        0.0954
      5 C          48.9940   11.4659  -25.0707 C.3     1  UNL1        0.0399
      6 C          49.4031   12.8915  -24.6085 C.3     1  UNL1        0.0645
      7 C          50.4376   13.4726  -25.6069 C.3     1  UNL1        0.0399
      8 C          51.6377   12.5440  -25.8186 C.3     1  UNL1        0.0954
      9 C          50.0110   12.8652  -23.1583 C.3     1  UNL1        0.0474
     10 C          48.9368   12.6917  -22.1192 C.ar    1  UNL1        0.0188
     11 C          47.6692   13.1430  -22.2992 C.ar    1  UNL1        0.1512
     12 N          46.9634   13.0437  -21.1643 N.ar    1  UNL1       -0.1653
     13 N          47.7554   12.5174  -20.2326 N.ar    1  UNL1       -0.2564
     14 C          48.9974   12.3237  -20.7839 C.ar    1  UNL1        0.0826
     15 C          47.2474   13.7368  -23.5582 C.2     1  UNL1        0.2649
     16 O          46.1050   14.2499  -23.6903 O.2     1  UNL1       -0.2684
     17 N          48.1897   13.7426  -24.6406 N.am    1  UNL1       -0.3023
     18 H          47.9110   14.2160  -25.5302 H       1  UNL1        0.1497
     19 C          51.7272    6.7695  -32.0345 C.ar    1  UNL1        0.2249
     20 C          50.3505    6.5246  -32.0348 C.ar    1  UNL1        0.0577
     21 C          49.5461    7.1005  -31.0489 C.ar    1  UNL1        0.0063
     22 C          50.1232    7.9183  -30.0694 C.ar    1  UNL1        0.0179
     23 C          49.3475    8.5086  -29.0635 C.ar    1  UNL1        0.0016
     24 C          49.9516    9.3212  -28.0991 C.ar    1  UNL1        0.0046
     25 C          51.3373    9.5615  -28.1311 C.ar    1  UNL1        0.0551
     26 C          52.1155    8.9563  -29.1347 C.ar    1  UNL1        0.0237
     27 C          51.5158    8.1436  -30.1020 C.ar    1  UNL1        0.0845
     28 N          52.2732    7.5677  -31.0740 N.ar    1  UNL1       -0.2117
     29 C          53.9438    6.1079  -32.9159 C.3     1  UNL1        0.2542
     30 O          52.5276    6.1902  -33.0233 O.3     1  UNL1       -0.4561
     31 C          47.2891   12.3763  -18.8269 C.3     1  UNL1        0.0864
     32 C          47.7986   11.0325  -18.2500 C.3     1  UNL1        0.0244
     33 C          45.7503   12.3602  -18.7992 C.3     1  UNL1        0.0244
     34 C          47.8233   13.4984  -17.9102 C.3     1  UNL1        0.0244
     35 C          50.2559   11.8722  -20.0897 C.3     1  UNL1        0.1822
     36 O          50.5211   10.5336  -20.3964 O.3     1  UNL1       -0.3760
     37 H          51.3871   10.3170  -19.9627 H       1  UNL1        0.2110
@<TRIPOS>BOND
     1    29    30    1
     2    30    19    1
     3    19    20   ar
     4    20    21   ar
     5    21    22   ar
     6    22    23   ar
     7    23    24   ar
     8    24    25   ar
     9    25     1    1
    10     1     2    2
    11     1     3   am
    12     3     4    1
    13     4     5    1
    14     5     6    1
    15     6     7    1
    16     7     8    1
    17     6     9    1
    18     9    10    1
    19    10    11   ar
    20    11    12   ar
    21    12    13   ar
    22    13    31    1
    23    31    32    1
    24    31    33    1
    25    31    34    1
    26    13    14   ar
    27    14    35    1
    28    35    36    1
    29    11    15    1
    30    15    16    2
    31    15    17   am
    32    25    26   ar
    33    26    27   ar
    34    27    28   ar
    35    28    19   ar
    36    27    22   ar
    37     8     3    1
    38    14    10   ar
    39    17     6    1
    40    36    37    1
    41    17    18    1
@<TRIPOS>MOLECULE
*****
 37 41 0 0 0
SMALL
GASTEIGER

@<TRIPOS>ATOM
      1 C          50.0686   11.7311  -19.1366 C.2     1  UNL1        0.2491
      2 O          51.1919   11.1680  -19.2485 O.2     1  UNL1       -0.2699
      3 N          49.2073   11.8204  -20.2849 N.am    1  UNL1       -0.2760
      4 C          48.7469   13.1372  -20.7400 C.3     1  UNL1        0.0954
      5 C          47.3531   13.0342  -21.3756 C.3     1  UNL1        0.0399
      6 C          47.2382   11.9047  -22.4360 C.3     1  UNL1        0.0645
      7 C          47.7511   10.5763  -21.8218 C.3     1  UNL1        0.0399
      8 C          49.1599   10.7048  -21.2334 C.3     1  UNL1        0.0954
      9 C          48.0635   12.2537  -23.7285 C.3     1  UNL1        0.0474
     10 C          47.3601   13.2904  -24.5618 C.ar    1  UNL1        0.0188
     11 C          46.0083   13.4124  -24.5847 C.ar    1  UNL1        0.1512
     12 N          45.6241   14.2672  -25.5425 N.ar    1  UNL1       -0.1653
     13 N          46.7178   14.7223  -26.1499 N.ar    1  UNL1       -0.2564
     14 C          47.8085   14.1056  -25.5895 C.ar    1  UNL1        0.0826
     15 C          45.1596   12.6065  -23.7210 C.2     1  UNL1        0.2649
     16 O          43.9045   12.6437  -23.8163 O.2     1  UNL1       -0.2684
     17 N          45.8033   11.7441  -22.7716 N.am    1  UNL1       -0.3023
     18 H          45.1995   11.1231  -22.1859 H       1  UNL1        0.1497
     19 C          46.9582   15.3215  -15.2454 C.ar    1  UNL1        0.2249
     20 C          47.4855   14.8248  -14.0493 C.ar    1  UNL1        0.0577
     21 C          48.4326   13.7990  -14.0851 C.ar    1  UNL1        0.0063
     22 C          48.8471   13.2768  -15.3167 C.ar    1  UNL1        0.0179
     23 C          49.7917   12.2450  -15.3898 C.ar    1  UNL1        0.0016
     24 C          50.1869   11.7440  -16.6340 C.ar    1  UNL1        0.0046
     25 C          49.6499   12.2720  -17.8221 C.ar    1  UNL1        0.0551
     26 C          48.6915   13.2989  -17.7448 C.ar    1  UNL1        0.0237
     27 C          48.2937   13.8040  -16.5028 C.ar    1  UNL1        0.0845
     28 N          47.3721   14.8021  -16.4356 N.ar    1  UNL1       -0.2117
     29 C          44.7066   16.2139  -15.7572 C.3     1  UNL1        0.2542
     30 O          46.0103   16.3480  -15.2037 O.3     1  UNL1       -0.4561
     31 C          46.6156   15.6165  -27.3345 C.3     1  UNL1        0.0864
     32 C          45.4261   16.5893  -27.1417 C.3     1  UNL1        0.0244
     33 C          46.3466   14.7695  -28.5911 C.3     1  UNL1        0.0244
     34 C          47.8812   16.4777  -27.5376 C.3     1  UNL1        0.0244
     35 C          49.2475   14.1987  -26.0256 C.3     1  UNL1        0.1822
     36 O          49.9844   14.9430  -25.0987 O.3     1  UNL1       -0.3760
     37 H          50.9268   14.9154  -25.4085 H       1  UNL1        0.2110
@<TRIPOS>BOND
     1    29    30    1
     2    30    19    1
     3    19    20   ar
     4    20    21   ar
     5    21    22   ar
     6    22    23   ar
     7    23    24   ar
     8    24    25   ar
     9    25     1    1
    10     1     2    2
    11     1     3   am
    12     3     4    1
    13     4     5    1
    14     5     6    1
    15     6     7    1
    16     7     8    1
    17     6     9    1
    18     9    10    1
    19    10    11   ar
    20    11    12   ar
    21    12    13   ar
    22    13    31    1
    23    31    32    1
    24    31    33    1
    25    31    34    1
    26    13    14   ar
    27    14    35    1
    28    35    36    1
    29    11    15    1
    30    15    16    2
    31    15    17   am
    32    25    26   ar
    33    26    27   ar
    34    27    28   ar
    35    28    19   ar
    36    27    22   ar
    37     8     3    1
    38    14    10   ar
    39    17     6    1
    40    36    37    1
    41    17    18    1
@<TRIPOS>MOLECULE
*****
 37 41 0 0 0
SMALL
GASTEIGER

@<TRIPOS>ATOM
      1 C          51.1184   12.4475  -24.1571 C.2     1  UNL1        0.2491
      2 O          51.9710   13.3214  -24.4749 O.2     1  UNL1       -0.2699
      3 N          50.3896   12.5886  -22.9254 N.am    1  UNL1       -0.2760
      4 C          50.4458   11.5144  -21.9273 C.3     1  UNL1        0.0954
      5 C          49.1319   11.4399  -21.1366 C.3     1  UNL1        0.0399
      6 C          48.6626   12.8142  -20.5847 C.3     1  UNL1        0.0645
      7 C          48.6452   13.8474  -21.7410 C.3     1  UNL1        0.0399
      8 C          49.9840   13.9247  -22.4819 C.3     1  UNL1        0.0954
      9 C          49.6065   13.3144  -19.4304 C.3     1  UNL1        0.0474
     10 C          49.3506   12.5634  -18.1521 C.ar    1  UNL1        0.0188
     11 C          48.1326   12.0520  -17.8387 C.ar    1  UNL1        0.1512
     12 N          48.1147   11.6070  -16.5748 N.ar    1  UNL1       -0.1653
     13 N          49.3209   11.8113  -16.0500 N.ar    1  UNL1       -0.2564
     14 C          50.0985   12.4382  -16.9916 C.ar    1  UNL1        0.0826
     15 C          47.0206   12.1148  -18.7740 C.2     1  UNL1        0.2649
     16 O          45.8655   11.7361  -18.4449 O.2     1  UNL1       -0.2684
     17 N          47.2784   12.6499  -20.0804 N.am    1  UNL1       -0.3023
     18 H          46.4713   12.7472  -20.7379 H       1  UNL1        0.1497
     19 C          48.4330    9.3610  -28.7364 C.ar    1  UNL1        0.2249
     20 C          49.1766    8.1803  -28.6455 C.ar    1  UNL1        0.0577
     21 C          50.1747    8.0654  -27.6754 C.ar    1  UNL1        0.0063
     22 C          50.4225    9.1316  -26.8017 C.ar    1  UNL1        0.0179
     23 C          51.4184    9.0526  -25.8198 C.ar    1  UNL1        0.0016
     24 C          51.6427   10.1331  -24.9611 C.ar    1  UNL1        0.0046
     25 C          50.8702   11.3040  -25.0664 C.ar    1  UNL1        0.0551
     26 C          49.8799   11.3852  -26.0623 C.ar    1  UNL1        0.0237
     27 C          49.6511   10.3068  -26.9228 C.ar    1  UNL1        0.0845
     28 N          48.6869   10.3894  -27.8787 N.ar    1  UNL1       -0.2117
     29 C          46.6391   10.6392  -29.8661 C.3     1  UNL1        0.2542
     30 O          47.4355    9.4707  -29.7095 O.3     1  UNL1       -0.4561
     31 C          49.5889   11.5150  -14.6169 C.3     1  UNL1        0.0864
     32 C          48.3126   10.9249  -13.9679 C.3     1  UNL1        0.0244
     33 C          49.9427   12.8211  -13.8836 C.3     1  UNL1        0.0244
     34 C          50.7181   10.4789  -14.4273 C.3     1  UNL1        0.0244
     35 C          51.4918   12.9859  -16.8228 C.3     1  UNL1        0.1822
     36 O          52.3939   12.2557  -17.6032 O.3     1  UNL1       -0.3760
     37 H          53.2747   12.7004  -17.4968 H       1  UNL1        0.2110
@<TRIPOS>BOND
     1    29    30    1
     2    30    19    1
     3    19    20   ar
     4    20    21   ar
     5    21    22   ar
     6    22    23   ar
     7    23    24   ar
     8    24    25   ar
     9    25     1    1
    10     1     2    2
    11     1     3   am
    12     3     4    1
    13     4     5    1
    14     5     6    1
    15     6     7    1
    16     7     8    1
    17     6     9    1
    18     9    10    1
    19    10    11   ar
    20    11    12   ar
    21    12    13   ar
    22    13    31    1
    23    31    32    1
    24    31    33    1
    25    31    34    1
    26    13    14   ar
    27    14    35    1
    28    35    36    1
    29    11    15    1
    30    15    16    2
    31    15    17   am
    32    25    26   ar
    33    26    27   ar
    34    27    28   ar
    35    28    19   ar
    36    27    22   ar
    37     8     3    1
    38    14    10   ar
    39    17     6    1
    40    36    37    1
    41    17    18    1
@<TRIPOS>MOLECULE
*****
 37 41 0 0 0
SMALL
GASTEIGER

@<TRIPOS>ATOM
      1 C          46.9088   12.3221  -23.5231 C.2     1  UNL1        0.2491
      2 O          46.0216   11.4411  -23.6909 O.2     1  UNL1       -0.2699
      3 N          47.8955   12.1418  -22.4924 N.am    1  UNL1       -0.2760
      4 C          48.0446   13.1642  -21.4505 C.3     1  UNL1        0.0954
      5 C          49.4999   13.2371  -20.9670 C.3     1  UNL1        0.0399
      6 C          50.1029   11.8513  -20.6071 C.3     1  UNL1        0.0645
      7 C          49.8801   10.8764  -21.7924 C.3     1  UNL1        0.0399
      8 C          48.4116   10.7976  -22.2220 C.3     1  UNL1        0.0954
      9 C          49.4478   11.2692  -19.3013 C.3     1  UNL1        0.0474
     10 C          49.9689   11.9641  -18.0727 C.ar    1  UNL1        0.0188
     11 C          51.2173   12.4936  -18.0094 C.ar    1  UNL1        0.1512
     12 N          51.5084   12.8770  -16.7587 N.ar    1  UNL1       -0.1653
     13 N          50.4525   12.6135  -15.9920 N.ar    1  UNL1       -0.2564
     14 C          49.4956   12.0115  -16.7705 C.ar    1  UNL1        0.0826
     15 C          52.0946   12.5077  -19.1695 C.2     1  UNL1        0.2649
     16 O          53.2874   12.9023  -19.0840 O.2     1  UNL1       -0.2684
     17 N          51.5617   12.0297  -20.4133 N.am    1  UNL1       -0.3023
     18 H          52.2040   11.9872  -21.2373 H       1  UNL1        0.1497
     19 C          49.3855   17.0538  -26.5538 C.ar    1  UNL1        0.2249
     20 C          48.2199   17.5391  -27.1547 C.ar    1  UNL1        0.0577
     21 C          47.0030   16.8942  -26.9229 C.ar    1  UNL1        0.0063
     22 C          46.9590   15.7683  -26.0911 C.ar    1  UNL1        0.0179
     23 C          45.7570   15.0943  -25.8400 C.ar    1  UNL1        0.0016
     24 C          45.7439   13.9733  -25.0044 C.ar    1  UNL1        0.0046
     25 C          46.9296   13.5150  -24.4021 C.ar    1  UNL1        0.0551
     26 C          48.1374   14.1861  -24.6669 C.ar    1  UNL1        0.0237
     27 C          48.1555   15.3084  -25.5012 C.ar    1  UNL1        0.0845
     28 N          49.3256   15.9569  -25.7470 N.ar    1  UNL1       -0.2117
     29 C          51.4787   18.0960  -25.7412 C.3     1  UNL1        0.2542
     30 O          50.6007   17.7030  -26.7895 O.3     1  UNL1       -0.4561
     31 C          50.5050   12.8321  -14.5213 C.3     1  UNL1        0.0864
     32 C          50.2873   11.4823  -13.7941 C.3     1  UNL1        0.0244
     33 C          49.3739   13.7904  -14.1076 C.3     1  UNL1        0.0244
     34 C          51.8675   13.3882  -14.0533 C.3     1  UNL1        0.0244
     35 C          48.1841   11.4173  -16.3276 C.3     1  UNL1        0.1822
     36 O          47.3633   11.1823  -17.4354 O.3     1  UNL1       -0.3760
     37 H          46.5476   10.7380  -17.0859 H       1  UNL1        0.2110
@<TRIPOS>BOND
     1    29    30    1
     2    30    19    1
     3    19    20   ar
     4    20    21   ar
     5    21    22   ar
     6    22    23   ar
     7    23    24   ar
     8    24    25   ar
     9    25     1    1
    10     1     2    2
    11     1     3   am
    12     3     4    1
    13     4     5    1
    14     5     6    1
    15     6     7    1
    16     7     8    1
    17     6     9    1
    18     9    10    1
    19    10    11   ar
    20    11    12   ar
    21    12    13   ar
    22    13    31    1
    23    31    32    1
    24    31    33    1
    25    31    34    1
    26    13    14   ar
    27    14    35    1
    28    35    36    1
    29    11    15    1
    30    15    16    2
    31    15    17   am
    32    25    26   ar
    33    26    27   ar
    34    27    28   ar
    35    28    19   ar
    36    27    22   ar
    37     8     3    1
    38    14    10   ar
    39    17     6    1
    40    36    37    1
    41    17    18    1
@<TRIPOS>MOLECULE
*****
 37 41 0 0 0
SMALL
GASTEIGER

@<TRIPOS>ATOM
      1 C          50.4522    7.7201  -29.1911 C.2     1  UNL1        0.2491
      2 O          49.3491    7.1424  -29.3937 O.2     1  UNL1       -0.2699
      3 N          50.5766    8.6354  -28.0888 N.am    1  UNL1       -0.2760
      4 C          50.9942   10.0188  -28.3442 C.3     1  UNL1        0.0954
      5 C          51.7864   10.5746  -27.1523 C.3     1  UNL1        0.0399
      6 C          51.0852   10.3507  -25.7842 C.3     1  UNL1        0.0645
      7 C          50.7057    8.8534  -25.6462 C.3     1  UNL1        0.0399
      8 C          49.8816    8.3430  -26.8327 C.3     1  UNL1        0.0954
      9 C          49.7989   11.2460  -25.6527 C.3     1  UNL1        0.0474
     10 C          50.1586   12.6821  -25.3843 C.ar    1  UNL1        0.0188
     11 C          51.2861   13.0384  -24.7175 C.ar    1  UNL1        0.1512
     12 N          51.2790   14.3490  -24.4377 N.ar    1  UNL1       -0.1653
     13 N          50.1543   14.8673  -24.9262 N.ar    1  UNL1       -0.2564
     14 C          49.4204   13.8511  -25.4855 C.ar    1  UNL1        0.0826
     15 C          52.2698   12.0483  -24.3081 C.2     1  UNL1        0.2649
     16 O          53.2616   12.3643  -23.5994 O.2     1  UNL1       -0.2684
     17 N          52.0571   10.6894  -24.7174 N.am    1  UNL1       -0.3023
     18 H          52.7318    9.9651  -24.3807 H       1  UNL1        0.1497
     19 C          56.3594    7.1018  -30.7501 C.ar    1  UNL1        0.2249
     20 C          56.1756    6.7064  -32.0788 C.ar    1  UNL1        0.0577
     21 C          54.8820    6.5835  -32.5905 C.ar    1  UNL1        0.0063
     22 C          53.7800    6.8576  -31.7707 C.ar    1  UNL1        0.0179
     23 C          52.4688    6.7406  -32.2494 C.ar    1  UNL1        0.0016
     24 C          51.3882    7.0216  -31.4077 C.ar    1  UNL1        0.0046
     25 C          51.6027    7.4307  -30.0790 C.ar    1  UNL1        0.0551
     26 C          52.9204    7.5342  -29.5974 C.ar    1  UNL1        0.0237
     27 C          54.0045    7.2552  -30.4356 C.ar    1  UNL1        0.0845
     28 N          55.2762    7.3646  -29.9655 N.ar    1  UNL1       -0.2117
     29 C          58.7428    6.4343  -30.7141 C.3     1  UNL1        0.2542
     30 O          57.6563    7.2228  -30.2431 O.3     1  UNL1       -0.4561
     31 C          49.8038   16.2928  -24.6840 C.3     1  UNL1        0.0864
     32 C          51.0925   17.0910  -24.3673 C.3     1  UNL1        0.0244
     33 C          48.8666   16.3878  -23.4669 C.3     1  UNL1        0.0244
     34 C          49.1454   16.9578  -25.9124 C.3     1  UNL1        0.0244
     35 C          48.0249   13.9214  -26.0489 C.3     1  UNL1        0.1822
     36 O          47.0855   13.6952  -25.0378 O.3     1  UNL1       -0.3760
     37 H          46.1939   13.8149  -25.4570 H       1  UNL1        0.2110
@<TRIPOS>BOND
     1    29    30    1
     2    30    19    1
     3    19    20   ar
     4    20    21   ar
     5    21    22   ar
     6    22    23   ar
     7    23    24   ar
     8    24    25   ar
     9    25     1    1
    10     1     2    2
    11     1     3   am
    12     3     4    1
    13     4     5    1
    14     5     6    1
    15     6     7    1
    16     7     8    1
    17     6     9    1
    18     9    10    1
    19    10    11   ar
    20    11    12   ar
    21    12    13   ar
    22    13    31    1
    23    31    32    1
    24    31    33    1
    25    31    34    1
    26    13    14   ar
    27    14    35    1
    28    35    36    1
    29    11    15    1
    30    15    16    2
    31    15    17   am
    32    25    26   ar
    33    26    27   ar
    34    27    28   ar
    35    28    19   ar
    36    27    22   ar
    37     8     3    1
    38    14    10   ar
    39    17     6    1
    40    36    37    1
    41    17    18    1
@<TRIPOS>MOLECULE
*****
 37 41 0 0 0
SMALL
GASTEIGER

@<TRIPOS>ATOM
      1 C          52.4843   11.4756  -26.7766 C.2     1  UNL1        0.2491
      2 O          53.6372   11.9770  -26.6730 O.2     1  UNL1       -0.2699
      3 N          51.4135   11.9973  -25.9707 N.am    1  UNL1       -0.2760
      4 C          50.6780   11.0950  -25.0774 C.3     1  UNL1        0.0954
      5 C          49.2199   11.5515  -24.9265 C.3     1  UNL1        0.0399
      6 C          49.0756   13.0606  -24.5866 C.3     1  UNL1        0.0645
      7 C          49.8946   13.8924  -25.6074 C.3     1  UNL1        0.0399
      8 C          51.3542   13.4365  -25.7027 C.3     1  UNL1        0.0954
      9 C          49.5717   13.3629  -23.1251 C.3     1  UNL1        0.0474
     10 C          48.5703   12.8998  -22.1021 C.ar    1  UNL1        0.0188
     11 C          47.2371   12.8570  -22.3548 C.ar    1  UNL1        0.1512
     12 N          46.5487   12.6012  -21.2338 N.ar    1  UNL1       -0.1653
     13 N          47.4214   12.4631  -20.2381 N.ar    1  UNL1       -0.2564
     14 C          48.6812   12.6809  -20.7376 C.ar    1  UNL1        0.0826
     15 C          46.7052   13.1641  -23.6732 C.2     1  UNL1        0.2649
     16 O          45.4647   13.2270  -23.8807 O.2     1  UNL1       -0.2684
     17 N          47.6446   13.4207  -24.7273 N.am    1  UNL1       -0.3023
     18 H          47.2678   13.6948  -25.6633 H       1  UNL1        0.1497
     19 C          53.9556    7.2619  -30.9942 C.ar    1  UNL1        0.2249
     20 C          52.6823    6.7165  -31.1853 C.ar    1  UNL1        0.0577
     21 C          51.5994    7.2192  -30.4605 C.ar    1  UNL1        0.0063
     22 C          51.7964    8.2646  -29.5497 C.ar    1  UNL1        0.0179
     23 C          50.7342    8.7902  -28.8029 C.ar    1  UNL1        0.0016
     24 C          50.9612    9.8346  -27.9013 C.ar    1  UNL1        0.0046
     25 C          52.2505   10.3734  -27.7391 C.ar    1  UNL1        0.0551
     26 C          53.3175    9.8343  -28.4807 C.ar    1  UNL1        0.0237
     27 C          53.0954    8.7904  -29.3844 C.ar    1  UNL1        0.0845
     28 N          54.1304    8.2789  -30.1037 N.ar    1  UNL1       -0.2117
     29 C          56.3894    6.9732  -31.3422 C.3     1  UNL1        0.2542
     30 O          55.0358    6.7547  -31.7220 O.3     1  UNL1       -0.4561
     31 C          46.9562   12.2741  -18.8376 C.3     1  UNL1        0.0864
     32 C          47.5179   10.9404  -18.2863 C.3     1  UNL1        0.0244
     33 C          45.4193   12.1950  -18.8171 C.3     1  UNL1        0.0244
     34 C          47.4411   13.3976  -17.8956 C.3     1  UNL1        0.0244
     35 C          49.9770   12.7598  -19.9733 C.3     1  UNL1        0.1822
     36 O          50.8181   11.7047  -20.3415 O.3     1  UNL1       -0.3760
     37 H          51.6704   11.8473  -19.8533 H       1  UNL1        0.2110
@<TRIPOS>BOND
     1    29    30    1
     2    30    19    1
     3    19    20   ar
     4    20    21   ar
     5    21    22   ar
     6    22    23   ar
     7    23    24   ar
     8    24    25   ar
     9    25     1    1
    10     1     2    2
    11     1     3   am
    12     3     4    1
    13     4     5    1
    14     5     6    1
    15     6     7    1
    16     7     8    1
    17     6     9    1
    18     9    10    1
    19    10    11   ar
    20    11    12   ar
    21    12    13   ar
    22    13    31    1
    23    31    32    1
    24    31    33    1
    25    31    34    1
    26    13    14   ar
    27    14    35    1
    28    35    36    1
    29    11    15    1
    30    15    16    2
    31    15    17   am
    32    25    26   ar
    33    26    27   ar
    34    27    28   ar
    35    28    19   ar
    36    27    22   ar
    37     8     3    1
    38    14    10   ar
    39    17     6    1
    40    36    37    1
    41    17    18    1
@<TRIPOS>MOLECULE
*****
 37 41 0 0 0
SMALL
GASTEIGER

@<TRIPOS>ATOM
      1 C          46.6225   12.0779  -22.7432 C.2     1  UNL1        0.2491
      2 O          45.7113   11.2056  -22.7579 O.2     1  UNL1       -0.2699
      3 N          47.7156   11.9401  -21.8187 N.am    1  UNL1       -0.2760
      4 C          47.9926   13.0193  -20.8640 C.3     1  UNL1        0.0954
      5 C          49.4936   13.0929  -20.5495 C.3     1  UNL1        0.0399
      6 C          50.1156   11.7195  -20.1746 C.3     1  UNL1        0.0645
      7 C          49.7500   10.6806  -21.2663 C.3     1  UNL1        0.0399
      8 C          48.2418   10.6046  -21.5255 C.3     1  UNL1        0.0954
      9 C          49.6028   11.2285  -18.7713 C.3     1  UNL1        0.0474
     10 C          50.2662   11.9848  -17.6525 C.ar    1  UNL1        0.0188
     11 C          51.5204   12.4931  -17.7600 C.ar    1  UNL1        0.1512
     12 N          51.9538   12.9442  -16.5748 N.ar    1  UNL1       -0.1653
     13 N          50.9867   12.7470  -15.6815 N.ar    1  UNL1       -0.2564
     14 C          49.9416   12.1184  -16.3114 C.ar    1  UNL1        0.0826
     15 C          52.2630   12.4216  -19.0085 C.2     1  UNL1        0.2649
     16 O          53.4628   12.7976  -19.0796 O.2     1  UNL1       -0.2684
     17 N          51.5890   11.8811  -20.1544 N.am    1  UNL1       -0.3023
     18 H          52.1349   11.7775  -21.0401 H       1  UNL1        0.1497
     19 C          45.9009   14.8748  -28.1621 C.ar    1  UNL1        0.2249
     20 C          46.0930   16.1923  -27.7348 C.ar    1  UNL1        0.0577
     21 C          46.3548   16.4505  -26.3875 C.ar    1  UNL1        0.0063
     22 C          46.4238   15.3895  -25.4759 C.ar    1  UNL1        0.0179
     23 C          46.6803   15.6120  -24.1169 C.ar    1  UNL1        0.0016
     24 C          46.7440   14.5326  -23.2302 C.ar    1  UNL1        0.0046
     25 C          46.5603   13.2160  -23.6902 C.ar    1  UNL1        0.0551
     26 C          46.2896   12.9970  -25.0533 C.ar    1  UNL1        0.0237
     27 C          46.2258   14.0732  -25.9441 C.ar    1  UNL1        0.0845
     28 N          45.9711   13.8536  -27.2621 N.ar    1  UNL1       -0.2117
     29 C          45.7781   13.3316  -30.0937 C.3     1  UNL1        0.2542
     30 O          45.6387   14.6223  -29.5117 O.3     1  UNL1       -0.4561
     31 C          51.2053   13.0513  -14.2417 C.3     1  UNL1        0.0864
     32 C          52.5700   13.7628  -14.0695 C.3     1  UNL1        0.0244
     33 C          51.2431   11.7364  -13.4426 C.3     1  UNL1        0.0244
     34 C          50.1246   13.9909  -13.6640 C.3     1  UNL1        0.0244
     35 C          48.6802   11.5767  -15.6908 C.3     1  UNL1        0.1822
     36 O          47.8197   11.1016  -16.6858 O.3     1  UNL1       -0.3760
     37 H          47.0420   10.7059  -16.2129 H       1  UNL1        0.2110
@<TRIPOS>BOND
     1    29    30    1
     2    30    19    1
     3    19    20   ar
     4    20    21   ar
     5    21    22   ar
     6    22    23   ar
     7    23    24   ar
     8    24    25   ar
     9    25     1    1
    10     1     2    2
    11     1     3   am
    12     3     4    1
    13     4     5    1
    14     5     6    1
    15     6     7    1
    16     7     8    1
    17     6     9    1
    18     9    10    1
    19    10    11   ar
    20    11    12   ar
    21    12    13   ar
    22    13    31    1
    23    31    32    1
    24    31    33    1
    25    31    34    1
    26    13    14   ar
    27    14    35    1
    28    35    36    1
    29    11    15    1
    30    15    16    2
    31    15    17   am
    32    25    26   ar
    33    26    27   ar
    34    27    28   ar
    35    28    19   ar
    36    27    22   ar
    37     8     3    1
    38    14    10   ar
    39    17     6    1
    40    36    37    1
    41    17    18    1
@<TRIPOS>MOLECULE
*****
 37 41 0 0 0
SMALL
GASTEIGER

@<TRIPOS>ATOM
      1 C          51.2782   13.0043  -23.8914 C.2     1  UNL1        0.2491
      2 O          52.1048   13.9284  -24.1244 O.2     1  UNL1       -0.2699
      3 N          50.5156   13.0313  -22.6724 N.am    1  UNL1       -0.2760
      4 C          50.5882   11.8914  -21.7513 C.3     1  UNL1        0.0954
      5 C          49.2597   11.7140  -21.0025 C.3     1  UNL1        0.0399
      6 C          48.7266   13.0279  -20.3678 C.3     1  UNL1        0.0645
      7 C          48.6980   14.1398  -21.4485 C.3     1  UNL1        0.0399
      8 C          50.0502   14.3172  -22.1468 C.3     1  UNL1        0.0954
      9 C          49.6235   13.4777  -19.1568 C.3     1  UNL1        0.0474
     10 C          49.3656   12.6289  -17.9416 C.ar    1  UNL1        0.0188
     11 C          48.1605   12.0536  -17.6971 C.ar    1  UNL1        0.1512
     12 N          48.1292   11.5192  -16.4685 N.ar    1  UNL1       -0.1653
     13 N          49.3143   11.7283  -15.8992 N.ar    1  UNL1       -0.2564
     14 C          50.0900   12.4479  -16.7735 C.ar    1  UNL1        0.0826
     15 C          47.0693   12.1434  -18.6545 C.2     1  UNL1        0.2649
     16 O          45.9217   11.7014  -18.3833 O.2     1  UNL1       -0.2684
     17 N          47.3379   12.7791  -19.9128 N.am    1  UNL1       -0.3023
     18 H          46.5435   12.8944  -20.5828 H       1  UNL1        0.1497
     19 C          52.6160    9.5626  -28.7978 C.ar    1  UNL1        0.2249
     20 C          51.5319    8.6821  -28.7266 C.ar    1  UNL1        0.0577
     21 C          50.5936    8.8230  -27.7018 C.ar    1  UNL1        0.0063
     22 C          50.7446    9.8439  -26.7550 C.ar    1  UNL1        0.0179
     23 C          49.8252   10.0118  -25.7116 C.ar    1  UNL1        0.0016
     24 C          50.0016   11.0407  -24.7813 C.ar    1  UNL1        0.0046
     25 C          51.0943   11.9205  -24.8852 C.ar    1  UNL1        0.0551
     26 C          52.0232   11.7410  -25.9264 C.ar    1  UNL1        0.0237
     27 C          51.8505   10.7140  -26.8598 C.ar    1  UNL1        0.0845
     28 N          52.7484   10.5507  -27.8683 N.ar    1  UNL1       -0.2117
     29 C          54.4812    8.3402  -29.8723 C.3     1  UNL1        0.2542
     30 O          53.5523    9.4168  -29.8254 O.3     1  UNL1       -0.4561
     31 C          49.5591   11.3402  -14.4840 C.3     1  UNL1        0.0864
     32 C          48.2717   10.7132  -13.8941 C.3     1  UNL1        0.0244
     33 C          49.9035   12.5958  -13.6632 C.3     1  UNL1        0.0244
     34 C          50.6835   10.2910  -14.3434 C.3     1  UNL1        0.0244
     35 C          51.4575   13.0313  -16.5302 C.3     1  UNL1        0.1822
     36 O          52.4021   12.4011  -17.3468 O.3     1  UNL1       -0.3760
     37 H          53.2628   12.8680  -17.1851 H       1  UNL1        0.2110
@<TRIPOS>BOND
     1    29    30    1
     2    30    19    1
     3    19    20   ar
     4    20    21   ar
     5    21    22   ar
     6    22    23   ar
     7    23    24   ar
     8    24    25   ar
     9    25     1    1
    10     1     2    2
    11     1     3   am
    12     3     4    1
    13     4     5    1
    14     5     6    1
    15     6     7    1
    16     7     8    1
    17     6     9    1
    18     9    10    1
    19    10    11   ar
    20    11    12   ar
    21    12    13   ar
    22    13    31    1
    23    31    32    1
    24    31    33    1
    25    31    34    1
    26    13    14   ar
    27    14    35    1
    28    35    36    1
    29    11    15    1
    30    15    16    2
    31    15    17   am
    32    25    26   ar
    33    26    27   ar
    34    27    28   ar
    35    28    19   ar
    36    27    22   ar
    37     8     3    1
    38    14    10   ar
    39    17     6    1
    40    36    37    1
    41    17    18    1
