@<TRIPOS>MOLECULE
*****
 49 54 0 0 0
SMALL
GASTEIGER

@<TRIPOS>ATOM
      1 C         -62.1497  -45.6038  -27.1478 C.2     1  UNL1        0.2483
      2 O         -60.9767  -45.7637  -27.5842 O.2     1  UNL1       -0.2701
      3 N         -63.2249  -46.3954  -27.6788 N.am    1  UNL1       -0.2945
      4 H         -64.2016  -46.0642  -27.5104 H       1  UNL1        0.1501
      5 C         -62.8651  -42.6206  -24.1232 C.ar    1  UNL1        0.0502
      6 C         -62.3013  -43.8653  -23.7930 C.ar    1  UNL1        0.0148
      7 C         -62.0784  -44.8292  -24.7791 C.ar    1  UNL1        0.0080
      8 C         -62.4050  -44.5695  -26.1198 C.ar    1  UNL1        0.0808
      9 C         -62.9874  -43.3315  -26.4523 C.ar    1  UNL1        0.1457
     10 F         -63.3835  -43.0634  -27.7224 F       1  UNL1       -0.2040
     11 C         -63.2112  -42.3693  -25.4625 C.ar    1  UNL1        0.0443
     12 N         -63.5085  -39.5117  -21.2288 N.pl3   1  UNL1       -0.3040
     13 C         -62.1434  -39.8777  -21.6379 C.3     1  UNL1        0.1122
     14 C         -62.0651  -41.3365  -22.0983 C.3     1  UNL1        0.1122
     15 N         -63.0990  -41.6235  -23.1033 N.pl3   1  UNL1       -0.3040
     16 C         -64.4088  -40.9584  -23.0193 C.3     1  UNL1        0.1122
     17 C         -64.6452  -40.3524  -21.6324 C.3     1  UNL1        0.1122
     18 C         -64.1288  -36.1488  -18.6610 C.ar    1  UNL1        0.0050
     19 C         -64.9464  -37.2897  -18.5622 C.ar    1  UNL1       -0.0008
     20 C         -64.7432  -38.3877  -19.4010 C.ar    1  UNL1        0.0143
     21 C         -63.7159  -38.3758  -20.3594 C.ar    1  UNL1        0.0502
     22 C         -62.8999  -37.2356  -20.4615 C.ar    1  UNL1        0.0438
     23 C         -63.1009  -36.1341  -19.6239 C.ar    1  UNL1        0.1374
     24 F         -62.2903  -35.0542  -19.7615 F       1  UNL1       -0.2045
     25 C         -65.4774  -34.0573  -18.2762 C.3     1  UNL1        0.0048
     26 C         -64.3529  -34.9555  -17.7467 C.3     1  UNL1        0.0246
     27 C         -64.6386  -35.4067  -16.3092 C.3     1  UNL1        0.0048
     28 C         -63.0028  -47.4501  -28.6774 C.3     1  UNL1        0.1535
     29 C         -63.7549  -48.7185  -28.3141 C.2     1  UNL1        0.2443
     30 O         -64.5072  -49.2631  -29.1669 O.2     1  UNL1       -0.2730
     31 N         -63.5346  -49.3950  -27.0657 N.am    1  UNL1       -0.2825
     32 H         -63.7002  -50.4264  -27.0371 H       1  UNL1        0.1549
     33 C         -63.0017  -48.7708  -25.8905 C.ar    1  UNL1        0.0535
     34 C         -63.8465  -48.1621  -24.9512 C.ar    1  UNL1        0.0353
     35 C         -63.2966  -47.5936  -23.7998 C.ar    1  UNL1        0.1002
     36 N         -61.9551  -47.6501  -23.5854 N.ar    1  UNL1       -0.2422
     37 C         -61.1174  -48.2563  -24.4685 C.ar    1  UNL1        0.1002
     38 C         -61.6275  -48.8375  -25.6320 C.ar    1  UNL1        0.0353
     39 C         -63.3920  -46.9507  -30.0825 C.3     1  UNL1        0.0569
     40 C         -63.9981  -45.5743  -30.0646 C.ar    1  UNL1       -0.0017
     41 C         -65.3148  -45.2548  -29.7441 C.ar    1  UNL1        0.0681
     42 N         -65.5301  -43.9286  -29.8978 N.ar    1  UNL1       -0.3523
     43 C         -64.3632  -43.4088  -30.3166 C.ar    1  UNL1        0.0563
     44 C         -64.0945  -42.0753  -30.6220 C.ar    1  UNL1        0.0170
     45 C         -62.7964  -41.7483  -31.0546 C.ar    1  UNL1        0.0015
     46 C         -61.8072  -42.7499  -31.1704 C.ar    1  UNL1        0.0001
     47 C         -62.1069  -44.0874  -30.8555 C.ar    1  UNL1        0.0012
     48 C         -63.4034  -44.3822  -30.4317 C.ar    1  UNL1        0.0131
     49 H         -66.4259  -43.4178  -29.7334 H       1  UNL1        0.1660
@<TRIPOS>BOND
     1    25    26    1
     2    26    27    1
     3    26    18    1
     4    18    19   ar
     5    19    20   ar
     6    20    21   ar
     7    21    12    1
     8    12    13    1
     9    13    14    1
    10    14    15    1
    11    15     5    1
    12     5     6   ar
    13     6     7   ar
    14     7     8   ar
    15     8     1    1
    16     1     2    2
    17     1     3   am
    18     3    28    1
    19    28    39    1
    20    39    40    1
    21    40    41   ar
    22    41    42   ar
    23    42    43   ar
    24    43    44   ar
    25    44    45   ar
    26    45    46   ar
    27    46    47   ar
    28    47    48   ar
    29    28    29    1
    30    29    30    2
    31    29    31   am
    32    31    33    1
    33    33    34   ar
    34    34    35   ar
    35    35    36   ar
    36    36    37   ar
    37    37    38   ar
    38     8     9   ar
    39     9    10    1
    40     9    11   ar
    41    15    16    1
    42    16    17    1
    43    21    22   ar
    44    22    23   ar
    45    23    24    1
    46    23    18   ar
    47    17    12    1
    48    11     5   ar
    49    48    40   ar
    50    38    33   ar
    51    48    43   ar
    52     3     4    1
    53    42    49    1
    54    31    32    1
@<TRIPOS>MOLECULE
*****
 49 54 0 0 0
SMALL
GASTEIGER

@<TRIPOS>ATOM
      1 C         -61.7272  -47.1250  -24.6563 C.2     1  UNL1        0.2483
      2 O         -60.5537  -47.5789  -24.7496 O.2     1  UNL1       -0.2701
      3 N         -62.8283  -47.8704  -25.2012 N.am    1  UNL1       -0.2945
      4 H         -63.7287  -47.3634  -25.3573 H       1  UNL1        0.1501
      5 C         -62.3792  -43.2698  -22.8475 C.ar    1  UNL1        0.0502
      6 C         -62.4686  -43.4403  -24.2400 C.ar    1  UNL1        0.0148
      7 C         -62.2497  -44.6926  -24.8187 C.ar    1  UNL1        0.0080
      8 C         -61.9450  -45.8063  -24.0196 C.ar    1  UNL1        0.0808
      9 C         -61.8356  -45.6364  -22.6263 C.ar    1  UNL1        0.1457
     10 F         -61.4747  -46.6683  -21.8220 F       1  UNL1       -0.2040
     11 C         -62.0534  -44.3809  -22.0500 C.ar    1  UNL1        0.0443
     12 N         -63.1880  -39.5035  -20.9455 N.pl3   1  UNL1       -0.3040
     13 C         -64.1467  -40.0749  -21.9043 C.3     1  UNL1        0.1122
     14 C         -63.4511  -40.9820  -22.9240 C.3     1  UNL1        0.1122
     15 N         -62.6025  -41.9738  -22.2476 N.pl3   1  UNL1       -0.3040
     16 C         -61.9074  -41.6168  -21.0009 C.3     1  UNL1        0.1122
     17 C         -61.8515  -40.0990  -20.8017 C.3     1  UNL1        0.1122
     18 C         -64.2190  -35.9617  -18.7822 C.ar    1  UNL1        0.0050
     19 C         -64.9514  -37.1503  -18.6069 C.ar    1  UNL1       -0.0008
     20 C         -64.6141  -38.3068  -19.3137 C.ar    1  UNL1        0.0143
     21 C         -63.5343  -38.3067  -20.2126 C.ar    1  UNL1        0.0502
     22 C         -62.8033  -37.1193  -20.3911 C.ar    1  UNL1        0.0438
     23 C         -63.1386  -35.9594  -19.6858 C.ar    1  UNL1        0.1374
     24 F         -62.4061  -34.8357  -19.8935 F       1  UNL1       -0.2045
     25 C         -65.8601  -34.0624  -18.5801 C.3     1  UNL1        0.0048
     26 C         -64.5890  -34.7049  -18.0115 C.3     1  UNL1        0.0246
     27 C         -64.7428  -34.9998  -16.5146 C.3     1  UNL1        0.0048
     28 C         -62.6521  -49.1946  -25.8128 C.3     1  UNL1        0.1535
     29 C         -63.7264  -50.1623  -25.3481 C.2     1  UNL1        0.2443
     30 O         -64.9043  -50.0411  -25.7813 O.2     1  UNL1       -0.2730
     31 N         -63.4139  -51.2988  -24.5263 N.am    1  UNL1       -0.2825
     32 H         -64.0350  -52.1360  -24.5999 H       1  UNL1        0.1549
     33 C         -62.2500  -51.4009  -23.6958 C.ar    1  UNL1        0.0535
     34 C         -61.4777  -52.5712  -23.6776 C.ar    1  UNL1        0.0353
     35 C         -60.3300  -52.6244  -22.8830 C.ar    1  UNL1        0.1002
     36 N         -59.9571  -51.5411  -22.1506 N.ar    1  UNL1       -0.2422
     37 C         -60.6749  -50.3864  -22.1704 C.ar    1  UNL1        0.1002
     38 C         -61.8287  -50.2921  -22.9524 C.ar    1  UNL1        0.0353
     39 C         -62.6292  -49.0784  -27.3494 C.3     1  UNL1        0.0569
     40 C         -62.7498  -47.6577  -27.8282 C.ar    1  UNL1       -0.0017
     41 C         -63.9315  -46.9786  -28.1125 C.ar    1  UNL1        0.0681
     42 N         -63.6630  -45.7400  -28.5842 N.ar    1  UNL1       -0.3523
     43 C         -62.3231  -45.6326  -28.6048 C.ar    1  UNL1        0.0563
     44 C         -61.5705  -44.5372  -29.0261 C.ar    1  UNL1        0.0170
     45 C         -60.1687  -44.6422  -28.9717 C.ar    1  UNL1        0.0015
     46 C         -59.5575  -45.8260  -28.5023 C.ar    1  UNL1        0.0001
     47 C         -60.3422  -46.9156  -28.0838 C.ar    1  UNL1        0.0012
     48 C         -61.7297  -46.7834  -28.1515 C.ar    1  UNL1        0.0131
     49 H         -64.3586  -45.0200  -28.8811 H       1  UNL1        0.1660
@<TRIPOS>BOND
     1    25    26    1
     2    26    27    1
     3    26    18    1
     4    18    19   ar
     5    19    20   ar
     6    20    21   ar
     7    21    12    1
     8    12    13    1
     9    13    14    1
    10    14    15    1
    11    15     5    1
    12     5     6   ar
    13     6     7   ar
    14     7     8   ar
    15     8     1    1
    16     1     2    2
    17     1     3   am
    18     3    28    1
    19    28    39    1
    20    39    40    1
    21    40    41   ar
    22    41    42   ar
    23    42    43   ar
    24    43    44   ar
    25    44    45   ar
    26    45    46   ar
    27    46    47   ar
    28    47    48   ar
    29    28    29    1
    30    29    30    2
    31    29    31   am
    32    31    33    1
    33    33    34   ar
    34    34    35   ar
    35    35    36   ar
    36    36    37   ar
    37    37    38   ar
    38     8     9   ar
    39     9    10    1
    40     9    11   ar
    41    15    16    1
    42    16    17    1
    43    21    22   ar
    44    22    23   ar
    45    23    24    1
    46    23    18   ar
    47    17    12    1
    48    11     5   ar
    49    48    40   ar
    50    38    33   ar
    51    48    43   ar
    52     3     4    1
    53    42    49    1
    54    31    32    1
@<TRIPOS>MOLECULE
*****
 49 54 0 0 0
SMALL
GASTEIGER

@<TRIPOS>ATOM
      1 C         -61.9861  -45.2444  -27.3189 C.2     1  UNL1        0.2483
      2 O         -60.7980  -45.4857  -27.6682 O.2     1  UNL1       -0.2701
      3 N         -63.0766  -45.8879  -27.9984 N.am    1  UNL1       -0.2945
      4 H         -64.0305  -45.4763  -27.8853 H       1  UNL1        0.1501
      5 C         -62.7590  -42.3807  -24.1946 C.ar    1  UNL1        0.0502
      6 C         -63.4058  -42.2862  -25.4391 C.ar    1  UNL1        0.0148
      7 C         -63.1447  -43.2156  -26.4487 C.ar    1  UNL1        0.0080
      8 C         -62.2381  -44.2665  -26.2363 C.ar    1  UNL1        0.0808
      9 C         -61.5737  -44.3541  -24.9981 C.ar    1  UNL1        0.1457
     10 F         -60.6380  -45.3110  -24.7725 F       1  UNL1       -0.2040
     11 C         -61.8357  -43.4210  -23.9900 C.ar    1  UNL1        0.0443
     12 N         -63.4887  -39.3705  -21.2175 N.pl3   1  UNL1       -0.3040
     13 C         -62.1121  -39.7600  -21.5612 C.3     1  UNL1        0.1122
     14 C         -62.0461  -41.2013  -22.0757 C.3     1  UNL1        0.1122
     15 N         -63.0260  -41.4180  -23.1500 N.pl3   1  UNL1       -0.3040
     16 C         -64.3200  -40.7185  -23.1152 C.3     1  UNL1        0.1122
     17 C         -64.6218  -40.1608  -21.7207 C.3     1  UNL1        0.1122
     18 C         -64.1693  -36.0946  -18.5543 C.ar    1  UNL1        0.0050
     19 C         -64.9856  -37.2399  -18.5091 C.ar    1  UNL1       -0.0008
     20 C         -64.7627  -38.3095  -19.3791 C.ar    1  UNL1        0.0143
     21 C         -63.7166  -38.2640  -20.3158 C.ar    1  UNL1        0.0502
     22 C         -62.9018  -37.1194  -20.3644 C.ar    1  UNL1        0.0438
     23 C         -63.1225  -36.0463  -19.4955 C.ar    1  UNL1        0.1374
     24 F         -62.3123  -34.9607  -19.5815 F       1  UNL1       -0.2045
     25 C         -65.5534  -34.0380  -18.1118 C.3     1  UNL1        0.0048
     26 C         -64.4149  -34.9323  -17.6061 C.3     1  UNL1        0.0246
     27 C         -64.6954  -35.4299  -16.1831 C.3     1  UNL1        0.0048
     28 C         -62.8621  -46.8848  -29.0561 C.3     1  UNL1        0.1535
     29 C         -63.7266  -48.1141  -28.8366 C.2     1  UNL1        0.2443
     30 O         -64.4938  -48.5090  -29.7560 O.2     1  UNL1       -0.2730
     31 N         -63.6018  -48.9232  -27.6558 N.am    1  UNL1       -0.2825
     32 H         -63.8521  -49.9350  -27.7323 H       1  UNL1        0.1549
     33 C         -63.0567  -48.4617  -26.4129 C.ar    1  UNL1        0.0535
     34 C         -63.8772  -47.8725  -25.4402 C.ar    1  UNL1        0.0353
     35 C         -63.3193  -47.4655  -24.2260 C.ar    1  UNL1        0.1002
     36 N         -61.9952  -47.6594  -23.9851 N.ar    1  UNL1       -0.2422
     37 C         -61.1835  -48.2509  -24.9017 C.ar    1  UNL1        0.1002
     38 C         -61.7024  -48.6728  -26.1282 C.ar    1  UNL1        0.0353
     39 C         -63.1164  -46.2612  -30.4423 C.3     1  UNL1        0.0569
     40 C         -62.6753  -44.8256  -30.5252 C.ar    1  UNL1       -0.0017
     41 C         -61.3889  -44.3706  -30.8015 C.ar    1  UNL1        0.0681
     42 N         -61.3393  -43.0212  -30.7293 N.ar    1  UNL1       -0.3523
     43 C         -62.5810  -42.6205  -30.4056 C.ar    1  UNL1        0.0563
     44 C         -63.0209  -41.3125  -30.2066 C.ar    1  UNL1        0.0170
     45 C         -64.3709  -41.1178  -29.8624 C.ar    1  UNL1        0.0015
     46 C         -65.2413  -42.2220  -29.7267 C.ar    1  UNL1        0.0001
     47 C         -64.7696  -43.5308  -29.9333 C.ar    1  UNL1        0.0012
     48 C         -63.4254  -43.6932  -30.2712 C.ar    1  UNL1        0.0131
     49 H         -60.5014  -42.4175  -30.8841 H       1  UNL1        0.1660
@<TRIPOS>BOND
     1    25    26    1
     2    26    27    1
     3    26    18    1
     4    18    19   ar
     5    19    20   ar
     6    20    21   ar
     7    21    12    1
     8    12    13    1
     9    13    14    1
    10    14    15    1
    11    15     5    1
    12     5     6   ar
    13     6     7   ar
    14     7     8   ar
    15     8     1    1
    16     1     2    2
    17     1     3   am
    18     3    28    1
    19    28    39    1
    20    39    40    1
    21    40    41   ar
    22    41    42   ar
    23    42    43   ar
    24    43    44   ar
    25    44    45   ar
    26    45    46   ar
    27    46    47   ar
    28    47    48   ar
    29    28    29    1
    30    29    30    2
    31    29    31   am
    32    31    33    1
    33    33    34   ar
    34    34    35   ar
    35    35    36   ar
    36    36    37   ar
    37    37    38   ar
    38     8     9   ar
    39     9    10    1
    40     9    11   ar
    41    15    16    1
    42    16    17    1
    43    21    22   ar
    44    22    23   ar
    45    23    24    1
    46    23    18   ar
    47    17    12    1
    48    11     5   ar
    49    48    40   ar
    50    38    33   ar
    51    48    43   ar
    52     3     4    1
    53    42    49    1
    54    31    32    1
@<TRIPOS>MOLECULE
*****
 49 54 0 0 0
SMALL
GASTEIGER

@<TRIPOS>ATOM
      1 C         -62.4381  -40.6977  -21.8701 C.2     1  UNL1        0.2483
      2 O         -61.2474  -40.5161  -21.4947 O.2     1  UNL1       -0.2701
      3 N         -63.5244  -40.2102  -21.0656 N.am    1  UNL1       -0.2945
      4 H         -64.4764  -40.6022  -21.2452 H       1  UNL1        0.1501
      5 C         -63.2135  -42.8443  -25.5239 C.ar    1  UNL1        0.0502
      6 C         -63.8183  -41.6004  -25.2731 C.ar    1  UNL1        0.0148
      7 C         -63.5661  -40.9140  -24.0829 C.ar    1  UNL1        0.0080
      8 C         -62.6969  -41.4495  -23.1190 C.ar    1  UNL1        0.0808
      9 C         -62.1036  -42.7039  -23.3575 C.ar    1  UNL1        0.1457
     10 F         -61.3126  -43.2922  -22.4247 F       1  UNL1       -0.2040
     11 C         -62.3597  -43.3896  -24.5491 C.ar    1  UNL1        0.0443
     12 N         -64.1862  -44.9954  -29.1133 N.pl3   1  UNL1       -0.3040
     13 C         -64.0122  -45.7114  -27.8397 C.3     1  UNL1        0.1122
     14 C         -63.0664  -44.9617  -26.8965 C.3     1  UNL1        0.1122
     15 N         -63.4759  -43.5570  -26.7537 N.pl3   1  UNL1       -0.3040
     16 C         -64.0751  -42.8476  -27.8951 C.3     1  UNL1        0.1122
     17 C         -63.8091  -43.5780  -29.2151 C.3     1  UNL1        0.1122
     18 C         -65.5381  -47.1186  -32.5704 C.ar    1  UNL1        0.0050
     19 C         -65.2952  -47.7947  -31.3604 C.ar    1  UNL1       -0.0008
     20 C         -64.8538  -47.1006  -30.2317 C.ar    1  UNL1        0.0143
     21 C         -64.6457  -45.7120  -30.2814 C.ar    1  UNL1        0.0502
     22 C         -64.8850  -45.0354  -31.4902 C.ar    1  UNL1        0.0438
     23 C         -65.3263  -45.7271  -32.6225 C.ar    1  UNL1        0.1374
     24 F         -65.5408  -45.0320  -33.7685 F       1  UNL1       -0.2045
     25 C         -64.8359  -48.4258  -34.6049 C.3     1  UNL1        0.0048
     26 C         -66.0182  -47.8772  -33.7970 C.3     1  UNL1        0.0246
     27 C         -66.9880  -48.9995  -33.4080 C.3     1  UNL1        0.0048
     28 C         -63.3037  -39.4353  -19.8370 C.3     1  UNL1        0.1535
     29 C         -64.5140  -38.5820  -19.5001 C.2     1  UNL1        0.2443
     30 O         -64.4415  -37.7387  -18.5656 O.2     1  UNL1       -0.2730
     31 N         -65.7059  -38.6130  -20.3020 N.am    1  UNL1       -0.2825
     32 H         -66.2977  -37.7520  -20.3249 H       1  UNL1        0.1549
     33 C         -66.0793  -39.7035  -21.1542 C.ar    1  UNL1        0.0535
     34 C         -66.3537  -40.9721  -20.6235 C.ar    1  UNL1        0.0353
     35 C         -66.7487  -42.0036  -21.4787 C.ar    1  UNL1        0.1002
     36 N         -66.8844  -41.7700  -22.8113 N.ar    1  UNL1       -0.2422
     37 C         -66.6485  -40.5427  -23.3471 C.ar    1  UNL1        0.1002
     38 C         -66.2522  -39.4843  -22.5260 C.ar    1  UNL1        0.0353
     39 C         -62.9356  -40.3716  -18.6696 C.3     1  UNL1        0.0569
     40 C         -64.0231  -41.3604  -18.3505 C.ar    1  UNL1       -0.0017
     41 C         -64.9942  -41.2306  -17.3614 C.ar    1  UNL1        0.0681
     42 N         -65.7678  -42.3386  -17.3103 N.ar    1  UNL1       -0.3523
     43 C         -65.2913  -43.1683  -18.2545 C.ar    1  UNL1        0.0563
     44 C         -65.7586  -44.4429  -18.5721 C.ar    1  UNL1        0.0170
     45 C         -65.1022  -45.1476  -19.5976 C.ar    1  UNL1        0.0015
     46 C         -64.0062  -44.5690  -20.2753 C.ar    1  UNL1        0.0001
     47 C         -63.5562  -43.2811  -19.9335 C.ar    1  UNL1        0.0012
     48 C         -64.2251  -42.6073  -18.9107 C.ar    1  UNL1        0.0131
     49 H         -66.5659  -42.5141  -16.6602 H       1  UNL1        0.1660
@<TRIPOS>BOND
     1    25    26    1
     2    26    27    1
     3    26    18    1
     4    18    19   ar
     5    19    20   ar
     6    20    21   ar
     7    21    12    1
     8    12    13    1
     9    13    14    1
    10    14    15    1
    11    15     5    1
    12     5     6   ar
    13     6     7   ar
    14     7     8   ar
    15     8     1    1
    16     1     2    2
    17     1     3   am
    18     3    28    1
    19    28    39    1
    20    39    40    1
    21    40    41   ar
    22    41    42   ar
    23    42    43   ar
    24    43    44   ar
    25    44    45   ar
    26    45    46   ar
    27    46    47   ar
    28    47    48   ar
    29    28    29    1
    30    29    30    2
    31    29    31   am
    32    31    33    1
    33    33    34   ar
    34    34    35   ar
    35    35    36   ar
    36    36    37   ar
    37    37    38   ar
    38     8     9   ar
    39     9    10    1
    40     9    11   ar
    41    15    16    1
    42    16    17    1
    43    21    22   ar
    44    22    23   ar
    45    23    24    1
    46    23    18   ar
    47    17    12    1
    48    11     5   ar
    49    48    40   ar
    50    38    33   ar
    51    48    43   ar
    52     3     4    1
    53    42    49    1
    54    31    32    1
@<TRIPOS>MOLECULE
*****
 49 54 0 0 0
SMALL
GASTEIGER

@<TRIPOS>ATOM
      1 C         -61.9759  -47.1106  -24.4956 C.2     1  UNL1        0.2483
      2 O         -60.8195  -47.6144  -24.4720 O.2     1  UNL1       -0.2701
      3 N         -63.0552  -47.8249  -25.1200 N.am    1  UNL1       -0.2945
      4 H         -63.9154  -47.2860  -25.3685 H       1  UNL1        0.1501
      5 C         -62.5989  -43.2210  -22.7514 C.ar    1  UNL1        0.0502
      6 C         -62.5651  -44.3760  -21.9510 C.ar    1  UNL1        0.0148
      7 C         -62.3687  -45.6340  -22.5255 C.ar    1  UNL1        0.0080
      8 C         -62.1925  -45.7672  -23.9122 C.ar    1  UNL1        0.0808
      9 C         -62.2445  -44.6153  -24.7200 C.ar    1  UNL1        0.1457
     10 F         -62.1494  -44.7035  -26.0710 F       1  UNL1       -0.2040
     11 C         -62.4434  -43.3575  -24.1421 C.ar    1  UNL1        0.0443
     12 N         -63.3508  -39.4360  -20.8630 N.pl3   1  UNL1       -0.3040
     13 C         -64.3461  -40.0258  -21.7721 C.3     1  UNL1        0.1122
     14 C         -63.6891  -40.9412  -22.8096 C.3     1  UNL1        0.1122
     15 N         -62.8050  -41.9189  -22.1585 N.pl3   1  UNL1       -0.3040
     16 C         -62.0590  -41.5416  -20.9477 C.3     1  UNL1        0.1122
     17 C         -62.0051  -40.0210  -20.7700 C.3     1  UNL1        0.1122
     18 C         -64.3109  -35.8731  -18.7018 C.ar    1  UNL1        0.0050
     19 C         -65.1396  -37.0075  -18.6229 C.ar    1  UNL1       -0.0008
     20 C         -64.8254  -38.1709  -19.3289 C.ar    1  UNL1        0.0143
     21 C         -63.6733  -38.2323  -20.1307 C.ar    1  UNL1        0.0502
     22 C         -62.8457  -37.0989  -20.2130 C.ar    1  UNL1        0.0438
     23 C         -63.1576  -35.9322  -19.5082 C.ar    1  UNL1        0.1374
     24 F         -62.3307  -34.8617  -19.6212 F       1  UNL1       -0.2045
     25 C         -65.9470  -33.9737  -18.4634 C.3     1  UNL1        0.0048
     26 C         -64.6560  -34.6085  -17.9323 C.3     1  UNL1        0.0246
     27 C         -64.7575  -34.8875  -16.4279 C.3     1  UNL1        0.0048
     28 C         -62.8825  -49.1713  -25.6821 C.3     1  UNL1        0.1535
     29 C         -63.8989  -50.1420  -25.1067 C.2     1  UNL1        0.2443
     30 O         -65.1184  -50.0149  -25.4010 O.2     1  UNL1       -0.2730
     31 N         -63.4973  -51.2868  -24.3369 N.am    1  UNL1       -0.2825
     32 H         -64.1248  -52.1225  -24.3468 H       1  UNL1        0.1549
     33 C         -62.2462  -51.3987  -23.6461 C.ar    1  UNL1        0.0535
     34 C         -61.7453  -50.3330  -22.8847 C.ar    1  UNL1        0.0353
     35 C         -60.5399  -50.4880  -22.1960 C.ar    1  UNL1        0.1002
     36 N         -59.8713  -51.6707  -22.2496 N.ar    1  UNL1       -0.2422
     37 C         -60.3484  -52.7272  -22.9604 C.ar    1  UNL1        0.1002
     38 C         -61.5507  -52.6134  -23.6627 C.ar    1  UNL1        0.0353
     39 C         -62.9597  -49.1256  -27.2206 C.3     1  UNL1        0.0569
     40 C         -62.3017  -47.9040  -27.8011 C.ar    1  UNL1       -0.0017
     41 C         -60.9476  -47.5863  -27.7397 C.ar    1  UNL1        0.0681
     42 N         -60.7189  -46.3806  -28.3077 N.ar    1  UNL1       -0.3523
     43 C         -61.9163  -45.9323  -28.7229 C.ar    1  UNL1        0.0563
     44 C         -62.1901  -44.7228  -29.3600 C.ar    1  UNL1        0.0170
     45 C         -63.5266  -44.4475  -29.7024 C.ar    1  UNL1        0.0015
     46 C         -64.5476  -45.3770  -29.4043 C.ar    1  UNL1        0.0001
     47 C         -64.2419  -46.5895  -28.7605 C.ar    1  UNL1        0.0012
     48 C         -62.9081  -46.8338  -28.4307 C.ar    1  UNL1        0.0131
     49 H         -59.7983  -45.8953  -28.3946 H       1  UNL1        0.1660
@<TRIPOS>BOND
     1    25    26    1
     2    26    27    1
     3    26    18    1
     4    18    19   ar
     5    19    20   ar
     6    20    21   ar
     7    21    12    1
     8    12    13    1
     9    13    14    1
    10    14    15    1
    11    15     5    1
    12     5     6   ar
    13     6     7   ar
    14     7     8   ar
    15     8     1    1
    16     1     2    2
    17     1     3   am
    18     3    28    1
    19    28    39    1
    20    39    40    1
    21    40    41   ar
    22    41    42   ar
    23    42    43   ar
    24    43    44   ar
    25    44    45   ar
    26    45    46   ar
    27    46    47   ar
    28    47    48   ar
    29    28    29    1
    30    29    30    2
    31    29    31   am
    32    31    33    1
    33    33    34   ar
    34    34    35   ar
    35    35    36   ar
    36    36    37   ar
    37    37    38   ar
    38     8     9   ar
    39     9    10    1
    40     9    11   ar
    41    15    16    1
    42    16    17    1
    43    21    22   ar
    44    22    23   ar
    45    23    24    1
    46    23    18   ar
    47    17    12    1
    48    11     5   ar
    49    48    40   ar
    50    38    33   ar
    51    48    43   ar
    52     3     4    1
    53    42    49    1
    54    31    32    1
@<TRIPOS>MOLECULE
*****
 49 54 0 0 0
SMALL
GASTEIGER

@<TRIPOS>ATOM
      1 C         -65.4025  -40.1344  -21.2602 C.2     1  UNL1        0.2483
      2 O         -66.4836  -40.5936  -20.7996 O.2     1  UNL1       -0.2701
      3 N         -64.6697  -39.1473  -20.5164 N.am    1  UNL1       -0.2945
      4 H         -63.9462  -38.5921  -21.0268 H       1  UNL1        0.1501
      5 C         -63.9878  -41.5048  -25.0916 C.ar    1  UNL1        0.0502
      6 C         -63.3422  -41.8871  -23.9028 C.ar    1  UNL1        0.0148
      7 C         -63.8040  -41.4332  -22.6651 C.ar    1  UNL1        0.0080
      8 C         -64.9268  -40.5938  -22.5848 C.ar    1  UNL1        0.0808
      9 C         -65.5650  -40.1930  -23.7740 C.ar    1  UNL1        0.1457
     10 F         -66.6100  -39.3273  -23.7495 F       1  UNL1       -0.2040
     11 C         -65.0992  -40.6475  -25.0117 C.ar    1  UNL1        0.0443
     12 N         -62.3968  -42.7758  -28.8746 N.pl3   1  UNL1       -0.3040
     13 C         -62.9223  -41.4116  -28.7079 C.3     1  UNL1        0.1122
     14 C         -63.9934  -41.3500  -27.6145 C.3     1  UNL1        0.1122
     15 N         -63.5092  -41.9714  -26.3733 N.pl3   1  UNL1       -0.3040
     16 C         -62.6029  -43.1288  -26.4369 C.3     1  UNL1        0.1122
     17 C         -62.6169  -43.7799  -27.8235 C.3     1  UNL1        0.1122
     18 C         -60.4661  -43.8746  -32.5286 C.ar    1  UNL1        0.0050
     19 C         -61.4855  -42.9047  -32.5172 C.ar    1  UNL1       -0.0008
     20 C         -62.1156  -42.5463  -31.3234 C.ar    1  UNL1        0.0143
     21 C         -61.7420  -43.1457  -30.1089 C.ar    1  UNL1        0.0502
     22 C         -60.7256  -44.1169  -30.1189 C.ar    1  UNL1        0.0438
     23 C         -60.0931  -44.4789  -31.3122 C.ar    1  UNL1        0.1374
     24 F         -59.1196  -45.4240  -31.2733 F       1  UNL1       -0.2045
     25 C         -60.3733  -43.4902  -35.0156 C.3     1  UNL1        0.0048
     26 C         -59.7826  -44.2625  -33.8297 C.3     1  UNL1        0.0246
     27 C         -58.2656  -44.0578  -33.7393 C.3     1  UNL1        0.0048
     28 C         -65.0969  -38.6910  -19.1867 C.3     1  UNL1        0.1535
     29 C         -64.0193  -38.9424  -18.1466 C.2     1  UNL1        0.2443
     30 O         -63.3114  -37.9824  -17.7377 O.2     1  UNL1       -0.2730
     31 N         -63.8661  -40.2229  -17.5131 N.am    1  UNL1       -0.2825
     32 H         -63.4610  -40.2423  -16.5499 H       1  UNL1        0.1549
     33 C         -64.3293  -41.4607  -18.0683 C.ar    1  UNL1        0.0535
     34 C         -63.6430  -42.0794  -19.1231 C.ar    1  UNL1        0.0353
     35 C         -64.1022  -43.3026  -19.6173 C.ar    1  UNL1        0.1002
     36 N         -65.1938  -43.8950  -19.0639 N.ar    1  UNL1       -0.2422
     37 C         -65.8619  -43.3279  -18.0242 C.ar    1  UNL1        0.1002
     38 C         -65.4346  -42.1053  -17.5004 C.ar    1  UNL1        0.0353
     39 C         -65.4965  -37.2032  -19.2315 C.3     1  UNL1        0.0569
     40 C         -64.3277  -36.2795  -19.0243 C.ar    1  UNL1       -0.0017
     41 C         -64.2226  -35.2831  -18.0576 C.ar    1  UNL1        0.0681
     42 N         -63.0636  -34.6021  -18.2049 N.ar    1  UNL1       -0.3523
     43 C         -62.4384  -35.1561  -19.2581 C.ar    1  UNL1        0.0563
     44 C         -61.2098  -34.7837  -19.8020 C.ar    1  UNL1        0.0170
     45 C         -60.7414  -35.4986  -20.9194 C.ar    1  UNL1        0.0015
     46 C         -61.5025  -36.5578  -21.4617 C.ar    1  UNL1        0.0001
     47 C         -62.7389  -36.9114  -20.8922 C.ar    1  UNL1        0.0012
     48 C         -63.1790  -36.1830  -19.7863 C.ar    1  UNL1        0.0131
     49 H         -62.7308  -33.8018  -17.6226 H       1  UNL1        0.1660
@<TRIPOS>BOND
     1    25    26    1
     2    26    27    1
     3    26    18    1
     4    18    19   ar
     5    19    20   ar
     6    20    21   ar
     7    21    12    1
     8    12    13    1
     9    13    14    1
    10    14    15    1
    11    15     5    1
    12     5     6   ar
    13     6     7   ar
    14     7     8   ar
    15     8     1    1
    16     1     2    2
    17     1     3   am
    18     3    28    1
    19    28    39    1
    20    39    40    1
    21    40    41   ar
    22    41    42   ar
    23    42    43   ar
    24    43    44   ar
    25    44    45   ar
    26    45    46   ar
    27    46    47   ar
    28    47    48   ar
    29    28    29    1
    30    29    30    2
    31    29    31   am
    32    31    33    1
    33    33    34   ar
    34    34    35   ar
    35    35    36   ar
    36    36    37   ar
    37    37    38   ar
    38     8     9   ar
    39     9    10    1
    40     9    11   ar
    41    15    16    1
    42    16    17    1
    43    21    22   ar
    44    22    23   ar
    45    23    24    1
    46    23    18   ar
    47    17    12    1
    48    11     5   ar
    49    48    40   ar
    50    38    33   ar
    51    48    43   ar
    52     3     4    1
    53    42    49    1
    54    31    32    1
@<TRIPOS>MOLECULE
*****
 49 54 0 0 0
SMALL
GASTEIGER

@<TRIPOS>ATOM
      1 C         -61.1405  -45.1345  -27.7974 C.2     1  UNL1        0.2483
      2 O         -59.8989  -44.9749  -27.9545 O.2     1  UNL1       -0.2701
      3 N         -62.0535  -44.1107  -28.2255 N.am    1  UNL1       -0.2945
      4 H         -63.0266  -44.1372  -27.8453 H       1  UNL1        0.1501
      5 C         -62.5962  -48.7245  -25.9127 C.ar    1  UNL1        0.0502
      6 C         -62.9871  -48.3835  -27.2192 C.ar    1  UNL1        0.0148
      7 C         -62.5151  -47.2144  -27.8205 C.ar    1  UNL1        0.0080
      8 C         -61.6345  -46.3626  -27.1344 C.ar    1  UNL1        0.0808
      9 C         -61.2553  -46.6903  -25.8187 C.ar    1  UNL1        0.1457
     10 F         -60.4624  -45.8621  -25.0925 F       1  UNL1       -0.2040
     11 C         -61.7311  -47.8604  -25.2187 C.ar    1  UNL1        0.0443
     12 N         -64.2029  -52.2032  -23.9699 N.pl3   1  UNL1       -0.3040
     13 C         -63.4864  -51.1800  -23.1925 C.3     1  UNL1        0.1122
     14 C         -62.4640  -50.4316  -24.0533 C.3     1  UNL1        0.1122
     15 N         -63.0863  -49.9324  -25.2882 N.pl3   1  UNL1       -0.3040
     16 C         -64.1522  -50.7102  -25.9392 C.3     1  UNL1        0.1122
     17 C         -64.1789  -52.1580  -25.4393 C.3     1  UNL1        0.1122
     18 C         -66.1284  -55.4449  -21.9523 C.ar    1  UNL1        0.0050
     19 C         -64.7274  -55.3161  -21.9328 C.ar    1  UNL1       -0.0008
     20 C         -64.0991  -54.2571  -22.5919 C.ar    1  UNL1        0.0143
     21 C         -64.8546  -53.2972  -23.2860 C.ar    1  UNL1        0.0502
     22 C         -66.2543  -53.4258  -23.3090 C.ar    1  UNL1        0.0438
     23 C         -66.8867  -54.4852  -22.6509 C.ar    1  UNL1        0.1374
     24 F         -68.2403  -54.5703  -22.7036 F       1  UNL1       -0.2045
     25 C         -67.3794  -56.1495  -19.8835 C.3     1  UNL1        0.0048
     26 C         -66.8089  -56.5989  -21.2341 C.3     1  UNL1        0.0246
     27 C         -67.8981  -57.2296  -22.1101 C.3     1  UNL1        0.0048
     28 C         -61.6004  -42.8939  -28.9129 C.3     1  UNL1        0.1535
     29 C         -62.5539  -42.5055  -30.0293 C.2     1  UNL1        0.2443
     30 O         -63.6898  -42.0380  -29.7445 O.2     1  UNL1       -0.2730
     31 N         -62.1516  -42.5315  -31.4084 N.am    1  UNL1       -0.2825
     32 H         -62.6279  -41.8727  -32.0652 H       1  UNL1        0.1549
     33 C         -61.0702  -43.3208  -31.9208 C.ar    1  UNL1        0.0535
     34 C         -60.7355  -43.2879  -33.2822 C.ar    1  UNL1        0.0353
     35 C         -59.6539  -44.0429  -33.7419 C.ar    1  UNL1        0.1002
     36 N         -58.9217  -44.7862  -32.8700 N.ar    1  UNL1       -0.2422
     37 C         -59.2104  -44.8155  -31.5415 C.ar    1  UNL1        0.1002
     38 C         -60.2836  -44.0742  -31.0414 C.ar    1  UNL1        0.0353
     39 C         -61.4193  -41.7425  -27.9046 C.3     1  UNL1        0.0569
     40 C         -62.1364  -41.9876  -26.6053 C.ar    1  UNL1       -0.0017
     41 C         -63.4995  -41.8289  -26.3707 C.ar    1  UNL1        0.0681
     42 N         -63.7869  -42.0721  -25.0718 N.ar    1  UNL1       -0.3523
     43 C         -62.6175  -42.3782  -24.4835 C.ar    1  UNL1        0.0563
     44 C         -62.4046  -42.6944  -23.1425 C.ar    1  UNL1        0.0170
     45 C         -61.0881  -42.9756  -22.7339 C.ar    1  UNL1        0.0015
     46 C         -60.0261  -42.9354  -23.6645 C.ar    1  UNL1        0.0001
     47 C         -60.2706  -42.6130  -25.0114 C.ar    1  UNL1        0.0012
     48 C         -61.5859  -42.3363  -25.3868 C.ar    1  UNL1        0.0131
     49 H         -64.7267  -42.0210  -24.6196 H       1  UNL1        0.1660
@<TRIPOS>BOND
     1    25    26    1
     2    26    27    1
     3    26    18    1
     4    18    19   ar
     5    19    20   ar
     6    20    21   ar
     7    21    12    1
     8    12    13    1
     9    13    14    1
    10    14    15    1
    11    15     5    1
    12     5     6   ar
    13     6     7   ar
    14     7     8   ar
    15     8     1    1
    16     1     2    2
    17     1     3   am
    18     3    28    1
    19    28    39    1
    20    39    40    1
    21    40    41   ar
    22    41    42   ar
    23    42    43   ar
    24    43    44   ar
    25    44    45   ar
    26    45    46   ar
    27    46    47   ar
    28    47    48   ar
    29    28    29    1
    30    29    30    2
    31    29    31   am
    32    31    33    1
    33    33    34   ar
    34    34    35   ar
    35    35    36   ar
    36    36    37   ar
    37    37    38   ar
    38     8     9   ar
    39     9    10    1
    40     9    11   ar
    41    15    16    1
    42    16    17    1
    43    21    22   ar
    44    22    23   ar
    45    23    24    1
    46    23    18   ar
    47    17    12    1
    48    11     5   ar
    49    48    40   ar
    50    38    33   ar
    51    48    43   ar
    52     3     4    1
    53    42    49    1
    54    31    32    1
@<TRIPOS>MOLECULE
*****
 49 54 0 0 0
SMALL
GASTEIGER

@<TRIPOS>ATOM
      1 C         -60.5308  -45.4483  -28.0578 C.2     1  UNL1        0.2483
      2 O         -59.2770  -45.4231  -28.1968 O.2     1  UNL1       -0.2701
      3 N         -61.3349  -44.4008  -28.6242 N.am    1  UNL1       -0.2945
      4 H         -62.3126  -44.2934  -28.2710 H       1  UNL1        0.1501
      5 C         -62.3437  -48.6535  -25.8218 C.ar    1  UNL1        0.0502
      6 C         -62.4767  -48.5804  -27.2193 C.ar    1  UNL1        0.0148
      7 C         -61.8907  -47.5343  -27.9358 C.ar    1  UNL1        0.0080
      8 C         -61.1505  -46.5412  -27.2745 C.ar    1  UNL1        0.0808
      9 C         -61.0306  -46.5997  -25.8729 C.ar    1  UNL1        0.1457
     10 F         -60.3843  -45.6246  -25.1849 F       1  UNL1       -0.2040
     11 C         -61.6201  -47.6472  -25.1582 C.ar    1  UNL1        0.0443
     12 N         -64.1794  -51.9648  -23.7915 N.pl3   1  UNL1       -0.3040
     13 C         -64.9927  -51.0439  -24.6011 C.3     1  UNL1        0.1122
     14 C         -64.3624  -49.6496  -24.6722 C.3     1  UNL1        0.1122
     15 N         -62.9522  -49.7338  -25.0789 N.pl3   1  UNL1       -0.3040
     16 C         -62.1329  -50.8796  -24.6536 C.3     1  UNL1        0.1122
     17 C         -62.7799  -51.6330  -23.4872 C.3     1  UNL1        0.1122
     18 C         -65.9711  -55.4731  -22.1275 C.ar    1  UNL1        0.0050
     19 C         -64.5789  -55.2780  -22.0656 C.ar    1  UNL1       -0.0008
     20 C         -63.9944  -54.1319  -22.6092 C.ar    1  UNL1        0.0143
     21 C         -64.7860  -53.1492  -23.2269 C.ar    1  UNL1        0.0502
     22 C         -66.1767  -53.3438  -23.2923 C.ar    1  UNL1        0.0438
     23 C         -66.7653  -54.4903  -22.7498 C.ar    1  UNL1        0.1374
     24 F         -68.1117  -54.6366  -22.8396 F       1  UNL1       -0.2045
     25 C         -67.0844  -56.4701  -20.1007 C.3     1  UNL1        0.0048
     26 C         -66.6038  -56.7218  -21.5350 C.3     1  UNL1        0.0246
     27 C         -67.7485  -57.2333  -22.4181 C.3     1  UNL1        0.0048
     28 C         -60.7564  -43.3180  -29.4315 C.3     1  UNL1        0.1535
     29 C         -60.9706  -43.5635  -30.9149 C.2     1  UNL1        0.2443
     30 O         -60.0264  -43.3544  -31.7240 O.2     1  UNL1       -0.2730
     31 N         -62.1811  -44.1543  -31.4149 N.am    1  UNL1       -0.2825
     32 H         -62.1240  -44.6966  -32.3064 H       1  UNL1        0.1549
     33 C         -63.4349  -44.1407  -30.7200 C.ar    1  UNL1        0.0535
     34 C         -64.3079  -43.0488  -30.8292 C.ar    1  UNL1        0.0353
     35 C         -65.5371  -43.0834  -30.1664 C.ar    1  UNL1        0.1002
     36 N         -65.8890  -44.1772  -29.4392 N.ar    1  UNL1       -0.2422
     37 C         -65.0711  -45.2588  -29.3382 C.ar    1  UNL1        0.1002
     38 C         -63.8336  -45.2642  -29.9862 C.ar    1  UNL1        0.0353
     39 C         -61.3356  -41.9568  -28.9994 C.3     1  UNL1        0.0569
     40 C         -62.1200  -42.0374  -27.7186 C.ar    1  UNL1       -0.0017
     41 C         -63.4992  -41.9032  -27.5839 C.ar    1  UNL1        0.0681
     42 N         -63.8549  -41.9639  -26.2807 N.ar    1  UNL1       -0.3523
     43 C         -62.7130  -42.1306  -25.5912 C.ar    1  UNL1        0.0563
     44 C         -62.5697  -42.2364  -24.2084 C.ar    1  UNL1        0.0170
     45 C         -61.2712  -42.3989  -23.6922 C.ar    1  UNL1        0.0015
     46 C         -60.1577  -42.4519  -24.5598 C.ar    1  UNL1        0.0001
     47 C         -60.3323  -42.3422  -25.9510 C.ar    1  UNL1        0.0012
     48 C         -61.6315  -42.1793  -26.4338 C.ar    1  UNL1        0.0131
     49 H         -64.8211  -41.8861  -25.8924 H       1  UNL1        0.1660
@<TRIPOS>BOND
     1    25    26    1
     2    26    27    1
     3    26    18    1
     4    18    19   ar
     5    19    20   ar
     6    20    21   ar
     7    21    12    1
     8    12    13    1
     9    13    14    1
    10    14    15    1
    11    15     5    1
    12     5     6   ar
    13     6     7   ar
    14     7     8   ar
    15     8     1    1
    16     1     2    2
    17     1     3   am
    18     3    28    1
    19    28    39    1
    20    39    40    1
    21    40    41   ar
    22    41    42   ar
    23    42    43   ar
    24    43    44   ar
    25    44    45   ar
    26    45    46   ar
    27    46    47   ar
    28    47    48   ar
    29    28    29    1
    30    29    30    2
    31    29    31   am
    32    31    33    1
    33    33    34   ar
    34    34    35   ar
    35    35    36   ar
    36    36    37   ar
    37    37    38   ar
    38     8     9   ar
    39     9    10    1
    40     9    11   ar
    41    15    16    1
    42    16    17    1
    43    21    22   ar
    44    22    23   ar
    45    23    24    1
    46    23    18   ar
    47    17    12    1
    48    11     5   ar
    49    48    40   ar
    50    38    33   ar
    51    48    43   ar
    52     3     4    1
    53    42    49    1
    54    31    32    1
@<TRIPOS>MOLECULE
*****
 49 54 0 0 0
SMALL
GASTEIGER

@<TRIPOS>ATOM
      1 C         -60.5981  -45.4720  -26.3597 C.2     1  UNL1        0.2483
      2 O         -59.7850  -46.3466  -25.9526 O.2     1  UNL1       -0.2701
      3 N         -61.0177  -45.4694  -27.7340 N.am    1  UNL1       -0.2945
      4 H         -61.4589  -44.5981  -28.1060 H       1  UNL1        0.1501
      5 C         -61.9458  -42.4550  -23.5955 C.ar    1  UNL1        0.0502
      6 C         -60.7928  -43.2147  -23.3320 C.ar    1  UNL1        0.0148
      7 C         -60.3663  -44.1952  -24.2309 C.ar    1  UNL1        0.0080
      8 C         -61.0763  -44.4341  -25.4185 C.ar    1  UNL1        0.0808
      9 C         -62.2424  -43.6888  -25.6775 C.ar    1  UNL1        0.1457
     10 F         -62.9989  -43.9333  -26.7774 F       1  UNL1       -0.2040
     11 C         -62.6680  -42.7093  -24.7747 C.ar    1  UNL1        0.0443
     12 N         -63.2067  -39.3011  -20.9649 N.pl3   1  UNL1       -0.3040
     13 C         -61.7752  -39.5705  -21.1723 C.3     1  UNL1        0.1122
     14 C         -61.5259  -41.0346  -21.5472 C.3     1  UNL1        0.1122
     15 N         -62.3899  -41.4422  -22.6647 N.pl3   1  UNL1       -0.3040
     16 C         -63.7452  -40.8826  -22.7865 C.3     1  UNL1        0.1122
     17 C         -64.2119  -40.2457  -21.4738 C.3     1  UNL1        0.1122
     18 C         -64.4192  -35.9043  -18.6674 C.ar    1  UNL1        0.0050
     19 C         -65.2124  -37.0658  -18.7075 C.ar    1  UNL1       -0.0008
     20 C         -64.8158  -38.1749  -19.4580 C.ar    1  UNL1        0.0143
     21 C         -63.6147  -38.1536  -20.1864 C.ar    1  UNL1        0.0502
     22 C         -62.8223  -36.9929  -20.1499 C.ar    1  UNL1        0.0438
     23 C         -63.2166  -35.8804  -19.4003 C.ar    1  UNL1        0.1374
     24 F         -62.4208  -34.7807  -19.3979 F       1  UNL1       -0.2045
     25 C         -66.2162  -34.1746  -18.3203 C.3     1  UNL1        0.0048
     26 C         -64.8540  -34.6989  -17.8498 C.3     1  UNL1        0.0246
     27 C         -64.8771  -35.0265  -16.3519 C.3     1  UNL1        0.0048
     28 C         -60.5865  -46.5009  -28.6872 C.3     1  UNL1        0.1535
     29 C         -59.1726  -46.2407  -29.1767 C.2     1  UNL1        0.2443
     30 O         -58.1977  -46.7675  -28.5750 O.2     1  UNL1       -0.2730
     31 N         -58.9156  -45.5144  -30.3896 N.am    1  UNL1       -0.2825
     32 H         -58.0342  -45.7314  -30.9075 H       1  UNL1        0.1549
     33 C         -59.8348  -44.5936  -30.9912 C.ar    1  UNL1        0.0535
     34 C         -59.8605  -44.4044  -32.3804 C.ar    1  UNL1        0.0353
     35 C         -60.7926  -43.5251  -32.9367 C.ar    1  UNL1        0.1002
     36 N         -61.6793  -42.8756  -32.1363 N.ar    1  UNL1       -0.2422
     37 C         -61.6913  -43.0607  -30.7892 C.ar    1  UNL1        0.1002
     38 C         -60.7760  -43.9319  -30.1936 C.ar    1  UNL1        0.0353
     39 C         -60.7125  -47.9017  -28.0572 C.3     1  UNL1        0.0569
     40 C         -62.0960  -48.1856  -27.5398 C.ar    1  UNL1       -0.0017
     41 C         -63.2939  -47.9437  -28.2068 C.ar    1  UNL1        0.0681
     42 N         -64.3460  -48.2575  -27.4173 N.ar    1  UNL1       -0.3523
     43 C         -63.8237  -48.6908  -26.2569 C.ar    1  UNL1        0.0563
     44 C         -64.5182  -49.1173  -25.1257 C.ar    1  UNL1        0.0170
     45 C         -63.7677  -49.5239  -24.0075 C.ar    1  UNL1        0.0015
     46 C         -62.3559  -49.4958  -24.0446 C.ar    1  UNL1        0.0001
     47 C         -61.6818  -49.0603  -25.1997 C.ar    1  UNL1        0.0012
     48 C         -62.4526  -48.6607  -26.2922 C.ar    1  UNL1        0.0131
     49 H         -65.3578  -48.1695  -27.6603 H       1  UNL1        0.1660
@<TRIPOS>BOND
     1    25    26    1
     2    26    27    1
     3    26    18    1
     4    18    19   ar
     5    19    20   ar
     6    20    21   ar
     7    21    12    1
     8    12    13    1
     9    13    14    1
    10    14    15    1
    11    15     5    1
    12     5     6   ar
    13     6     7   ar
    14     7     8   ar
    15     8     1    1
    16     1     2    2
    17     1     3   am
    18     3    28    1
    19    28    39    1
    20    39    40    1
    21    40    41   ar
    22    41    42   ar
    23    42    43   ar
    24    43    44   ar
    25    44    45   ar
    26    45    46   ar
    27    46    47   ar
    28    47    48   ar
    29    28    29    1
    30    29    30    2
    31    29    31   am
    32    31    33    1
    33    33    34   ar
    34    34    35   ar
    35    35    36   ar
    36    36    37   ar
    37    37    38   ar
    38     8     9   ar
    39     9    10    1
    40     9    11   ar
    41    15    16    1
    42    16    17    1
    43    21    22   ar
    44    22    23   ar
    45    23    24    1
    46    23    18   ar
    47    17    12    1
    48    11     5   ar
    49    48    40   ar
    50    38    33   ar
    51    48    43   ar
    52     3     4    1
    53    42    49    1
    54    31    32    1
