@<TRIPOS>MOLECULE
*****
 54 60 0 0 0
SMALL
GASTEIGER

@<TRIPOS>ATOM
      1 C          60.5834   84.5324    9.4890 C.ar    1  UNL1        0.0481
      2 C          59.4728   84.2307   10.2920 C.ar    1  UNL1        0.0176
      3 C          59.5580   83.2395   11.2735 C.ar    1  UNL1        0.0382
      4 C          60.7498   82.5333   11.4699 C.ar    1  UNL1        0.1388
      5 C          61.8651   82.8314   10.6644 C.ar    1  UNL1        0.0382
      6 C          61.7800   83.8223    9.6819 C.ar    1  UNL1        0.0176
      7 N          60.0119   87.7981    6.9135 N.pl3   1  UNL1       -0.3041
      8 C          58.9270   86.8204    7.0611 C.3     1  UNL1        0.1122
      9 C          59.4997   85.4414    7.3976 C.3     1  UNL1        0.1122
     10 N          60.4887   85.5524    8.4767 N.pl3   1  UNL1       -0.3041
     11 C          61.5729   86.5285    8.3150 C.3     1  UNL1        0.1122
     12 C          60.9904   87.9054    8.0023 C.3     1  UNL1        0.1122
     13 C          59.7987   90.8316    3.9266 C.ar    1  UNL1        0.0699
     14 C          60.9918   90.1210    4.1418 C.ar    1  UNL1        0.0190
     15 C          61.0588   89.1261    5.1210 C.ar    1  UNL1        0.0160
     16 C          59.9370   88.8269    5.9084 C.ar    1  UNL1        0.0480
     17 C          58.7451   89.5392    5.6995 C.ar    1  UNL1        0.0160
     18 C          58.6773   90.5341    4.7201 C.ar    1  UNL1        0.0190
     19 N          59.5200   92.9491    0.9878 N.ar    1  UNL1       -0.2024
     20 N          59.8427   93.8479    1.9065 N.ar    1  UNL1       -0.1442
     21 C          59.9700   93.1812    3.0735 C.ar    1  UNL1        0.2073
     22 N          59.7370   91.8591    2.9185 N.ar    1  UNL1       -0.2398
     23 C          59.4705   91.7476    1.6020 C.ar    1  UNL1        0.3522
     24 O          59.2531   90.6543    1.0140 O.2     1  UNL1       -0.2444
     25 C          59.3559   93.2843   -0.4351 C.3     1  UNL1        0.1099
     26 C          57.9487   92.9591   -0.9595 C.3     1  UNL1        0.0265
     27 C          61.8976   92.9488   -0.7886 C.3     1  UNL1        0.0021
     28 C          60.4816   92.6747   -1.2988 C.3     1  UNL1        0.0245
     29 O          60.7840   81.5497   12.4688 O.3     1  UNL1       -0.4727
     30 C          61.7497   81.4984   13.5168 C.3     1  UNL1        0.2388
     31 C          62.6340   82.7491   13.4700 C.3     1  UNL1        0.2036
     32 O          61.8249   83.8769   13.3342 O.3     1  UNL1       -0.3244
     33 C          61.9530   84.6283   14.5278 C.3     1  UNL1        0.2244
     34 O          62.7305   83.9148   15.4666 O.3     1  UNL1       -0.3143
     35 C          63.4219   82.9450   14.7460 C.3     1  UNL1        0.2037
     36 N          64.7737   83.4225   14.4554 N.3     1  UNL1       -0.2971
     37 H          65.2448   83.6297   15.3659 H       1  UNL1        0.1211
     38 H          65.3094   82.6358   14.0213 H       1  UNL1        0.1211
     39 C          62.5906   85.9856   14.2019 C.ar    1  UNL1        0.0404
     40 C          62.6133   86.4087   12.8548 C.ar    1  UNL1        0.0021
     41 C          63.1512   87.6449   12.4955 C.ar    1  UNL1        0.0113
     42 C          63.6624   88.4963   13.4723 C.ar    1  UNL1        0.0585
     43 CL         64.3329   90.0522   13.0175 Cl      1  UNL1       -0.0822
     44 C          63.6238   88.1173   14.8140 C.ar    1  UNL1        0.0226
     45 C          63.0859   86.8807   15.1935 C.ar    1  UNL1        0.0591
     46 CL         63.0238   86.5544   16.9255 Cl      1  UNL1       -0.0824
     47 C          60.5374   84.8219   15.1073 C.3     1  UNL1        0.1339
     48 N          59.6278   85.4350   14.1097 N.3     1  UNL1       -0.2659
     49 C          58.4532   84.5809   13.7890 C.3     1  UNL1        0.0898
     50 C          57.1647   85.0782   14.4648 C.3     1  UNL1        0.0897
     51 N          56.8360   86.4769   14.0918 N.3     1  UNL1       -0.2691
     52 C          55.8213   86.5249   13.0278 C.3     1  UNL1        0.0897
     53 C          58.0192   87.2855   13.7160 C.3     1  UNL1        0.0897
     54 C          59.2671   86.8243   14.4750 C.3     1  UNL1        0.0898
@<TRIPOS>BOND
     1    27    28    1
     2    28    25    1
     3    25    26    1
     4    25    19    1
     5    19    20   ar
     6    20    21   ar
     7    21    22   ar
     8    22    13    1
     9    13    14   ar
    10    14    15   ar
    11    15    16   ar
    12    16     7    1
    13     7     8    1
    14     8     9    1
    15     9    10    1
    16    10     1    1
    17     1     2   ar
    18     2     3   ar
    19     3     4   ar
    20     4    29    1
    21    29    30    1
    22    30    31    1
    23    31    32    1
    24    32    33    1
    25    33    47    1
    26    47    48    1
    27    48    49    1
    28    49    50    1
    29    50    51    1
    30    51    52    1
    31    51    53    1
    32    53    54    1
    33    33    39    1
    34    39    40   ar
    35    40    41   ar
    36    41    42   ar
    37    42    43    1
    38    42    44   ar
    39    44    45   ar
    40    45    46    1
    41    33    34    1
    42    34    35    1
    43    35    36    1
    44     4     5   ar
    45     5     6   ar
    46    10    11    1
    47    11    12    1
    48    16    17   ar
    49    17    18   ar
    50    22    23   ar
    51    23    24    2
    52    23    19   ar
    53    18    13   ar
    54    12     7    1
    55     6     1   ar
    56    35    31    1
    57    54    48    1
    58    45    39   ar
    59    36    37    1
    60    36    38    1
@<TRIPOS>MOLECULE
*****
 54 60 0 0 0
SMALL
GASTEIGER

@<TRIPOS>ATOM
      1 C          60.6277   86.9980   10.8905 C.ar    1  UNL1        0.0481
      2 C          61.8957   86.8748   11.4791 C.ar    1  UNL1        0.0176
      3 C          62.0582   86.1511   12.6636 C.ar    1  UNL1        0.0382
      4 C          60.9610   85.5397   13.2801 C.ar    1  UNL1        0.1388
      5 C          59.6872   85.6635   12.6938 C.ar    1  UNL1        0.0382
      6 C          59.5241   86.3880   11.5094 C.ar    1  UNL1        0.0176
      7 N          60.4736   88.7911    7.0977 N.pl3   1  UNL1       -0.3041
      8 C          61.6604   89.0127    7.9327 C.3     1  UNL1        0.1122
      9 C          61.2856   88.9383    9.4149 C.3     1  UNL1        0.1122
     10 N          60.4656   87.7480    9.6717 N.pl3   1  UNL1       -0.3041
     11 C          59.2777   87.5406    8.8351 C.3     1  UNL1        0.1122
     12 C          59.6659   87.5937    7.3588 C.3     1  UNL1        0.1122
     13 C          59.9463   90.9636    3.4684 C.ar    1  UNL1        0.0699
     14 C          61.1981   90.4190    3.8017 C.ar    1  UNL1        0.0190
     15 C          61.3681   89.7061    4.9916 C.ar    1  UNL1        0.0160
     16 C          60.2923   89.5297    5.8746 C.ar    1  UNL1        0.0480
     17 C          59.0417   90.0777    5.5469 C.ar    1  UNL1        0.0160
     18 C          58.8709   90.7904    4.3568 C.ar    1  UNL1        0.0190
     19 N          59.5428   92.2587    0.0982 N.ar    1  UNL1       -0.2024
     20 N          59.5736   93.3876    0.7915 N.ar    1  UNL1       -0.1442
     21 C          59.7138   93.0423    2.0890 C.ar    1  UNL1        0.2073
     22 N          59.7782   91.7012    2.2422 N.ar    1  UNL1       -0.2398
     23 C          59.6801   91.2438    0.9782 C.ar    1  UNL1        0.3522
     24 O          59.7576   90.0274    0.6577 O.2     1  UNL1       -0.2444
     25 C          59.4625   92.2247   -1.3702 C.3     1  UNL1        0.1099
     26 C          59.5929   93.6197   -2.0008 C.3     1  UNL1        0.0265
     27 C          56.8802   92.1023   -1.4912 C.3     1  UNL1        0.0021
     28 C          58.2164   91.4527   -1.8562 C.3     1  UNL1        0.0245
     29 O          61.1774   84.8236   14.4662 O.3     1  UNL1       -0.4727
     30 C          62.2659   83.9273   14.6794 C.3     1  UNL1        0.2388
     31 C          61.8307   82.4947   14.3531 C.3     1  UNL1        0.2036
     32 O          60.7272   82.5344   13.5012 O.3     1  UNL1       -0.3244
     33 C          61.1403   81.9961   12.2581 C.3     1  UNL1        0.2244
     34 O          62.5296   81.7428   12.2792 O.3     1  UNL1       -0.3143
     35 C          62.9032   81.7201   13.6200 C.3     1  UNL1        0.2037
     36 N          62.9586   80.3357   14.0891 N.3     1  UNL1       -0.2971
     37 H          63.6462   79.8208   13.4925 H       1  UNL1        0.1211
     38 H          63.3546   80.3368   15.0573 H       1  UNL1        0.1211
     39 C          60.3498   80.7108   11.9789 C.ar    1  UNL1        0.0404
     40 C          59.0597   80.5827   12.5389 C.ar    1  UNL1        0.0021
     41 C          58.2775   79.4527   12.2988 C.ar    1  UNL1        0.0113
     42 C          58.7551   78.4319   11.4801 C.ar    1  UNL1        0.0585
     43 CL         57.7666   77.0150   11.1760 Cl      1  UNL1       -0.0822
     44 C          60.0129   78.5465   10.8883 C.ar    1  UNL1        0.0226
     45 C          60.8114   79.6746   11.1167 C.ar    1  UNL1        0.0591
     46 CL         62.3453   79.7345   10.2484 Cl      1  UNL1       -0.0824
     47 C          60.8496   83.0547   11.1755 C.3     1  UNL1        0.1339
     48 N          61.6263   82.7880    9.9410 N.3     1  UNL1       -0.2659
     49 C          60.7681   82.6053    8.7401 C.3     1  UNL1        0.0898
     50 C          60.7703   83.8405    7.8244 C.3     1  UNL1        0.0897
     51 N          62.1358   84.2012    7.3674 N.3     1  UNL1       -0.2691
     52 C          62.4010   83.6923    6.0129 C.3     1  UNL1        0.0897
     53 C          63.2062   83.7757    8.2993 C.3     1  UNL1        0.0897
     54 C          62.7102   83.7788    9.7485 C.3     1  UNL1        0.0898
@<TRIPOS>BOND
     1    27    28    1
     2    28    25    1
     3    25    26    1
     4    25    19    1
     5    19    20   ar
     6    20    21   ar
     7    21    22   ar
     8    22    13    1
     9    13    14   ar
    10    14    15   ar
    11    15    16   ar
    12    16     7    1
    13     7     8    1
    14     8     9    1
    15     9    10    1
    16    10     1    1
    17     1     2   ar
    18     2     3   ar
    19     3     4   ar
    20     4    29    1
    21    29    30    1
    22    30    31    1
    23    31    32    1
    24    32    33    1
    25    33    47    1
    26    47    48    1
    27    48    49    1
    28    49    50    1
    29    50    51    1
    30    51    52    1
    31    51    53    1
    32    53    54    1
    33    33    39    1
    34    39    40   ar
    35    40    41   ar
    36    41    42   ar
    37    42    43    1
    38    42    44   ar
    39    44    45   ar
    40    45    46    1
    41    33    34    1
    42    34    35    1
    43    35    36    1
    44     4     5   ar
    45     5     6   ar
    46    10    11    1
    47    11    12    1
    48    16    17   ar
    49    17    18   ar
    50    22    23   ar
    51    23    24    2
    52    23    19   ar
    53    18    13   ar
    54    12     7    1
    55     6     1   ar
    56    35    31    1
    57    54    48    1
    58    45    39   ar
    59    36    37    1
    60    36    38    1
@<TRIPOS>MOLECULE
*****
 54 60 0 0 0
SMALL
GASTEIGER

@<TRIPOS>ATOM
      1 C          60.6622   86.9926   10.9486 C.ar    1  UNL1        0.0481
      2 C          61.9433   86.7980   11.4875 C.ar    1  UNL1        0.0176
      3 C          62.1087   86.0875   12.6795 C.ar    1  UNL1        0.0382
      4 C          61.0014   85.5604   13.3531 C.ar    1  UNL1        0.1388
      5 C          59.7147   85.7559   12.8168 C.ar    1  UNL1        0.0382
      6 C          59.5487   86.4674   11.6249 C.ar    1  UNL1        0.0176
      7 N          60.5503   88.7792    7.1512 N.pl3   1  UNL1       -0.3041
      8 C          61.6605   89.1113    8.0523 C.3     1  UNL1        0.1122
      9 C          61.2111   88.9942    9.5108 C.3     1  UNL1        0.1122
     10 N          60.4975   87.7287    9.7217 N.pl3   1  UNL1       -0.3041
     11 C          59.3848   87.4106    8.8190 C.3     1  UNL1        0.1122
     12 C          59.8493   87.5078    7.3671 C.3     1  UNL1        0.1122
     13 C          60.0015   90.9324    3.5137 C.ar    1  UNL1        0.0699
     14 C          58.9401   90.7777    4.4215 C.ar    1  UNL1        0.0190
     15 C          59.1229   90.0723    5.6140 C.ar    1  UNL1        0.0160
     16 C          60.3678   89.5021    5.9190 C.ar    1  UNL1        0.0480
     17 C          61.4287   89.6502    5.0112 C.ar    1  UNL1        0.0160
     18 C          61.2467   90.3560    3.8186 C.ar    1  UNL1        0.0190
     19 N          59.5534   92.1954    0.1370 N.ar    1  UNL1       -0.2024
     20 N          59.5340   93.3274    0.8255 N.ar    1  UNL1       -0.1442
     21 C          59.6849   92.9937    2.1249 C.ar    1  UNL1        0.2073
     22 N          59.8058   91.6572    2.2839 N.ar    1  UNL1       -0.2398
     23 C          59.7312   91.1909    1.0216 C.ar    1  UNL1        0.3522
     24 O          59.8614   89.9776    0.7064 O.2     1  UNL1       -0.2444
     25 C          59.4791   92.1520   -1.3315 C.3     1  UNL1        0.1099
     26 C          60.4905   93.0947   -2.0017 C.3     1  UNL1        0.0265
     27 C          57.0668   91.2256   -1.4738 C.3     1  UNL1        0.0021
     28 C          58.0338   92.3543   -1.8363 C.3     1  UNL1        0.0245
     29 O          61.2211   84.8539   14.5444 O.3     1  UNL1       -0.4727
     30 C          62.2582   83.8935   14.7324 C.3     1  UNL1        0.2388
     31 C          61.7417   82.4950   14.3781 C.3     1  UNL1        0.2036
     32 O          60.6739   82.6132   13.4887 O.3     1  UNL1       -0.3244
     33 C          61.0944   82.0572   12.2559 C.3     1  UNL1        0.2244
     34 O          62.4625   81.7127   12.3230 O.3     1  UNL1       -0.3143
     35 C          62.7861   81.6563   13.6757 C.3     1  UNL1        0.2037
     36 N          62.7338   80.2681   14.1338 N.3     1  UNL1       -0.2971
     37 H          63.4068   79.7130   13.5569 H       1  UNL1        0.1211
     38 H          63.0946   80.2365   15.1153 H       1  UNL1        0.1211
     39 C          60.2314   80.8288   11.9376 C.ar    1  UNL1        0.0404
     40 C          60.8789   79.5915   11.7278 C.ar    1  UNL1        0.0021
     41 C          60.1504   78.4312   11.4644 C.ar    1  UNL1        0.0113
     42 C          58.7587   78.4729   11.4220 C.ar    1  UNL1        0.0585
     43 CL         57.8458   77.0109   11.0960 Cl      1  UNL1       -0.0822
     44 C          58.0920   79.6753   11.6571 C.ar    1  UNL1        0.0226
     45 C          58.8069   80.8498   11.9248 C.ar    1  UNL1        0.0591
     46 CL         57.8459   82.2848   12.2822 Cl      1  UNL1       -0.0824
     47 C          60.9123   83.1400   11.1735 C.3     1  UNL1        0.1339
     48 N          61.6812   82.8106    9.9493 N.3     1  UNL1       -0.2659
     49 C          60.8146   82.5503    8.7689 C.3     1  UNL1        0.0898
     50 C          60.7958   83.7306    7.7837 C.3     1  UNL1        0.0897
     51 N          62.1533   84.0783    7.2941 N.3     1  UNL1       -0.2691
     52 C          62.4123   83.4949    5.9687 C.3     1  UNL1        0.0897
     53 C          63.2362   83.7182    8.2390 C.3     1  UNL1        0.0897
     54 C          62.7527   83.7997    9.6901 C.3     1  UNL1        0.0898
@<TRIPOS>BOND
     1    27    28    1
     2    28    25    1
     3    25    26    1
     4    25    19    1
     5    19    20   ar
     6    20    21   ar
     7    21    22   ar
     8    22    13    1
     9    13    14   ar
    10    14    15   ar
    11    15    16   ar
    12    16     7    1
    13     7     8    1
    14     8     9    1
    15     9    10    1
    16    10     1    1
    17     1     2   ar
    18     2     3   ar
    19     3     4   ar
    20     4    29    1
    21    29    30    1
    22    30    31    1
    23    31    32    1
    24    32    33    1
    25    33    47    1
    26    47    48    1
    27    48    49    1
    28    49    50    1
    29    50    51    1
    30    51    52    1
    31    51    53    1
    32    53    54    1
    33    33    39    1
    34    39    40   ar
    35    40    41   ar
    36    41    42   ar
    37    42    43    1
    38    42    44   ar
    39    44    45   ar
    40    45    46    1
    41    33    34    1
    42    34    35    1
    43    35    36    1
    44     4     5   ar
    45     5     6   ar
    46    10    11    1
    47    11    12    1
    48    16    17   ar
    49    17    18   ar
    50    22    23   ar
    51    23    24    2
    52    23    19   ar
    53    18    13   ar
    54    12     7    1
    55     6     1   ar
    56    35    31    1
    57    54    48    1
    58    45    39   ar
    59    36    37    1
    60    36    38    1
@<TRIPOS>MOLECULE
*****
 54 60 0 0 0
SMALL
GASTEIGER

@<TRIPOS>ATOM
      1 C          60.7935   87.0515   10.9670 C.ar    1  UNL1        0.0481
      2 C          62.0829   86.7920   11.4564 C.ar    1  UNL1        0.0176
      3 C          62.2576   86.0839   12.6485 C.ar    1  UNL1        0.0382
      4 C          61.1515   85.6239   13.3715 C.ar    1  UNL1        0.1388
      5 C          59.8566   85.8847   12.8848 C.ar    1  UNL1        0.0382
      6 C          59.6814   86.5938   11.6928 C.ar    1  UNL1        0.0176
      7 N          60.5919   88.7865    7.1494 N.pl3   1  UNL1       -0.3041
      8 C          61.8002   88.9988    7.9556 C.3     1  UNL1        0.1122
      9 C          61.4558   88.9552    9.4463 C.3     1  UNL1        0.1122
     10 N          60.6194   87.7849    9.7398 N.pl3   1  UNL1       -0.3041
     11 C          59.4103   87.5867    8.9318 C.3     1  UNL1        0.1122
     12 C          59.7678   87.6089    7.4470 C.3     1  UNL1        0.1122
     13 C          60.0097   90.9374    3.5157 C.ar    1  UNL1        0.0699
     14 C          58.9446   90.7433    4.4115 C.ar    1  UNL1        0.0190
     15 C          59.1384   90.0387    5.6028 C.ar    1  UNL1        0.0160
     16 C          60.3984   89.5087    5.9185 C.ar    1  UNL1        0.0480
     17 C          61.4631   89.6962    5.0225 C.ar    1  UNL1        0.0160
     18 C          61.2702   90.4012    3.8312 C.ar    1  UNL1        0.0190
     19 N          59.5375   92.1981    0.1414 N.ar    1  UNL1       -0.2024
     20 N          59.5104   93.3295    0.8307 N.ar    1  UNL1       -0.1442
     21 C          59.6692   92.9965    2.1293 C.ar    1  UNL1        0.2073
     22 N          59.8029   91.6611    2.2871 N.ar    1  UNL1       -0.2398
     23 C          59.7278   91.1947    1.0247 C.ar    1  UNL1        0.3522
     24 O          59.8678   89.9829    0.7084 O.2     1  UNL1       -0.2444
     25 C          59.4582   92.1549   -1.3268 C.3     1  UNL1        0.1099
     26 C          60.5295   93.0253   -2.0016 C.3     1  UNL1        0.0265
     27 C          57.0196   91.3282   -1.5873 C.3     1  UNL1        0.0021
     28 C          58.0288   92.4520   -1.8303 C.3     1  UNL1        0.0245
     29 O          61.3806   84.9168   14.5606 O.3     1  UNL1       -0.4727
     30 C          62.3753   83.9075   14.7194 C.3     1  UNL1        0.2388
     31 C          61.7518   82.5247   14.5015 C.3     1  UNL1        0.2036
     32 O          61.0469   82.5250   13.2982 O.3     1  UNL1       -0.3244
     33 C          61.7188   81.6391   12.4209 C.3     1  UNL1        0.2244
     34 O          62.9162   81.1852   13.0167 O.3     1  UNL1       -0.3143
     35 C          62.7944   81.4357   14.3806 C.3     1  UNL1        0.2037
     36 N          62.3580   80.2185   15.0646 N.3     1  UNL1       -0.2971
     37 H          63.0652   79.4716   14.8754 H       1  UNL1        0.1211
     38 H          62.3890   80.3965   16.0950 H       1  UNL1        0.1211
     39 C          60.7907   80.4644   12.0842 C.ar    1  UNL1        0.0404
     40 C          59.5842   80.3353   12.8068 C.ar    1  UNL1        0.0021
     41 C          58.6830   79.3072   12.5291 C.ar    1  UNL1        0.0113
     42 C          58.9540   78.3944   11.5124 C.ar    1  UNL1        0.0585
     43 CL         57.8159   77.1063   11.1622 Cl      1  UNL1       -0.0822
     44 C          60.1231   78.5171   10.7616 C.ar    1  UNL1        0.0226
     45 C          61.0387   79.5441   11.0252 C.ar    1  UNL1        0.0591
     46 CL         62.4373   79.6372    9.9549 Cl      1  UNL1       -0.0824
     47 C          62.0729   82.4302   11.1458 C.3     1  UNL1        0.1339
     48 N          60.9647   83.3310   10.7472 N.3     1  UNL1       -0.2659
     49 C          61.1042   83.8487    9.3600 C.3     1  UNL1        0.0898
     50 C          60.1605   83.1422    8.3728 C.3     1  UNL1        0.0897
     51 N          58.7355   83.2622    8.7710 N.3     1  UNL1       -0.2691
     52 C          58.0588   84.3368    8.0284 C.3     1  UNL1        0.0897
     53 C          58.5384   83.4365   10.2290 C.3     1  UNL1        0.0897
     54 C          59.6401   82.7289   11.0237 C.3     1  UNL1        0.0898
@<TRIPOS>BOND
     1    27    28    1
     2    28    25    1
     3    25    26    1
     4    25    19    1
     5    19    20   ar
     6    20    21   ar
     7    21    22   ar
     8    22    13    1
     9    13    14   ar
    10    14    15   ar
    11    15    16   ar
    12    16     7    1
    13     7     8    1
    14     8     9    1
    15     9    10    1
    16    10     1    1
    17     1     2   ar
    18     2     3   ar
    19     3     4   ar
    20     4    29    1
    21    29    30    1
    22    30    31    1
    23    31    32    1
    24    32    33    1
    25    33    47    1
    26    47    48    1
    27    48    49    1
    28    49    50    1
    29    50    51    1
    30    51    52    1
    31    51    53    1
    32    53    54    1
    33    33    39    1
    34    39    40   ar
    35    40    41   ar
    36    41    42   ar
    37    42    43    1
    38    42    44   ar
    39    44    45   ar
    40    45    46    1
    41    33    34    1
    42    34    35    1
    43    35    36    1
    44     4     5   ar
    45     5     6   ar
    46    10    11    1
    47    11    12    1
    48    16    17   ar
    49    17    18   ar
    50    22    23   ar
    51    23    24    2
    52    23    19   ar
    53    18    13   ar
    54    12     7    1
    55     6     1   ar
    56    35    31    1
    57    54    48    1
    58    45    39   ar
    59    36    37    1
    60    36    38    1
@<TRIPOS>MOLECULE
*****
 54 60 0 0 0
SMALL
GASTEIGER

@<TRIPOS>ATOM
      1 C          60.2030   85.9953   10.1525 C.ar    1  UNL1        0.0481
      2 C          61.3821   85.8036   10.8889 C.ar    1  UNL1        0.0176
      3 C          61.3709   85.0315   12.0536 C.ar    1  UNL1        0.0382
      4 C          60.1858   84.4390   12.5031 C.ar    1  UNL1        0.1388
      5 C          59.0006   84.6312   11.7684 C.ar    1  UNL1        0.0382
      6 C          59.0112   85.4043   10.6036 C.ar    1  UNL1        0.0176
      7 N          59.8334   88.6165    6.8941 N.pl3   1  UNL1       -0.3041
      8 C          58.8969   87.4912    7.0013 C.3     1  UNL1        0.1122
      9 C          59.5580   86.3207    7.7332 C.3     1  UNL1        0.1122
     10 N          60.2197   86.7949    8.9548 N.pl3   1  UNL1       -0.3041
     11 C          61.1592   87.9161    8.8343 C.3     1  UNL1        0.1122
     12 C          60.4831   89.0868    8.1234 C.3     1  UNL1        0.1122
     13 C          59.9214   91.0367    3.3864 C.ar    1  UNL1        0.0699
     14 C          58.7503   90.9335    4.1561 C.ar    1  UNL1        0.0190
     15 C          58.7243   90.1403    5.3064 C.ar    1  UNL1        0.0160
     16 C          59.8660   89.4296    5.7058 C.ar    1  UNL1        0.0480
     17 C          61.0360   89.5263    4.9355 C.ar    1  UNL1        0.0160
     18 C          61.0628   90.3197    3.7852 C.ar    1  UNL1        0.0190
     19 N          59.8690   92.5536    0.0857 N.ar    1  UNL1       -0.2024
     20 N          60.1393   93.6117    0.8364 N.ar    1  UNL1       -0.1442
     21 C          60.1789   93.1803    2.1150 C.ar    1  UNL1        0.2073
     22 N          59.9408   91.8527    2.1991 N.ar    1  UNL1       -0.2398
     23 C          59.7632   91.4916    0.9128 C.ar    1  UNL1        0.3522
     24 O          59.5731   90.3058    0.5304 O.2     1  UNL1       -0.2444
     25 C          59.8061   92.6108   -1.3828 C.3     1  UNL1        0.1099
     26 C          61.0113   93.3395   -1.9971 C.3     1  UNL1        0.0265
     27 C          57.2823   92.1773   -1.7572 C.3     1  UNL1        0.0021
     28 C          58.4492   93.1595   -1.8753 C.3     1  UNL1        0.0245
     29 O          60.2281   83.6723   13.6765 O.3     1  UNL1       -0.4727
     30 C          61.4266   83.3014   14.3544 C.3     1  UNL1        0.2388
     31 C          61.9015   81.9315   13.8581 C.3     1  UNL1        0.2036
     32 O          60.9120   81.3683   13.0528 O.3     1  UNL1       -0.3244
     33 C          61.4342   81.2976   11.7382 C.3     1  UNL1        0.2244
     34 O          62.6933   81.9353   11.6837 O.3     1  UNL1       -0.3143
     35 C          63.1419   82.0290   12.9982 C.3     1  UNL1        0.2037
     36 N          64.0601   80.9262   13.2816 N.3     1  UNL1       -0.2971
     37 H          64.8534   80.9850   12.6025 H       1  UNL1        0.1211
     38 H          64.4741   81.0840   14.2292 H       1  UNL1        0.1211
     39 C          61.5432   79.8255   11.3187 C.ar    1  UNL1        0.0404
     40 C          62.4382   79.4896   10.2793 C.ar    1  UNL1        0.0021
     41 C          62.6063   78.1662    9.8710 C.ar    1  UNL1        0.0113
     42 C          61.9000   77.1442   10.5012 C.ar    1  UNL1        0.0585
     43 CL         62.1180   75.4807    9.9889 Cl      1  UNL1       -0.0822
     44 C          61.0331   77.4439   11.5519 C.ar    1  UNL1        0.0226
     45 C          60.8531   78.7667   11.9764 C.ar    1  UNL1        0.0591
     46 CL         59.7913   79.0039   13.3645 Cl      1  UNL1       -0.0824
     47 C          60.4600   82.0524   10.8117 C.3     1  UNL1        0.1339
     48 N          60.2639   81.3275    9.5332 N.3     1  UNL1       -0.2659
     49 C          59.0764   80.4320    9.5468 C.3     1  UNL1        0.0898
     50 C          57.8892   81.0208    8.7671 C.3     1  UNL1        0.0897
     51 N          58.2327   81.3134    7.3529 N.3     1  UNL1       -0.2691
     52 C          57.7743   80.2413    6.4559 C.3     1  UNL1        0.0897
     53 C          59.6718   81.5903    7.1359 C.3     1  UNL1        0.0897
     54 C          60.3007   82.2438    8.3702 C.3     1  UNL1        0.0898
@<TRIPOS>BOND
     1    27    28    1
     2    28    25    1
     3    25    26    1
     4    25    19    1
     5    19    20   ar
     6    20    21   ar
     7    21    22   ar
     8    22    13    1
     9    13    14   ar
    10    14    15   ar
    11    15    16   ar
    12    16     7    1
    13     7     8    1
    14     8     9    1
    15     9    10    1
    16    10     1    1
    17     1     2   ar
    18     2     3   ar
    19     3     4   ar
    20     4    29    1
    21    29    30    1
    22    30    31    1
    23    31    32    1
    24    32    33    1
    25    33    47    1
    26    47    48    1
    27    48    49    1
    28    49    50    1
    29    50    51    1
    30    51    52    1
    31    51    53    1
    32    53    54    1
    33    33    39    1
    34    39    40   ar
    35    40    41   ar
    36    41    42   ar
    37    42    43    1
    38    42    44   ar
    39    44    45   ar
    40    45    46    1
    41    33    34    1
    42    34    35    1
    43    35    36    1
    44     4     5   ar
    45     5     6   ar
    46    10    11    1
    47    11    12    1
    48    16    17   ar
    49    17    18   ar
    50    22    23   ar
    51    23    24    2
    52    23    19   ar
    53    18    13   ar
    54    12     7    1
    55     6     1   ar
    56    35    31    1
    57    54    48    1
    58    45    39   ar
    59    36    37    1
    60    36    38    1
@<TRIPOS>MOLECULE
*****
 54 60 0 0 0
SMALL
GASTEIGER

@<TRIPOS>ATOM
      1 C          60.7794   86.6186   10.8663 C.ar    1  UNL1        0.0481
      2 C          62.0304   86.4137   11.4682 C.ar    1  UNL1        0.0176
      3 C          62.1209   85.7970   12.7190 C.ar    1  UNL1        0.0382
      4 C          60.9676   85.3756   13.3896 C.ar    1  UNL1        0.1388
      5 C          59.7108   85.5818   12.7900 C.ar    1  UNL1        0.0382
      6 C          59.6197   86.1995   11.5391 C.ar    1  UNL1        0.0176
      7 N          60.0918   88.7670    7.3256 N.pl3   1  UNL1       -0.3041
      8 C          59.2535   87.5965    7.6121 C.3     1  UNL1        0.1122
      9 C          60.0310   86.5827    8.4552 C.3     1  UNL1        0.1122
     10 N          60.6919   87.2579    9.5787 N.pl3   1  UNL1       -0.3041
     11 C          61.5331   88.4228    9.2793 C.3     1  UNL1        0.1122
     12 C          60.7413   89.4383    8.4577 C.3     1  UNL1        0.1122
     13 C          59.8681   90.7195    3.5431 C.ar    1  UNL1        0.0699
     14 C          58.7354   90.6275    4.3697 C.ar    1  UNL1        0.0190
     15 C          58.8117   89.9878    5.6099 C.ar    1  UNL1        0.0160
     16 C          60.0193   89.4218    6.0449 C.ar    1  UNL1        0.0480
     17 C          61.1513   89.5072    5.2186 C.ar    1  UNL1        0.0160
     18 C          61.0759   90.1472    3.9783 C.ar    1  UNL1        0.0190
     19 N          60.2456   92.5536    0.4300 N.ar    1  UNL1       -0.2024
     20 N          58.9813   92.1684    0.3345 N.ar    1  UNL1       -0.1442
     21 C          58.7084   91.4541    1.4471 C.ar    1  UNL1        0.2073
     22 N          59.7823   91.3765    2.2637 N.ar    1  UNL1       -0.2398
     23 C          60.7206   92.0838    1.6034 C.ar    1  UNL1        0.3522
     24 O          61.8758   92.3169    2.0500 O.2     1  UNL1       -0.2444
     25 C          60.8968   93.4131   -0.5706 C.3     1  UNL1        0.1099
     26 C          60.4221   93.1168   -2.0015 C.3     1  UNL1        0.0265
     27 C          63.1724   92.6494   -1.5382 C.3     1  UNL1        0.0021
     28 C          62.4341   93.3952   -0.4250 C.3     1  UNL1        0.0245
     29 O          61.1125   84.7605   14.6415 O.3     1  UNL1       -0.4727
     30 C          62.1474   83.8363   14.9705 C.3     1  UNL1        0.2388
     31 C          61.7221   82.4180   14.5758 C.3     1  UNL1        0.2036
     32 O          60.6791   82.4929   13.6531 O.3     1  UNL1       -0.3244
     33 C          61.1703   81.9841   12.4260 C.3     1  UNL1        0.2244
     34 O          62.5527   81.7150   12.5335 O.3     1  UNL1       -0.3143
     35 C          62.8345   81.6518   13.8953 C.3     1  UNL1        0.2037
     36 N          62.8453   80.2546   14.3284 N.3     1  UNL1       -0.2971
     37 H          63.5670   79.7485   13.7653 H       1  UNL1        0.1211
     38 H          63.1750   80.2250   15.3207 H       1  UNL1        0.1211
     39 C          60.3887   80.7156   12.0586 C.ar    1  UNL1        0.0404
     40 C          59.0485   80.6060   12.4901 C.ar    1  UNL1        0.0021
     41 C          58.2740   79.4924   12.1640 C.ar    1  UNL1        0.0113
     42 C          58.8110   78.4702   11.3848 C.ar    1  UNL1        0.0585
     43 CL         57.8325   77.0740   10.9721 Cl      1  UNL1       -0.0822
     44 C          60.1219   78.5672   10.9184 C.ar    1  UNL1        0.0226
     45 C          60.9137   79.6788   11.2344 C.ar    1  UNL1        0.0591
     46 CL         62.5252   79.7186   10.5190 Cl      1  UNL1       -0.0824
     47 C          60.9632   83.0749   11.3563 C.3     1  UNL1        0.1339
     48 N          61.5090   82.6513   10.0444 N.3     1  UNL1       -0.2659
     49 C          60.4516   82.3254    9.0505 C.3     1  UNL1        0.0898
     50 C          60.2684   83.4365    8.0037 C.3     1  UNL1        0.0897
     51 N          61.5231   83.7288    7.2662 N.3     1  UNL1       -0.2691
     52 C          61.5482   83.0531    5.9597 C.3     1  UNL1        0.0897
     53 C          62.7507   83.4164    8.0345 C.3     1  UNL1        0.0897
     54 C          62.5240   83.6035    9.5377 C.3     1  UNL1        0.0898
@<TRIPOS>BOND
     1    27    28    1
     2    28    25    1
     3    25    26    1
     4    25    19    1
     5    19    20   ar
     6    20    21   ar
     7    21    22   ar
     8    22    13    1
     9    13    14   ar
    10    14    15   ar
    11    15    16   ar
    12    16     7    1
    13     7     8    1
    14     8     9    1
    15     9    10    1
    16    10     1    1
    17     1     2   ar
    18     2     3   ar
    19     3     4   ar
    20     4    29    1
    21    29    30    1
    22    30    31    1
    23    31    32    1
    24    32    33    1
    25    33    47    1
    26    47    48    1
    27    48    49    1
    28    49    50    1
    29    50    51    1
    30    51    52    1
    31    51    53    1
    32    53    54    1
    33    33    39    1
    34    39    40   ar
    35    40    41   ar
    36    41    42   ar
    37    42    43    1
    38    42    44   ar
    39    44    45   ar
    40    45    46    1
    41    33    34    1
    42    34    35    1
    43    35    36    1
    44     4     5   ar
    45     5     6   ar
    46    10    11    1
    47    11    12    1
    48    16    17   ar
    49    17    18   ar
    50    22    23   ar
    51    23    24    2
    52    23    19   ar
    53    18    13   ar
    54    12     7    1
    55     6     1   ar
    56    35    31    1
    57    54    48    1
    58    45    39   ar
    59    36    37    1
    60    36    38    1
