@<TRIPOS>MOLECULE
*****
 51 56 0 0 0
SMALL
GASTEIGER

@<TRIPOS>ATOM
      1 N          59.9141   88.3861    7.0478 N.pl3   1  UNL1       -0.3037
      2 C          60.0088   86.9310    6.8548 C.3     1  UNL1        0.1123
      3 C          59.5055   86.1586    8.0806 C.3     1  UNL1        0.1126
      4 N          60.0903   86.6639    9.3362 N.pl3   1  UNL1       -0.2968
      5 C          60.5346   88.0697    9.4263 C.3     1  UNL1        0.1924
      6 C          59.7889   88.9407    8.4034 C.3     1  UNL1        0.1221
      7 C          59.8352   90.9773    3.6515 C.ar    1  UNL1        0.0699
      8 C          61.0097   90.2877    3.9957 C.ar    1  UNL1        0.0190
      9 C          61.0352   89.4393    5.1059 C.ar    1  UNL1        0.0160
     10 C          59.8879   89.2629    5.8994 C.ar    1  UNL1        0.0480
     11 C          58.7165   89.9622    5.5593 C.ar    1  UNL1        0.0160
     12 C          58.6917   90.8108    4.4494 C.ar    1  UNL1        0.0190
     13 N          59.5684   92.6877    0.4605 N.ar    1  UNL1       -0.2024
     14 N          59.9408   93.6920    1.2398 N.ar    1  UNL1       -0.1442
     15 C          60.0783   93.1814    2.4827 C.ar    1  UNL1        0.2073
     16 N          59.8034   91.8575    2.5112 N.ar    1  UNL1       -0.2398
     17 C          59.4824   91.5852    1.2309 C.ar    1  UNL1        0.3522
     18 O          59.1138   90.4544    0.8133 O.2     1  UNL1       -0.2444
     19 C          59.2958   92.8269   -0.9750 C.3     1  UNL1        0.1099
     20 C          60.2578   93.8472   -1.5984 C.3     1  UNL1        0.0265
     21 C          56.9508   91.9820   -1.5458 C.3     1  UNL1        0.0021
     22 C          57.8149   93.1958   -1.2035 C.3     1  UNL1        0.0245
     23 C          60.0849   85.8216   10.5180 C.ar    1  UNL1        0.0485
     24 C          61.2801   85.5427   11.2086 C.ar    1  UNL1        0.0176
     25 C          61.2704   84.7537   12.3605 C.ar    1  UNL1        0.0382
     26 C          60.0746   84.2347   12.8624 C.ar    1  UNL1        0.1388
     27 C          58.8816   84.4707   12.1562 C.ar    1  UNL1        0.0382
     28 C          58.8876   85.2601   11.0026 C.ar    1  UNL1        0.0176
     29 O          60.1354   83.4847   14.0480 O.3     1  UNL1       -0.4727
     30 C          60.6892   82.1760   14.2094 C.3     1  UNL1        0.2374
     31 C          60.4203   81.2841   12.9849 C.3     1  UNL1        0.1909
     32 C          60.9052   79.8710   13.1260 C.3     1  UNL1        0.1783
     33 O          61.2871   79.4698   11.8481 O.3     1  UNL1       -0.3271
     34 C          61.3375   80.6432   11.0559 C.3     1  UNL1        0.2232
     35 O          61.0622   81.7781   11.8535 O.3     1  UNL1       -0.3258
     36 C          60.3142   80.5457    9.9177 C.ar    1  UNL1        0.0404
     37 C          60.6408   81.0559    8.6416 C.ar    1  UNL1        0.0021
     38 C          59.7255   81.0010    7.5891 C.ar    1  UNL1        0.0113
     39 C          58.4589   80.4550    7.7894 C.ar    1  UNL1        0.0585
     40 CL         57.3109   80.3905    6.4646 Cl      1  UNL1       -0.0822
     41 C          58.1002   79.9748    9.0492 C.ar    1  UNL1        0.0226
     42 C          59.0063   80.0237   10.1162 C.ar    1  UNL1        0.0591
     43 CL         58.4284   79.4466   11.6789 Cl      1  UNL1       -0.0824
     44 C          62.7518   80.7726   10.4515 C.3     1  UNL1        0.1338
     45 N          63.3891   82.0491   10.8575 N.3     1  UNL1       -0.2659
     46 C          64.0291   82.7010    9.7026 C.3     1  UNL1        0.0898
     47 C          64.3934   81.8372   11.9149 C.3     1  UNL1        0.0898
     48 C          62.0240   88.1882    9.2267 C.2     1  UNL1        0.3337
     49 O          62.7223   87.1754    8.9508 O.2     1  UNL1       -0.2484
     50 O          62.6300   89.4366    9.3261 O.3     1  UNL1       -0.4790
     51 H          63.6279   89.5422    9.1874 H       1  UNL1        0.2951
@<TRIPOS>BOND
     1    21    22    1
     2    22    19    1
     3    19    20    1
     4    19    13    1
     5    13    14   ar
     6    14    15   ar
     7    15    16   ar
     8    16     7    1
     9     7     8   ar
    10     8     9   ar
    11     9    10   ar
    12    10     1    1
    13     1     2    1
    14     2     3    1
    15     3     4    1
    16     4    23    1
    17    23    24   ar
    18    24    25   ar
    19    25    26   ar
    20    26    29    1
    21    29    30    1
    22    30    31    1
    23    31    32    1
    24    32    33    1
    25    33    34    1
    26    34    44    1
    27    44    45    1
    28    45    46    1
    29    45    47    1
    30    34    36    1
    31    36    37   ar
    32    37    38   ar
    33    38    39   ar
    34    39    40    1
    35    39    41   ar
    36    41    42   ar
    37    42    43    1
    38    34    35    1
    39    26    27   ar
    40    27    28   ar
    41     4     5    1
    42     5    48    1
    43    48    49    2
    44    48    50    1
    45     5     6    1
    46    10    11   ar
    47    11    12   ar
    48    16    17   ar
    49    17    18    2
    50    17    13   ar
    51    12     7   ar
    52     6     1    1
    53    28    23   ar
    54    35    31    1
    55    42    36   ar
    56    50    51    1
@<TRIPOS>MOLECULE
*****
 51 56 0 0 0
SMALL
GASTEIGER

@<TRIPOS>ATOM
      1 N          60.1704   88.5317    7.2313 N.pl3   1  UNL1       -0.3037
      2 C          60.3289   87.0705    7.1735 C.3     1  UNL1        0.1123
      3 C          59.8882   86.3964    8.4788 C.3     1  UNL1        0.1126
      4 N          60.4750   87.0441    9.6662 N.pl3   1  UNL1       -0.2968
      5 C          60.8549   88.4705    9.6125 C.3     1  UNL1        0.1924
      6 C          60.0480   89.2064    8.5316 C.3     1  UNL1        0.1221
      7 C          59.8992   90.7825    3.6098 C.ar    1  UNL1        0.0699
      8 C          61.1127   90.1855    3.9896 C.ar    1  UNL1        0.0190
      9 C          61.2013   89.4484    5.1736 C.ar    1  UNL1        0.0160
     10 C          60.0791   89.2934    6.0067 C.ar    1  UNL1        0.0480
     11 C          58.8683   89.9006    5.6300 C.ar    1  UNL1        0.0160
     12 C          58.7805   90.6380    4.4463 C.ar    1  UNL1        0.0190
     13 N          59.6829   92.1552    0.2560 N.ar    1  UNL1       -0.2024
     14 N          59.6052   93.2654    0.9743 N.ar    1  UNL1       -0.1442
     15 C          59.6751   92.8889    2.2697 C.ar    1  UNL1        0.2073
     16 N          59.8023   91.5481    2.3931 N.ar    1  UNL1       -0.2398
     17 C          59.7970   91.1225    1.1143 C.ar    1  UNL1        0.3522
     18 O          59.8545   89.9125    0.7654 O.2     1  UNL1       -0.2444
     19 C          59.6279   92.1271   -1.2105 C.3     1  UNL1        0.1099
     20 C          60.7051   93.0495   -1.7968 C.3     1  UNL1        0.0265
     21 C          57.1848   91.3965   -1.4004 C.3     1  UNL1        0.0021
     22 C          58.2098   92.4909   -1.6983 C.3     1  UNL1        0.0245
     23 C          60.5338   86.3184   10.9216 C.ar    1  UNL1        0.0485
     24 C          61.7569   85.8158   11.4058 C.ar    1  UNL1        0.0176
     25 C          61.8170   85.1406   12.6265 C.ar    1  UNL1        0.0382
     26 C          60.6692   84.9601   13.4018 C.ar    1  UNL1        0.1388
     27 C          59.4355   85.4196   12.9071 C.ar    1  UNL1        0.0382
     28 C          59.3716   86.0960   11.6855 C.ar    1  UNL1        0.0176
     29 O          60.8120   84.3084   14.6374 O.3     1  UNL1       -0.4727
     30 C          61.7643   83.2941   14.9687 C.3     1  UNL1        0.2374
     31 C          61.4449   81.9585   14.2749 C.3     1  UNL1        0.1909
     32 C          62.4156   80.8540   14.5747 C.3     1  UNL1        0.1783
     33 O          62.4761   80.0763   13.4208 O.3     1  UNL1       -0.3271
     34 C          61.8474   80.8263   12.3963 C.3     1  UNL1        0.2232
     35 O          61.4646   82.0948   12.8903 O.3     1  UNL1       -0.3258
     36 C          60.6138   80.0728   11.8838 C.ar    1  UNL1        0.0404
     37 C          60.5328   78.6727   12.0526 C.ar    1  UNL1        0.0021
     38 C          59.4332   77.9538   11.5804 C.ar    1  UNL1        0.0113
     39 C          58.4007   78.6101   10.9131 C.ar    1  UNL1        0.0585
     40 CL         57.0222   77.7022   10.3191 Cl      1  UNL1       -0.0822
     41 C          58.4729   79.9876   10.7042 C.ar    1  UNL1        0.0226
     42 C          59.5697   80.7235   11.1704 C.ar    1  UNL1        0.0591
     43 CL         59.5886   82.4469   10.7982 Cl      1  UNL1       -0.0824
     44 C          62.8449   81.0091   11.2329 C.3     1  UNL1        0.1338
     45 N          63.3400   82.4061   11.1712 N.3     1  UNL1       -0.2659
     46 C          63.5339   82.8276    9.7736 C.3     1  UNL1        0.0898
     47 C          64.6076   82.5612   11.9065 C.3     1  UNL1        0.0898
     48 C          62.3327   88.6357    9.3650 C.2     1  UNL1        0.3337
     49 O          63.0734   87.6328    9.1782 O.2     1  UNL1       -0.2484
     50 O          62.8796   89.9142    9.3197 O.3     1  UNL1       -0.4790
     51 H          63.8683   90.0504    9.1463 H       1  UNL1        0.2951
@<TRIPOS>BOND
     1    21    22    1
     2    22    19    1
     3    19    20    1
     4    19    13    1
     5    13    14   ar
     6    14    15   ar
     7    15    16   ar
     8    16     7    1
     9     7     8   ar
    10     8     9   ar
    11     9    10   ar
    12    10     1    1
    13     1     2    1
    14     2     3    1
    15     3     4    1
    16     4    23    1
    17    23    24   ar
    18    24    25   ar
    19    25    26   ar
    20    26    29    1
    21    29    30    1
    22    30    31    1
    23    31    32    1
    24    32    33    1
    25    33    34    1
    26    34    44    1
    27    44    45    1
    28    45    46    1
    29    45    47    1
    30    34    36    1
    31    36    37   ar
    32    37    38   ar
    33    38    39   ar
    34    39    40    1
    35    39    41   ar
    36    41    42   ar
    37    42    43    1
    38    34    35    1
    39    26    27   ar
    40    27    28   ar
    41     4     5    1
    42     5    48    1
    43    48    49    2
    44    48    50    1
    45     5     6    1
    46    10    11   ar
    47    11    12   ar
    48    16    17   ar
    49    17    18    2
    50    17    13   ar
    51    12     7   ar
    52     6     1    1
    53    28    23   ar
    54    35    31    1
    55    42    36   ar
    56    50    51    1
@<TRIPOS>MOLECULE
*****
 51 56 0 0 0
SMALL
GASTEIGER

@<TRIPOS>ATOM
      1 N          60.3157   88.1512    6.7151 N.pl3   1  UNL1       -0.3037
      2 C          60.4313   88.6193    8.1047 C.3     1  UNL1        0.1123
      3 C          61.0863   87.5676    9.0088 C.3     1  UNL1        0.1126
      4 N          60.4775   86.2349    8.8448 N.pl3   1  UNL1       -0.2968
      5 C          59.8330   85.8740    7.5656 C.3     1  UNL1        0.1924
      6 C          60.4048   86.7152    6.4139 C.3     1  UNL1        0.1221
      7 C          59.8899   90.9875    3.5481 C.ar    1  UNL1        0.0699
      8 C          58.8116   90.7055    4.4033 C.ar    1  UNL1        0.0190
      9 C          58.9511   89.7787    5.4398 C.ar    1  UNL1        0.0160
     10 C          60.1712   89.1101    5.6437 C.ar    1  UNL1        0.0480
     11 C          61.2460   89.3860    4.7802 C.ar    1  UNL1        0.0160
     12 C          61.1057   90.3125    3.7436 C.ar    1  UNL1        0.0190
     13 N          59.3134   92.8984    0.5157 N.ar    1  UNL1       -0.2024
     14 N          59.7823   93.8479    1.3114 N.ar    1  UNL1       -0.1442
     15 C          60.0427   93.2586    2.4986 C.ar    1  UNL1        0.2073
     16 N          59.7513   91.9382    2.4744 N.ar    1  UNL1       -0.2398
     17 C          59.2920   91.7503    1.2213 C.ar    1  UNL1        0.3522
     18 O          58.8633   90.6515    0.7764 O.2     1  UNL1       -0.2444
     19 C          58.8923   93.1305   -0.8710 C.3     1  UNL1        0.1099
     20 C          57.4311   92.7005   -1.0579 C.3     1  UNL1        0.0265
     21 C          61.3203   92.6174   -1.4877 C.3     1  UNL1        0.0021
     22 C          59.8484   92.4121   -1.8463 C.3     1  UNL1        0.0245
     23 C          60.6493   85.2368    9.8842 C.ar    1  UNL1        0.0485
     24 C          61.9314   84.7599   10.2192 C.ar    1  UNL1        0.0176
     25 C          62.0984   83.8190   11.2373 C.ar    1  UNL1        0.0382
     26 C          61.0007   83.3396   11.9559 C.ar    1  UNL1        0.1388
     27 C          59.7121   83.7763   11.6002 C.ar    1  UNL1        0.0382
     28 C          59.5411   84.7182   10.5816 C.ar    1  UNL1        0.0176
     29 O          61.2484   82.4263   12.9934 O.3     1  UNL1       -0.4727
     30 C          61.4003   82.7257   14.3836 C.3     1  UNL1        0.2374
     31 C          61.8259   84.1863   14.6129 C.3     1  UNL1        0.1909
     32 C          61.7438   84.6414   16.0404 C.3     1  UNL1        0.1783
     33 O          61.4095   85.9927   15.9909 O.3     1  UNL1       -0.3271
     34 C          61.0029   86.2584   14.6601 C.3     1  UNL1        0.2232
     35 O          61.0117   85.0637   13.9035 O.3     1  UNL1       -0.3258
     36 C          61.9480   87.2850   14.0236 C.ar    1  UNL1        0.0404
     37 C          62.0516   87.3580   12.6167 C.ar    1  UNL1        0.0021
     38 C          62.9167   88.2673   12.0055 C.ar    1  UNL1        0.0113
     39 C          63.7111   89.1093   12.7814 C.ar    1  UNL1        0.0585
     40 CL         64.7987   90.2486   12.0090 Cl      1  UNL1       -0.0822
     41 C          63.6518   89.0334   14.1732 C.ar    1  UNL1        0.0226
     42 C          62.7902   88.1258   14.8023 C.ar    1  UNL1        0.0591
     43 CL         62.8400   88.0704   16.5640 Cl      1  UNL1       -0.0824
     44 C          59.5730   86.8385   14.6854 C.3     1  UNL1        0.1338
     45 N          58.7122   86.1761   13.6750 N.3     1  UNL1       -0.2659
     46 C          57.8026   87.1498   13.0484 C.3     1  UNL1        0.0898
     47 C          57.9210   85.0861   14.2731 C.3     1  UNL1        0.0898
     48 C          58.3364   86.0381    7.6399 C.2     1  UNL1        0.3337
     49 O          57.6120   85.1423    8.1520 O.2     1  UNL1       -0.2484
     50 O          57.7517   87.2045    7.1571 O.3     1  UNL1       -0.4790
     51 H          56.7490   87.3411    7.2042 H       1  UNL1        0.2951
@<TRIPOS>BOND
     1    21    22    1
     2    22    19    1
     3    19    20    1
     4    19    13    1
     5    13    14   ar
     6    14    15   ar
     7    15    16   ar
     8    16     7    1
     9     7     8   ar
    10     8     9   ar
    11     9    10   ar
    12    10     1    1
    13     1     2    1
    14     2     3    1
    15     3     4    1
    16     4    23    1
    17    23    24   ar
    18    24    25   ar
    19    25    26   ar
    20    26    29    1
    21    29    30    1
    22    30    31    1
    23    31    32    1
    24    32    33    1
    25    33    34    1
    26    34    44    1
    27    44    45    1
    28    45    46    1
    29    45    47    1
    30    34    36    1
    31    36    37   ar
    32    37    38   ar
    33    38    39   ar
    34    39    40    1
    35    39    41   ar
    36    41    42   ar
    37    42    43    1
    38    34    35    1
    39    26    27   ar
    40    27    28   ar
    41     4     5    1
    42     5    48    1
    43    48    49    2
    44    48    50    1
    45     5     6    1
    46    10    11   ar
    47    11    12   ar
    48    16    17   ar
    49    17    18    2
    50    17    13   ar
    51    12     7   ar
    52     6     1    1
    53    28    23   ar
    54    35    31    1
    55    42    36   ar
    56    50    51    1
@<TRIPOS>MOLECULE
*****
 51 56 0 0 0
SMALL
GASTEIGER

@<TRIPOS>ATOM
      1 N          60.1574   88.3531    7.2484 N.pl3   1  UNL1       -0.3037
      2 C          59.6884   88.9062    8.5281 C.3     1  UNL1        0.1123
      3 C          60.2909   88.1625    9.7265 C.3     1  UNL1        0.1126
      4 N          60.1678   86.6993    9.5934 N.pl3   1  UNL1       -0.2968
      5 C          60.0926   86.0875    8.2510 C.3     1  UNL1        0.1924
      6 C          60.7389   87.0038    7.2004 C.3     1  UNL1        0.1221
      7 C          59.9759   90.7386    3.7084 C.ar    1  UNL1        0.0699
      8 C          61.1688   90.0925    4.0730 C.ar    1  UNL1        0.0190
      9 C          61.2280   89.3114    5.2303 C.ar    1  UNL1        0.0160
     10 C          60.0965   89.1603    6.0514 C.ar    1  UNL1        0.0480
     11 C          58.9065   89.8164    5.6902 C.ar    1  UNL1        0.0160
     12 C          58.8481   90.5977    4.5332 C.ar    1  UNL1        0.0190
     13 N          59.8494   92.2373    0.4043 N.ar    1  UNL1       -0.2024
     14 N          59.7413   93.3186    1.1617 N.ar    1  UNL1       -0.1442
     15 C          59.7754   92.8932    2.4433 C.ar    1  UNL1        0.2073
     16 N          59.9094   91.5496    2.5193 N.ar    1  UNL1       -0.2398
     17 C          59.9459   91.1733    1.2257 C.ar    1  UNL1        0.3522
     18 O          60.0235   89.9780    0.8329 O.2     1  UNL1       -0.2444
     19 C          59.8386   92.2651   -1.0632 C.3     1  UNL1        0.1099
     20 C          60.8998   93.2457   -1.5802 C.3     1  UNL1        0.0265
     21 C          57.3720   91.5927   -1.1140 C.3     1  UNL1        0.0021
     22 C          58.4237   92.5997   -1.5801 C.3     1  UNL1        0.0245
     23 C          60.2747   85.8618   10.7738 C.ar    1  UNL1        0.0485
     24 C          61.5169   85.6670   11.4080 C.ar    1  UNL1        0.0176
     25 C          61.6146   84.8824   12.5588 C.ar    1  UNL1        0.0382
     26 C          60.4816   84.2843   13.1154 C.ar    1  UNL1        0.1388
     27 C          59.2438   84.4364   12.4654 C.ar    1  UNL1        0.0382
     28 C          59.1424   85.2212   11.3131 C.ar    1  UNL1        0.0176
     29 O          60.6484   83.5434   14.2965 O.3     1  UNL1       -0.4727
     30 C          61.1795   82.2206   14.4133 C.3     1  UNL1        0.2374
     31 C          60.8364   81.3543   13.1890 C.3     1  UNL1        0.1909
     32 C          61.3375   79.9419   13.2662 C.3     1  UNL1        0.1783
     33 O          61.6375   79.5720   11.9573 O.3     1  UNL1       -0.3271
     34 C          61.6294   80.7631   11.1904 C.3     1  UNL1        0.2232
     35 O          61.4002   81.8779   12.0297 O.3     1  UNL1       -0.3258
     36 C          60.5346   80.6836   10.1193 C.ar    1  UNL1        0.0404
     37 C          60.6627   81.4420    8.9345 C.ar    1  UNL1        0.0021
     38 C          59.6753   81.4078    7.9483 C.ar    1  UNL1        0.0113
     39 C          58.5305   80.6337    8.1290 C.ar    1  UNL1        0.0585
     40 CL         57.2910   80.5960    6.8882 Cl      1  UNL1       -0.0822
     41 C          58.3647   79.9018    9.3051 C.ar    1  UNL1        0.0226
     42 C          59.3452   79.9261   10.3050 C.ar    1  UNL1        0.0591
     43 CL         59.0060   79.0143   11.7755 Cl      1  UNL1       -0.0824
     44 C          63.0004   80.9160   10.4982 C.3     1  UNL1        0.1338
     45 N          63.5902   82.2487   10.7748 N.3     1  UNL1       -0.2659
     46 C          64.1290   82.8448    9.5408 C.3     1  UNL1        0.0898
     47 C          64.6619   82.1647   11.7828 C.3     1  UNL1        0.0898
     48 C          58.6680   85.7772    7.8686 C.2     1  UNL1        0.3337
     49 O          58.1948   84.6186    8.0214 O.2     1  UNL1       -0.2484
     50 O          57.8598   86.7901    7.3622 O.3     1  UNL1       -0.4790
     51 H          56.8968   86.6076    7.1065 H       1  UNL1        0.2951
@<TRIPOS>BOND
     1    21    22    1
     2    22    19    1
     3    19    20    1
     4    19    13    1
     5    13    14   ar
     6    14    15   ar
     7    15    16   ar
     8    16     7    1
     9     7     8   ar
    10     8     9   ar
    11     9    10   ar
    12    10     1    1
    13     1     2    1
    14     2     3    1
    15     3     4    1
    16     4    23    1
    17    23    24   ar
    18    24    25   ar
    19    25    26   ar
    20    26    29    1
    21    29    30    1
    22    30    31    1
    23    31    32    1
    24    32    33    1
    25    33    34    1
    26    34    44    1
    27    44    45    1
    28    45    46    1
    29    45    47    1
    30    34    36    1
    31    36    37   ar
    32    37    38   ar
    33    38    39   ar
    34    39    40    1
    35    39    41   ar
    36    41    42   ar
    37    42    43    1
    38    34    35    1
    39    26    27   ar
    40    27    28   ar
    41     4     5    1
    42     5    48    1
    43    48    49    2
    44    48    50    1
    45     5     6    1
    46    10    11   ar
    47    11    12   ar
    48    16    17   ar
    49    17    18    2
    50    17    13   ar
    51    12     7   ar
    52     6     1    1
    53    28    23   ar
    54    35    31    1
    55    42    36   ar
    56    50    51    1
@<TRIPOS>MOLECULE
*****
 51 56 0 0 0
SMALL
GASTEIGER

@<TRIPOS>ATOM
      1 N          60.1533   88.4912    7.3875 N.pl3   1  UNL1       -0.3037
      2 C          59.6413   89.0908    8.6292 C.3     1  UNL1        0.1123
      3 C          60.3195   88.4989    9.8710 C.3     1  UNL1        0.1126
      4 N          60.3363   87.0248    9.8473 N.pl3   1  UNL1       -0.2968
      5 C          60.3118   86.3105    8.5546 C.3     1  UNL1        0.1924
      6 C          60.8610   87.2034    7.4311 C.3     1  UNL1        0.1221
      7 C          59.7252   90.5815    3.6859 C.ar    1  UNL1        0.0699
      8 C          58.6438   90.4791    4.5767 C.ar    1  UNL1        0.0190
      9 C          58.7840   89.7963    5.7879 C.ar    1  UNL1        0.0160
     10 C          60.0080   89.1977    6.1354 C.ar    1  UNL1        0.0480
     11 C          61.0860   89.2923    5.2376 C.ar    1  UNL1        0.0160
     12 C          60.9450   89.9747    4.0264 C.ar    1  UNL1        0.0190
     13 N          59.9516   92.5552    0.6473 N.ar    1  UNL1       -0.2024
     14 N          58.7509   92.0172    0.4943 N.ar    1  UNL1       -0.1442
     15 C          58.5373   91.2423    1.5799 C.ar    1  UNL1        0.2073
     16 N          59.5860   91.2795    2.4331 N.ar    1  UNL1       -0.2398
     17 C          60.4533   92.1048    1.8143 C.ar    1  UNL1        0.3522
     18 O          61.6006   92.3909    2.2512 O.2     1  UNL1       -0.2444
     19 C          60.5717   93.4575   -0.3302 C.3     1  UNL1        0.1099
     20 C          59.5530   93.8464   -1.4099 C.3     1  UNL1        0.0265
     21 C          62.8484   93.8446   -1.4283 C.3     1  UNL1        0.0021
     22 C          61.8418   92.8112   -0.9222 C.3     1  UNL1        0.0245
     23 C          60.5301   86.2914   11.0845 C.ar    1  UNL1        0.0485
     24 C          61.7819   85.7277   11.3985 C.ar    1  UNL1        0.0176
     25 C          61.9747   85.0448   12.6010 C.ar    1  UNL1        0.0382
     26 C          60.9358   84.9166   13.5258 C.ar    1  UNL1        0.1388
     27 C          59.6700   85.4377   13.2029 C.ar    1  UNL1        0.0382
     28 C          59.4734   86.1220   12.0001 C.ar    1  UNL1        0.0176
     29 O          61.2136   84.2531   14.7318 O.3     1  UNL1       -0.4727
     30 C          62.2308   83.2736   14.9589 C.3     1  UNL1        0.2374
     31 C          61.8915   81.9289   14.2927 C.3     1  UNL1        0.1909
     32 C          62.9213   80.8565   14.4963 C.3     1  UNL1        0.1783
     33 O          62.8990   80.0822   13.3387 O.3     1  UNL1       -0.3271
     34 C          62.1535   80.8121   12.3804 C.3     1  UNL1        0.2232
     35 O          61.7775   82.0670   12.9129 O.3     1  UNL1       -0.3258
     36 C          60.9026   80.0192   11.9821 C.ar    1  UNL1        0.0404
     37 C          61.0270   78.6622   11.6100 C.ar    1  UNL1        0.0021
     38 C          59.9117   77.9172   11.2232 C.ar    1  UNL1        0.0113
     39 C          58.6521   78.5121   11.1797 C.ar    1  UNL1        0.0585
     40 CL         57.2537   77.5727   10.6905 Cl      1  UNL1       -0.0822
     41 C          58.5079   79.8597   11.5103 C.ar    1  UNL1        0.0226
     42 C          59.6170   80.6217   11.8992 C.ar    1  UNL1        0.0591
     43 CL         59.3320   82.3290   12.2354 Cl      1  UNL1       -0.0824
     44 C          63.0316   81.0284   11.1297 C.3     1  UNL1        0.1338
     45 N          62.8029   82.3725   10.5451 N.3     1  UNL1       -0.2659
     46 C          61.8098   82.3052    9.4599 C.3     1  UNL1        0.0898
     47 C          64.0534   82.9534   10.0250 C.3     1  UNL1        0.0898
     48 C          58.9211   85.8386    8.2149 C.2     1  UNL1        0.3337
     49 O          58.3905   84.8833    8.8435 O.2     1  UNL1       -0.2484
     50 O          58.2072   86.4826    7.2093 O.3     1  UNL1       -0.4790
     51 H          57.2679   86.1889    6.9693 H       1  UNL1        0.2951
@<TRIPOS>BOND
     1    21    22    1
     2    22    19    1
     3    19    20    1
     4    19    13    1
     5    13    14   ar
     6    14    15   ar
     7    15    16   ar
     8    16     7    1
     9     7     8   ar
    10     8     9   ar
    11     9    10   ar
    12    10     1    1
    13     1     2    1
    14     2     3    1
    15     3     4    1
    16     4    23    1
    17    23    24   ar
    18    24    25   ar
    19    25    26   ar
    20    26    29    1
    21    29    30    1
    22    30    31    1
    23    31    32    1
    24    32    33    1
    25    33    34    1
    26    34    44    1
    27    44    45    1
    28    45    46    1
    29    45    47    1
    30    34    36    1
    31    36    37   ar
    32    37    38   ar
    33    38    39   ar
    34    39    40    1
    35    39    41   ar
    36    41    42   ar
    37    42    43    1
    38    34    35    1
    39    26    27   ar
    40    27    28   ar
    41     4     5    1
    42     5    48    1
    43    48    49    2
    44    48    50    1
    45     5     6    1
    46    10    11   ar
    47    11    12   ar
    48    16    17   ar
    49    17    18    2
    50    17    13   ar
    51    12     7   ar
    52     6     1    1
    53    28    23   ar
    54    35    31    1
    55    42    36   ar
    56    50    51    1
@<TRIPOS>MOLECULE
*****
 51 56 0 0 0
SMALL
GASTEIGER

@<TRIPOS>ATOM
      1 N          59.6830   88.4240    6.8400 N.pl3   1  UNL1       -0.3037
      2 C          59.5182   86.9796    6.6161 C.3     1  UNL1        0.1123
      3 C          58.8224   86.2943    7.7987 C.3     1  UNL1        0.1126
      4 N          59.4281   86.6632    9.0914 N.pl3   1  UNL1       -0.2968
      5 C          60.1181   87.9613    9.2356 C.3     1  UNL1        0.1924
      6 C          59.5958   88.9709    8.2017 C.3     1  UNL1        0.1221
      7 C          60.2501   91.0399    3.5097 C.ar    1  UNL1        0.0699
      8 C          59.0086   90.9768    4.1641 C.ar    1  UNL1        0.0190
      9 C          58.8234   90.1220    5.2540 C.ar    1  UNL1        0.0160
     10 C          59.8743   89.3084    5.7133 C.ar    1  UNL1        0.0480
     11 C          61.1129   89.3654    5.0503 C.ar    1  UNL1        0.0160
     12 C          61.2973   90.2200    3.9602 C.ar    1  UNL1        0.0190
     13 N          60.7638   92.7172    0.3313 N.ar    1  UNL1       -0.2024
     14 N          60.6790   93.7614    1.1419 N.ar    1  UNL1       -0.1442
     15 C          60.4833   93.2672    2.3837 C.ar    1  UNL1        0.2073
     16 N          60.4464   91.9152    2.3822 N.ar    1  UNL1       -0.2398
     17 C          60.6187   91.6070    1.0816 C.ar    1  UNL1        0.3522
     18 O          60.6092   90.4343    0.6195 O.2     1  UNL1       -0.2444
     19 C          60.9616   92.8245   -1.1191 C.3     1  UNL1        0.1099
     20 C          59.7227   92.3047   -1.8606 C.3     1  UNL1        0.0265
     21 C          63.5153   92.7630   -1.0020 C.3     1  UNL1        0.0021
     22 C          62.2520   92.0888   -1.5374 C.3     1  UNL1        0.0245
     23 C          59.2104   85.8180   10.2508 C.ar    1  UNL1        0.0485
     24 C          58.2638   84.7759   10.2144 C.ar    1  UNL1        0.0176
     25 C          58.0735   83.9466   11.3214 C.ar    1  UNL1        0.0382
     26 C          58.8265   84.1219   12.4848 C.ar    1  UNL1        0.1388
     27 C          59.7432   85.1866   12.5473 C.ar    1  UNL1        0.0382
     28 C          59.9362   86.0188   11.4409 C.ar    1  UNL1        0.0176
     29 O          58.6108   83.2246   13.5432 O.3     1  UNL1       -0.4727
     30 C          58.5887   81.7966   13.4680 C.3     1  UNL1        0.2374
     31 C          58.9631   81.2900   12.0642 C.3     1  UNL1        0.1909
     32 C          58.9778   79.7959   11.9255 C.3     1  UNL1        0.1783
     33 O          59.9776   79.5091   10.9991 O.3     1  UNL1       -0.3271
     34 C          60.7265   80.7002   10.8332 C.3     1  UNL1        0.2232
     35 O          60.2434   81.7016   11.7070 O.3     1  UNL1       -0.3258
     36 C          60.6217   81.1813    9.3807 C.ar    1  UNL1        0.0404
     37 C          60.0228   80.3461    8.4117 C.ar    1  UNL1        0.0021
     38 C          59.9290   80.7451    7.0772 C.ar    1  UNL1        0.0113
     39 C          60.4466   81.9750    6.6753 C.ar    1  UNL1        0.0585
     40 CL         60.3289   82.4711    4.9968 Cl      1  UNL1       -0.0822
     41 C          61.0727   82.8036    7.6068 C.ar    1  UNL1        0.0226
     42 C          61.1764   82.4177    8.9492 C.ar    1  UNL1        0.0591
     43 CL         62.0408   83.5122   10.0281 Cl      1  UNL1       -0.0824
     44 C          62.2057   80.4049   11.1601 C.3     1  UNL1        0.1338
     45 N          62.6534   81.1780   12.3443 N.3     1  UNL1       -0.2659
     46 C          64.0554   81.6008   12.1893 C.3     1  UNL1        0.0898
     47 C          62.5162   80.3925   13.5836 C.3     1  UNL1        0.0898
     48 C          61.6118   87.8059    9.1063 C.2     1  UNL1        0.3337
     49 O          62.3872   88.7642    9.3706 O.2     1  UNL1       -0.2484
     50 O          62.1401   86.5807    8.7122 O.3     1  UNL1       -0.4790
     51 H          63.1410   86.4498    8.6268 H       1  UNL1        0.2951
@<TRIPOS>BOND
     1    21    22    1
     2    22    19    1
     3    19    20    1
     4    19    13    1
     5    13    14   ar
     6    14    15   ar
     7    15    16   ar
     8    16     7    1
     9     7     8   ar
    10     8     9   ar
    11     9    10   ar
    12    10     1    1
    13     1     2    1
    14     2     3    1
    15     3     4    1
    16     4    23    1
    17    23    24   ar
    18    24    25   ar
    19    25    26   ar
    20    26    29    1
    21    29    30    1
    22    30    31    1
    23    31    32    1
    24    32    33    1
    25    33    34    1
    26    34    44    1
    27    44    45    1
    28    45    46    1
    29    45    47    1
    30    34    36    1
    31    36    37   ar
    32    37    38   ar
    33    38    39   ar
    34    39    40    1
    35    39    41   ar
    36    41    42   ar
    37    42    43    1
    38    34    35    1
    39    26    27   ar
    40    27    28   ar
    41     4     5    1
    42     5    48    1
    43    48    49    2
    44    48    50    1
    45     5     6    1
    46    10    11   ar
    47    11    12   ar
    48    16    17   ar
    49    17    18    2
    50    17    13   ar
    51    12     7   ar
    52     6     1    1
    53    28    23   ar
    54    35    31    1
    55    42    36   ar
    56    50    51    1
