@<TRIPOS>MOLECULE
*****
 38 42 0 0 0
SMALL
GASTEIGER

@<TRIPOS>ATOM
      1 C         -28.6068   48.1553   -8.3679 C.ar    1  UNL1        0.1300
      2 C         -29.3767   47.7726   -7.2431 C.ar    1  UNL1        0.0342
      3 C         -28.9782   48.1914   -5.9513 C.ar    1  UNL1        0.0758
      4 C         -27.8372   48.9913   -5.7975 C.ar    1  UNL1        0.2965
      5 N         -27.1406   49.3360   -6.9083 N.ar    1  UNL1       -0.1225
      6 C         -26.0332   50.0800   -7.0316 C.ar    1  UNL1        0.3137
      7 C         -25.7250   50.1276   -8.3882 C.ar    1  UNL1        0.1320
      8 N         -26.6399   49.4152   -9.0933 N.ar    1  UNL1       -0.2941
      9 C         -27.4808   48.9521   -8.1473 C.ar    1  UNL1        0.3121
     10 H         -26.6799   49.2708  -10.0663 H       1  UNL1        0.1718
     11 N         -29.7178   46.8779  -12.2670 N.3     1  UNL1       -0.2647
     12 C         -29.2002   45.8957  -11.2930 C.3     1  UNL1        0.0941
     13 C         -28.2779   46.5843  -10.2846 C.3     1  UNL1        0.1084
     14 N         -28.9616   47.7340   -9.6916 N.pl3   1  UNL1       -0.2989
     15 C         -29.6391   48.6769  -10.5812 C.3     1  UNL1        0.1084
     16 C         -30.5166   47.9099  -11.5708 C.3     1  UNL1        0.0941
     17 C         -30.5266   46.1951  -13.2968 C.3     1  UNL1        0.1200
     18 N         -30.0490   47.0752  -16.8204 N.ar    1  UNL1       -0.3128
     19 C         -29.6994   48.1946  -16.1536 C.ar    1  UNL1        0.1780
     20 N         -29.8361   48.0708  -14.8164 N.ar    1  UNL1       -0.2273
     21 C         -30.2911   46.8128  -14.6439 C.ar    1  UNL1        0.0885
     22 C         -30.4293   46.1941  -15.8732 C.ar    1  UNL1        0.0537
     23 C         -30.7804   44.7546  -16.1129 C.3     1  UNL1        0.0514
     24 C         -28.8407   47.7869  -18.8345 C.3     1  UNL1        0.0265
     25 C         -29.9004   46.8543  -18.2596 C.3     1  UNL1        0.1073
     26 C         -24.5827   50.8351   -9.0175 C.ar    1  UNL1        0.0218
     27 C         -23.4537   51.1601   -8.2508 C.ar    1  UNL1        0.0013
     28 C         -22.3666   51.8258   -8.8232 C.ar    1  UNL1       -0.0042
     29 C         -22.3730   52.1905  -10.1892 C.ar    1  UNL1       -0.0228
     30 C         -23.5151   51.8577  -10.9494 C.ar    1  UNL1       -0.0042
     31 C         -24.6004   51.1922  -10.3747 C.ar    1  UNL1        0.0013
     32 C         -21.1960   52.9258  -10.8633 C.3     1  UNL1        0.0189
     33 C         -21.7158   53.7240  -12.0787 C.3     1  UNL1        0.0044
     34 C         -20.4812   53.9218   -9.9184 C.3     1  UNL1        0.0044
     35 C         -20.1483   51.8950  -11.3368 C.3     1  UNL1        0.0044
     36 C         -30.5881   46.8954   -7.4112 C.3     1  UNL1        0.1704
     37 O         -30.2121   45.5503   -7.2054 O.3     1  UNL1       -0.3463
     38 C         -30.9758   44.7157   -8.0464 C.3     1  UNL1        0.1746
@<TRIPOS>BOND
     1    24    25    1
     2    25    18    1
     3    18    19   ar
     4    19    20   ar
     5    20    21   ar
     6    21    17    1
     7    17    11    1
     8    11    12    1
     9    12    13    1
    10    13    14    1
    11    14     1    1
    12     1     2   ar
    13     2    36    1
    14    36    37    1
    15    37    38    1
    16     2     3   ar
    17     3     4   ar
    18     4     5   ar
    19     5     6   ar
    20     6     7   ar
    21     7    26    1
    22    26    27   ar
    23    27    28   ar
    24    28    29   ar
    25    29    32    1
    26    32    33    1
    27    32    34    1
    28    32    35    1
    29    29    30   ar
    30    30    31   ar
    31     7     8   ar
    32     8     9   ar
    33    14    15    1
    34    15    16    1
    35    21    22   ar
    36    22    23    1
    37    22    18   ar
    38    16    11    1
    39     9     1   ar
    40     9     5   ar
    41    31    26   ar
    42     8    10    1
@<TRIPOS>MOLECULE
*****
 38 42 0 0 0
SMALL
GASTEIGER

@<TRIPOS>ATOM
      1 C         -28.1571   49.6718   -7.5183 C.ar    1  UNL1        0.1300
      2 C         -29.5366   49.6894   -7.8362 C.ar    1  UNL1        0.0342
      3 C         -29.9797   50.4031   -8.9751 C.ar    1  UNL1        0.0758
      4 C         -29.0513   51.0721   -9.7849 C.ar    1  UNL1        0.2965
      5 N         -27.7414   51.0165   -9.4400 N.ar    1  UNL1       -0.1225
      6 C         -26.6720   51.5607  -10.0363 C.ar    1  UNL1        0.3137
      7 C         -25.5596   51.2036   -9.2795 C.ar    1  UNL1        0.1320
      8 N         -25.9460   50.4438   -8.2235 N.ar    1  UNL1       -0.2941
      9 C         -27.2837   50.3587   -8.3648 C.ar    1  UNL1        0.3121
     10 H         -25.3822   50.0481   -7.5201 H       1  UNL1        0.1718
     11 N         -26.7737   47.6078   -4.0694 N.3     1  UNL1       -0.2647
     12 C         -27.3642   48.9544   -3.9307 C.3     1  UNL1        0.0941
     13 C         -27.1724   49.7531   -5.2218 C.3     1  UNL1        0.1084
     14 N         -27.6681   48.9806   -6.3613 N.pl3   1  UNL1       -0.2989
     15 C         -27.2552   47.5832   -6.4884 C.3     1  UNL1        0.1084
     16 C         -27.4531   46.8652   -5.1532 C.3     1  UNL1        0.0941
     17 C         -26.8716   46.8755   -2.7907 C.3     1  UNL1        0.1200
     18 N         -30.2583   45.6401   -2.1404 N.ar    1  UNL1       -0.3128
     19 C         -29.6691   44.6356   -2.8214 C.ar    1  UNL1        0.1780
     20 N         -28.3989   44.9207   -3.1784 N.ar    1  UNL1       -0.2273
     21 C         -28.1881   46.1617   -2.6942 C.ar    1  UNL1        0.0885
     22 C         -29.3295   46.6141   -2.0574 C.ar    1  UNL1        0.0537
     23 C         -29.4686   47.8860   -1.2727 C.3     1  UNL1        0.0514
     24 C         -31.5530   44.7078   -0.2756 C.3     1  UNL1        0.0265
     25 C         -31.5817   45.5912   -1.5173 C.3     1  UNL1        0.1073
     26 C         -24.1470   51.5716   -9.5445 C.ar    1  UNL1        0.0218
     27 C         -23.2035   51.5149   -8.5077 C.ar    1  UNL1        0.0013
     28 C         -21.8678   51.8568   -8.7352 C.ar    1  UNL1       -0.0042
     29 C         -21.4293   52.2690  -10.0145 C.ar    1  UNL1       -0.0228
     30 C         -22.3886   52.3218  -11.0489 C.ar    1  UNL1       -0.0042
     31 C         -23.7232   51.9795  -10.8188 C.ar    1  UNL1        0.0013
     32 C         -19.9655   52.6554  -10.3116 C.3     1  UNL1        0.0189
     33 C         -19.0944   52.3663   -9.0697 C.3     1  UNL1        0.0044
     34 C         -19.3605   51.8726  -11.5020 C.3     1  UNL1        0.0044
     35 C         -19.8890   54.1596  -10.6527 C.3     1  UNL1        0.0044
     36 C         -30.5319   48.9882   -6.9513 C.3     1  UNL1        0.1704
     37 O         -30.6369   49.6922   -5.7321 O.3     1  UNL1       -0.3463
     38 C         -31.1505   48.8348   -4.7380 C.3     1  UNL1        0.1746
@<TRIPOS>BOND
     1    24    25    1
     2    25    18    1
     3    18    19   ar
     4    19    20   ar
     5    20    21   ar
     6    21    17    1
     7    17    11    1
     8    11    12    1
     9    12    13    1
    10    13    14    1
    11    14     1    1
    12     1     2   ar
    13     2    36    1
    14    36    37    1
    15    37    38    1
    16     2     3   ar
    17     3     4   ar
    18     4     5   ar
    19     5     6   ar
    20     6     7   ar
    21     7    26    1
    22    26    27   ar
    23    27    28   ar
    24    28    29   ar
    25    29    32    1
    26    32    33    1
    27    32    34    1
    28    32    35    1
    29    29    30   ar
    30    30    31   ar
    31     7     8   ar
    32     8     9   ar
    33    14    15    1
    34    15    16    1
    35    21    22   ar
    36    22    23    1
    37    22    18   ar
    38    16    11    1
    39     9     1   ar
    40     9     5   ar
    41    31    26   ar
    42     8    10    1
@<TRIPOS>MOLECULE
*****
 38 42 0 0 0
SMALL
GASTEIGER

@<TRIPOS>ATOM
      1 C         -28.6333   49.4578   -8.6201 C.ar    1  UNL1        0.1300
      2 C         -29.8991   49.3465   -9.2444 C.ar    1  UNL1        0.0342
      3 C         -30.0968   49.9168  -10.5245 C.ar    1  UNL1        0.0758
      4 C         -29.0378   50.5719  -11.1682 C.ar    1  UNL1        0.2965
      5 N         -27.8441   50.6431  -10.5296 N.ar    1  UNL1       -0.1225
      6 C         -26.6922   51.2045  -10.9212 C.ar    1  UNL1        0.3137
      7 C         -25.7723   51.0006   -9.8965 C.ar    1  UNL1        0.1320
      8 N         -26.3583   50.3172   -8.8811 N.ar    1  UNL1       -0.2941
      9 C         -27.6200   50.1234   -9.3139 C.ar    1  UNL1        0.3121
     10 H         -25.9567   50.0305   -8.0292 H       1  UNL1        0.1718
     11 N         -27.8709   47.8843   -4.7456 N.3     1  UNL1       -0.2647
     12 C         -27.1202   47.3677   -5.9079 C.3     1  UNL1        0.0941
     13 C         -27.9455   47.5287   -7.1863 C.3     1  UNL1        0.1084
     14 N         -28.3964   48.9148   -7.3145 N.pl3   1  UNL1       -0.2989
     15 C         -29.0118   49.5576   -6.1537 C.3     1  UNL1        0.1084
     16 C         -28.1416   49.3282   -4.9177 C.3     1  UNL1        0.0941
     17 C         -27.1148   47.6373   -3.5013 C.3     1  UNL1        0.1200
     18 N         -29.5643   46.5440   -1.0066 N.ar    1  UNL1       -0.3128
     19 C         -29.2636   47.8064   -0.6381 C.ar    1  UNL1        0.1780
     20 N         -28.3396   48.3786   -1.4387 N.ar    1  UNL1       -0.2273
     21 C         -28.0536   47.4262   -2.3499 C.ar    1  UNL1        0.0885
     22 C         -28.8000   46.2915   -2.0885 C.ar    1  UNL1        0.0537
     23 C         -28.8763   45.0580   -2.9404 C.3     1  UNL1        0.0514
     24 C         -31.0388   46.2642    0.9351 C.3     1  UNL1        0.0265
     25 C         -30.6081   45.7052   -0.4159 C.3     1  UNL1        0.1073
     26 C         -24.3562   51.4426   -9.8703 C.ar    1  UNL1        0.0218
     27 C         -23.7516   51.9217  -11.0421 C.ar    1  UNL1        0.0013
     28 C         -22.4194   52.3435  -11.0399 C.ar    1  UNL1       -0.0042
     29 C         -21.6436   52.2997   -9.8587 C.ar    1  UNL1       -0.0228
     30 C         -22.2639   51.8155   -8.6866 C.ar    1  UNL1       -0.0042
     31 C         -23.5958   51.3945   -8.6916 C.ar    1  UNL1        0.0013
     32 C         -20.1702   52.7548   -9.8094 C.3     1  UNL1        0.0189
     33 C         -20.0811   54.2517  -10.1786 C.3     1  UNL1        0.0044
     34 C         -19.5260   52.5765   -8.4134 C.3     1  UNL1        0.0044
     35 C         -19.3419   51.9280  -10.8168 C.3     1  UNL1        0.0044
     36 C         -31.0392   48.6616   -8.5398 C.3     1  UNL1        0.1704
     37 O         -31.5837   47.6800   -9.3959 O.3     1  UNL1       -0.3463
     38 C         -31.1081   46.4090   -9.0149 C.3     1  UNL1        0.1746
@<TRIPOS>BOND
     1    24    25    1
     2    25    18    1
     3    18    19   ar
     4    19    20   ar
     5    20    21   ar
     6    21    17    1
     7    17    11    1
     8    11    12    1
     9    12    13    1
    10    13    14    1
    11    14     1    1
    12     1     2   ar
    13     2    36    1
    14    36    37    1
    15    37    38    1
    16     2     3   ar
    17     3     4   ar
    18     4     5   ar
    19     5     6   ar
    20     6     7   ar
    21     7    26    1
    22    26    27   ar
    23    27    28   ar
    24    28    29   ar
    25    29    32    1
    26    32    33    1
    27    32    34    1
    28    32    35    1
    29    29    30   ar
    30    30    31   ar
    31     7     8   ar
    32     8     9   ar
    33    14    15    1
    34    15    16    1
    35    21    22   ar
    36    22    23    1
    37    22    18   ar
    38    16    11    1
    39     9     1   ar
    40     9     5   ar
    41    31    26   ar
    42     8    10    1
@<TRIPOS>MOLECULE
*****
 38 42 0 0 0
SMALL
GASTEIGER

@<TRIPOS>ATOM
      1 C         -29.2200   50.2894   -9.0132 C.ar    1  UNL1        0.1300
      2 C         -30.1764   50.1834   -7.9747 C.ar    1  UNL1        0.0342
      3 C         -29.7899   50.4590   -6.6414 C.ar    1  UNL1        0.0758
      4 C         -28.4722   50.8477   -6.3624 C.ar    1  UNL1        0.2965
      5 N         -27.5986   50.9415   -7.3948 N.ar    1  UNL1       -0.1225
      6 C         -26.3039   51.2865   -7.3961 C.ar    1  UNL1        0.3137
      7 C         -25.8682   51.2233   -8.7166 C.ar    1  UNL1        0.1320
      8 N         -26.8919   50.8407   -9.5212 N.ar    1  UNL1       -0.2941
      9 C         -27.9239   50.6805   -8.6692 C.ar    1  UNL1        0.3121
     10 H         -26.8829   50.7108  -10.4971 H       1  UNL1        0.1718
     11 N         -30.3052   49.4301  -13.0323 N.3     1  UNL1       -0.2647
     12 C         -30.4882   48.4025  -11.9874 C.3     1  UNL1        0.0941
     13 C         -29.4849   48.6163  -10.8519 C.3     1  UNL1        0.1084
     14 N         -29.5631   49.9971  -10.3743 N.pl3   1  UNL1       -0.2989
     15 C         -29.5473   51.0775  -11.3602 C.3     1  UNL1        0.1084
     16 C         -30.5546   50.7752  -12.4700 C.3     1  UNL1        0.0941
     17 C         -31.2060   49.1629  -14.1716 C.3     1  UNL1        0.1200
     18 N         -30.1986   46.5128  -16.4913 N.ar    1  UNL1       -0.3128
     19 C         -30.3904   45.8681  -15.3219 C.ar    1  UNL1        0.1780
     20 N         -30.7484   46.6985  -14.3198 N.ar    1  UNL1       -0.2273
     21 C         -30.7825   47.9181  -14.8949 C.ar    1  UNL1        0.0885
     22 C         -30.4408   47.8135  -16.2310 C.ar    1  UNL1        0.0537
     23 C         -30.4865   48.9126  -17.2522 C.3     1  UNL1        0.0514
     24 C         -29.9928   44.3633  -17.6576 C.3     1  UNL1        0.0265
     25 C         -29.9224   45.8807  -17.7822 C.3     1  UNL1        0.1073
     26 C         -24.5040   51.5192   -9.2193 C.ar    1  UNL1        0.0218
     27 C         -24.3045   51.7907  -10.5812 C.ar    1  UNL1        0.0013
     28 C         -23.0283   52.0722  -11.0760 C.ar    1  UNL1       -0.0042
     29 C         -21.9032   52.0914  -10.2200 C.ar    1  UNL1       -0.0228
     30 C         -22.1177   51.8164   -8.8520 C.ar    1  UNL1       -0.0042
     31 C         -23.3944   51.5354   -8.3600 C.ar    1  UNL1        0.0013
     32 C         -20.4766   52.3971  -10.7219 C.3     1  UNL1        0.0189
     33 C         -19.5609   52.7018   -9.5163 C.3     1  UNL1        0.0044
     34 C         -19.8443   51.2223  -11.5066 C.3     1  UNL1        0.0044
     35 C         -20.5127   53.6224  -11.6610 C.3     1  UNL1        0.0044
     36 C         -31.5840   49.7442   -8.2763 C.3     1  UNL1        0.1704
     37 O         -31.5839   48.3585   -8.5462 O.3     1  UNL1       -0.3463
     38 C         -31.3413   47.6481   -7.3531 C.3     1  UNL1        0.1746
@<TRIPOS>BOND
     1    24    25    1
     2    25    18    1
     3    18    19   ar
     4    19    20   ar
     5    20    21   ar
     6    21    17    1
     7    17    11    1
     8    11    12    1
     9    12    13    1
    10    13    14    1
    11    14     1    1
    12     1     2   ar
    13     2    36    1
    14    36    37    1
    15    37    38    1
    16     2     3   ar
    17     3     4   ar
    18     4     5   ar
    19     5     6   ar
    20     6     7   ar
    21     7    26    1
    22    26    27   ar
    23    27    28   ar
    24    28    29   ar
    25    29    32    1
    26    32    33    1
    27    32    34    1
    28    32    35    1
    29    29    30   ar
    30    30    31   ar
    31     7     8   ar
    32     8     9   ar
    33    14    15    1
    34    15    16    1
    35    21    22   ar
    36    22    23    1
    37    22    18   ar
    38    16    11    1
    39     9     1   ar
    40     9     5   ar
    41    31    26   ar
    42     8    10    1
@<TRIPOS>MOLECULE
*****
 38 42 0 0 0
SMALL
GASTEIGER

@<TRIPOS>ATOM
      1 C         -29.6028   46.7187   -9.0384 C.ar    1  UNL1        0.1300
      2 C         -30.1559   45.8969   -8.0269 C.ar    1  UNL1        0.0342
      3 C         -31.1578   44.9561   -8.3646 C.ar    1  UNL1        0.0758
      4 C         -31.5825   44.8353   -9.6951 C.ar    1  UNL1        0.2965
      5 N         -31.0142   45.6409  -10.6258 N.ar    1  UNL1       -0.1225
      6 C         -31.2391   45.7224  -11.9441 C.ar    1  UNL1        0.3137
      7 C         -30.3941   46.7114  -12.4397 C.ar    1  UNL1        0.1320
      8 N         -29.6547   47.2340  -11.4288 N.ar    1  UNL1       -0.2941
      9 C         -30.0693   46.5497  -10.3441 C.ar    1  UNL1        0.3121
     10 H         -28.9756   47.9452  -11.4765 H       1  UNL1        0.1718
     11 N         -26.6304   49.6017   -8.0781 N.3     1  UNL1       -0.2647
     12 C         -27.9955   49.7462   -7.5333 C.3     1  UNL1        0.0941
     13 C         -29.0109   49.0786   -8.4632 C.3     1  UNL1        0.1084
     14 N         -28.6024   47.7004   -8.7362 N.pl3   1  UNL1       -0.2989
     15 C         -27.2166   47.4495   -9.1310 C.3     1  UNL1        0.1084
     16 C         -26.2701   48.1701   -8.1706 C.3     1  UNL1        0.0941
     17 C         -25.6652   50.3316   -7.2316 C.3     1  UNL1        0.1200
     18 N         -23.5237   51.8847   -9.7657 N.ar    1  UNL1       -0.3128
     19 C         -22.6685   51.5425   -8.7801 C.ar    1  UNL1        0.1780
     20 N         -23.2874   50.9681   -7.7269 N.ar    1  UNL1       -0.2273
     21 C         -24.5901   50.9509   -8.0758 C.ar    1  UNL1        0.0885
     22 C         -24.7452   51.5176   -9.3280 C.ar    1  UNL1        0.0537
     23 C         -26.0114   51.5715  -10.1322 C.3     1  UNL1        0.0514
     24 C         -22.2621   53.6429  -10.9232 C.3     1  UNL1        0.0265
     25 C         -23.1501   52.4138  -11.0781 C.3     1  UNL1        0.1073
     26 C         -30.2812   47.1622  -13.8487 C.ar    1  UNL1        0.0218
     27 C         -30.3590   46.2259  -14.8905 C.ar    1  UNL1        0.0013
     28 C         -30.2555   46.6285  -16.2247 C.ar    1  UNL1       -0.0042
     29 C         -30.0696   47.9887  -16.5625 C.ar    1  UNL1       -0.0228
     30 C         -29.9929   48.9206  -15.5048 C.ar    1  UNL1       -0.0042
     31 C         -30.0967   48.5154  -14.1721 C.ar    1  UNL1        0.0013
     32 C         -29.9503   48.4787  -18.0207 C.3     1  UNL1        0.0189
     33 C         -31.3594   48.7614  -18.5858 C.3     1  UNL1        0.0044
     34 C         -29.1198   49.7775  -18.1587 C.3     1  UNL1        0.0044
     35 C         -29.2640   47.3906  -18.8750 C.3     1  UNL1        0.0044
     36 C         -29.7126   46.0458   -6.5963 C.3     1  UNL1        0.1704
     37 O         -28.4052   45.5294   -6.4655 O.3     1  UNL1       -0.3463
     38 C         -27.7776   46.1185   -5.3493 C.3     1  UNL1        0.1746
@<TRIPOS>BOND
     1    24    25    1
     2    25    18    1
     3    18    19   ar
     4    19    20   ar
     5    20    21   ar
     6    21    17    1
     7    17    11    1
     8    11    12    1
     9    12    13    1
    10    13    14    1
    11    14     1    1
    12     1     2   ar
    13     2    36    1
    14    36    37    1
    15    37    38    1
    16     2     3   ar
    17     3     4   ar
    18     4     5   ar
    19     5     6   ar
    20     6     7   ar
    21     7    26    1
    22    26    27   ar
    23    27    28   ar
    24    28    29   ar
    25    29    32    1
    26    32    33    1
    27    32    34    1
    28    32    35    1
    29    29    30   ar
    30    30    31   ar
    31     7     8   ar
    32     8     9   ar
    33    14    15    1
    34    15    16    1
    35    21    22   ar
    36    22    23    1
    37    22    18   ar
    38    16    11    1
    39     9     1   ar
    40     9     5   ar
    41    31    26   ar
    42     8    10    1
@<TRIPOS>MOLECULE
*****
 38 42 0 0 0
SMALL
GASTEIGER

@<TRIPOS>ATOM
      1 C         -29.1264   47.9990   -8.4221 C.ar    1  UNL1        0.1300
      2 C         -29.6700   47.6771   -7.1551 C.ar    1  UNL1        0.0342
      3 C         -30.8831   46.9518   -7.0818 C.ar    1  UNL1        0.0758
      4 C         -31.5267   46.5465   -8.2593 C.ar    1  UNL1        0.2965
      5 N         -30.9592   46.8738   -9.4462 N.ar    1  UNL1       -0.1225
      6 C         -31.3666   46.6102  -10.6951 C.ar    1  UNL1        0.3137
      7 C         -30.4260   47.1694  -11.5555 C.ar    1  UNL1        0.1320
      8 N         -29.4463   47.7735  -10.8365 N.ar    1  UNL1       -0.2941
      9 C         -29.8165   47.5667   -9.5571 C.ar    1  UNL1        0.3121
     10 H         -28.6524   48.2504  -11.1706 H       1  UNL1        0.1718
     11 N         -25.5187   50.2287   -8.7080 N.3     1  UNL1       -0.2647
     12 C         -26.7543   50.8894   -8.2410 C.3     1  UNL1        0.0941
     13 C         -27.9834   50.1863   -8.8212 C.3     1  UNL1        0.1084
     14 N         -27.9121   48.7517   -8.5421 N.pl3   1  UNL1       -0.2989
     15 C         -26.6631   48.0470   -8.8299 C.3     1  UNL1        0.1084
     16 C         -25.4863   48.8256   -8.2413 C.3     1  UNL1        0.0941
     17 C         -24.3340   50.9684   -8.2282 C.3     1  UNL1        0.1200
     18 N         -22.0717   52.6213  -10.5880 N.ar    1  UNL1       -0.3128
     19 C         -23.2297   52.5072  -11.2706 C.ar    1  UNL1        0.1780
     20 N         -24.1962   51.8875  -10.5607 N.ar    1  UNL1       -0.2273
     21 C         -23.6108   51.6044   -9.3789 C.ar    1  UNL1        0.0885
     22 C         -22.3011   52.0488   -9.3889 C.ar    1  UNL1        0.0537
     23 C         -21.3497   52.0474   -8.2279 C.3     1  UNL1        0.0514
     24 C         -19.8333   52.3714  -11.5627 C.3     1  UNL1        0.0265
     25 C         -20.8813   53.3451  -11.0364 C.3     1  UNL1        0.1073
     26 C         -30.4458   47.1373  -13.0387 C.ar    1  UNL1        0.0218
     27 C         -30.7617   48.2991  -13.7588 C.ar    1  UNL1        0.0013
     28 C         -30.7860   48.2914  -15.1560 C.ar    1  UNL1       -0.0042
     29 C         -30.4934   47.1146  -15.8830 C.ar    1  UNL1       -0.0228
     30 C         -30.1772   45.9526  -15.1463 C.ar    1  UNL1       -0.0042
     31 C         -30.1537   45.9631  -13.7497 C.ar    1  UNL1        0.0013
     32 C         -30.5079   47.0597  -17.4248 C.3     1  UNL1        0.0189
     33 C         -31.5794   48.0321  -17.9646 C.3     1  UNL1        0.0044
     34 C         -29.1527   47.4553  -18.0592 C.3     1  UNL1        0.0044
     35 C         -30.8397   45.6238  -17.8858 C.3     1  UNL1        0.0044
     36 C         -28.9870   48.1337   -5.8941 C.3     1  UNL1        0.1704
     37 O         -28.0658   47.1441   -5.4877 O.3     1  UNL1       -0.3463
     38 C         -26.9588   47.7593   -4.8688 C.3     1  UNL1        0.1746
@<TRIPOS>BOND
     1    24    25    1
     2    25    18    1
     3    18    19   ar
     4    19    20   ar
     5    20    21   ar
     6    21    17    1
     7    17    11    1
     8    11    12    1
     9    12    13    1
    10    13    14    1
    11    14     1    1
    12     1     2   ar
    13     2    36    1
    14    36    37    1
    15    37    38    1
    16     2     3   ar
    17     3     4   ar
    18     4     5   ar
    19     5     6   ar
    20     6     7   ar
    21     7    26    1
    22    26    27   ar
    23    27    28   ar
    24    28    29   ar
    25    29    32    1
    26    32    33    1
    27    32    34    1
    28    32    35    1
    29    29    30   ar
    30    30    31   ar
    31     7     8   ar
    32     8     9   ar
    33    14    15    1
    34    15    16    1
    35    21    22   ar
    36    22    23    1
    37    22    18   ar
    38    16    11    1
    39     9     1   ar
    40     9     5   ar
    41    31    26   ar
    42     8    10    1
@<TRIPOS>MOLECULE
*****
 38 42 0 0 0
SMALL
GASTEIGER

@<TRIPOS>ATOM
      1 C         -30.4282   46.5872   -5.1583 C.ar    1  UNL1        0.1300
      2 C         -30.7517   45.5495   -6.0654 C.ar    1  UNL1        0.0342
      3 C         -31.2226   44.3112   -5.5677 C.ar    1  UNL1        0.0758
      4 C         -31.3787   44.1275   -4.1867 C.ar    1  UNL1        0.2965
      5 N         -31.0622   45.1564   -3.3626 N.ar    1  UNL1       -0.1225
      6 C         -31.1207   45.2363   -2.0264 C.ar    1  UNL1        0.3137
      7 C         -30.6835   46.5107   -1.6764 C.ar    1  UNL1        0.1320
      8 N         -30.3580   47.2087   -2.7938 N.ar    1  UNL1       -0.2941
      9 C         -30.6052   46.3407   -3.7948 C.ar    1  UNL1        0.3121
     10 H         -30.0209   48.1314   -2.8580 H       1  UNL1        0.1718
     11 N         -28.9760   50.3199   -6.5823 N.3     1  UNL1       -0.2647
     12 C         -28.4098   49.0625   -7.1111 C.3     1  UNL1        0.0941
     13 C         -28.5392   47.9451   -6.0738 C.3     1  UNL1        0.1084
     14 N         -29.9264   47.8491   -5.6184 N.pl3   1  UNL1       -0.2989
     15 C         -30.6168   49.0766   -5.2234 C.3     1  UNL1        0.1084
     16 C         -30.4170   50.1467   -6.2969 C.3     1  UNL1        0.0941
     17 C         -28.7605   51.4190   -7.5448 C.3     1  UNL1        0.1200
     18 N         -25.7034   51.1847   -9.5492 N.ar    1  UNL1       -0.3128
     19 C         -25.2648   51.1185   -8.2752 C.ar    1  UNL1        0.1780
     20 N         -26.2638   51.2160   -7.3727 N.ar    1  UNL1       -0.2273
     21 C         -27.3774   51.3472   -8.1224 C.ar    1  UNL1        0.0885
     22 C         -27.0408   51.3335   -9.4638 C.ar    1  UNL1        0.0537
     23 C         -27.9946   51.3210  -10.6227 C.3     1  UNL1        0.0514
     24 C         -23.5863   51.7810  -10.6379 C.3     1  UNL1        0.0265
     25 C         -24.8854   50.9915  -10.7474 C.3     1  UNL1        0.1073
     26 C         -30.5720   47.0687   -0.3062 C.ar    1  UNL1        0.0218
     27 C         -31.2369   46.4437    0.7594 C.ar    1  UNL1        0.0013
     28 C         -31.1454   46.9521    2.0578 C.ar    1  UNL1       -0.0042
     29 C         -30.3814   48.1090    2.3347 C.ar    1  UNL1       -0.0228
     30 C         -29.7174   48.7283    1.2537 C.ar    1  UNL1       -0.0042
     31 C         -29.8106   48.2180   -0.0432 C.ar    1  UNL1        0.0013
     32 C         -30.2518   48.7053    3.7518 C.3     1  UNL1        0.0189
     33 C         -28.7796   48.6259    4.2112 C.3     1  UNL1        0.0044
     34 C         -30.6883   50.1883    3.8287 C.3     1  UNL1        0.0044
     35 C         -31.1383   47.9046    4.7304 C.3     1  UNL1        0.0044
     36 C         -30.5614   45.7439   -7.5457 C.3     1  UNL1        0.1704
     37 O         -29.3983   45.0550   -7.9527 O.3     1  UNL1       -0.3463
     38 C         -29.1341   45.3399   -9.3077 C.3     1  UNL1        0.1746
@<TRIPOS>BOND
     1    24    25    1
     2    25    18    1
     3    18    19   ar
     4    19    20   ar
     5    20    21   ar
     6    21    17    1
     7    17    11    1
     8    11    12    1
     9    12    13    1
    10    13    14    1
    11    14     1    1
    12     1     2   ar
    13     2    36    1
    14    36    37    1
    15    37    38    1
    16     2     3   ar
    17     3     4   ar
    18     4     5   ar
    19     5     6   ar
    20     6     7   ar
    21     7    26    1
    22    26    27   ar
    23    27    28   ar
    24    28    29   ar
    25    29    32    1
    26    32    33    1
    27    32    34    1
    28    32    35    1
    29    29    30   ar
    30    30    31   ar
    31     7     8   ar
    32     8     9   ar
    33    14    15    1
    34    15    16    1
    35    21    22   ar
    36    22    23    1
    37    22    18   ar
    38    16    11    1
    39     9     1   ar
    40     9     5   ar
    41    31    26   ar
    42     8    10    1
