@<TRIPOS>MOLECULE
*****
 33 36 0 0 0
SMALL
GASTEIGER

@<TRIPOS>ATOM
      1 N          47.6592   13.1380  -24.2980 N.am    1  UNL1       -0.2698
      2 C          46.5548   12.5232  -24.9884 C.2     1  UNL1        0.2510
      3 O          45.7089   11.8604  -24.3286 O.2     1  UNL1       -0.2698
      4 C          46.3936   12.6533  -26.4535 C.ar    1  UNL1        0.0727
      5 C          46.0367   13.8869  -27.0222 C.ar    1  UNL1        0.1033
      6 N          45.8876   14.0077  -28.3679 N.ar    1  UNL1       -0.2437
      7 C          46.0845   12.9577  -29.2079 C.ar    1  UNL1        0.0813
      8 C          45.9206   13.1208  -30.5883 C.ar    1  UNL1        0.0191
      9 C          46.1288   12.0390  -31.4498 C.ar    1  UNL1        0.0015
     10 C          46.5017   10.7925  -30.9364 C.ar    1  UNL1        0.0001
     11 C          46.6681   10.6202  -29.5583 C.ar    1  UNL1        0.0015
     12 C          46.4593   11.7001  -28.6870 C.ar    1  UNL1        0.0178
     13 C          46.6175   11.5588  -27.3032 C.ar    1  UNL1        0.0076
     14 C          48.2794   15.2567  -23.1853 C.3     1  UNL1        0.0264
     15 C          47.3773   14.0145  -23.1461 C.3     1  UNL1        0.0985
     16 C          47.4319   13.2300  -21.8445 C.ar    1  UNL1       -0.0034
     17 C          46.3602   12.4334  -21.3884 C.ar    1  UNL1       -0.0026
     18 C          46.4423   11.7734  -20.1588 C.ar    1  UNL1        0.0006
     19 C          47.5813   11.9088  -19.3633 C.ar    1  UNL1        0.0114
     20 C          48.6437   12.7067  -19.7948 C.ar    1  UNL1        0.0574
     21 CL         50.0613   12.9020  -18.7810 Cl      1  UNL1       -0.0823
     22 C          48.5701   13.3626  -21.0280 C.ar    1  UNL1        0.0087
     23 C          49.0401   12.8684  -24.7397 C.3     1  UNL1        0.1207
     24 C          49.4623   11.4760  -24.3442 C.ar    1  UNL1       -0.0021
     25 C          50.1008   10.6404  -25.2731 C.ar    1  UNL1       -0.0026
     26 C          50.4388    9.3313  -24.9263 C.ar    1  UNL1       -0.0001
     27 C          50.1407    8.8421  -23.6524 C.ar    1  UNL1        0.0064
     28 C          49.5041    9.6633  -22.7065 C.ar    1  UNL1        0.0752
     29 C          49.1716   10.9831  -23.0617 C.ar    1  UNL1        0.0038
     30 C          49.1856    9.1420  -21.3587 C.2     1  UNL1        0.3380
     31 O          50.0797    9.0729  -20.4723 O.2     1  UNL1       -0.2451
     32 O          47.8927    8.7229  -21.0559 O.3     1  UNL1       -0.4771
     33 H          47.6638    8.3654  -20.1361 H       1  UNL1        0.2954
@<TRIPOS>BOND
     1    14    15    1
     2    15    16    1
     3    16    17   ar
     4    17    18   ar
     5    18    19   ar
     6    19    20   ar
     7    20    21    1
     8    20    22   ar
     9    15     1    1
    10     1    23    1
    11    23    24    1
    12    24    25   ar
    13    25    26   ar
    14    26    27   ar
    15    27    28   ar
    16    28    30    1
    17    30    31    2
    18    30    32    1
    19    28    29   ar
    20     1     2   am
    21     2     3    2
    22     2     4    1
    23     4     5   ar
    24     5     6   ar
    25     6     7   ar
    26     7     8   ar
    27     8     9   ar
    28     9    10   ar
    29    10    11   ar
    30    11    12   ar
    31    12    13   ar
    32    22    16   ar
    33    29    24   ar
    34    13     4   ar
    35    12     7   ar
    36    32    33    1
@<TRIPOS>MOLECULE
*****
 33 36 0 0 0
SMALL
GASTEIGER

@<TRIPOS>ATOM
      1 N          47.2601   12.8634  -23.5943 N.am    1  UNL1       -0.2698
      2 C          47.7787   14.0444  -22.9537 C.2     1  UNL1        0.2510
      3 O          48.2127   13.9634  -21.7724 O.2     1  UNL1       -0.2698
      4 C          47.8121   15.3482  -23.6524 C.ar    1  UNL1        0.0727
      5 C          46.8729   16.3452  -23.3413 C.ar    1  UNL1        0.1033
      6 N          46.9020   17.5432  -23.9829 N.ar    1  UNL1       -0.2437
      7 C          47.8335   17.8259  -24.9312 C.ar    1  UNL1        0.0813
      8 C          47.8308   19.0709  -25.5708 C.ar    1  UNL1        0.0191
      9 C          48.7940   19.3598  -26.5428 C.ar    1  UNL1        0.0015
     10 C          49.7623   18.4078  -26.8783 C.ar    1  UNL1        0.0001
     11 C          49.7729   17.1610  -26.2442 C.ar    1  UNL1        0.0015
     12 C          48.8088   16.8627  -25.2692 C.ar    1  UNL1        0.0178
     13 C          48.7933   15.6238  -24.6175 C.ar    1  UNL1        0.0076
     14 C          48.1511   10.9940  -22.2440 C.3     1  UNL1        0.0264
     15 C          48.0972   11.6499  -23.6316 C.3     1  UNL1        0.0985
     16 C          49.4555   11.9495  -24.2463 C.ar    1  UNL1       -0.0034
     17 C          49.7414   11.7272  -25.6101 C.ar    1  UNL1       -0.0026
     18 C          51.0225   11.9712  -26.1135 C.ar    1  UNL1        0.0006
     19 C          52.0359   12.4235  -25.2667 C.ar    1  UNL1        0.0114
     20 C          51.7716   12.6330  -23.9111 C.ar    1  UNL1        0.0574
     21 CL         53.0527   13.1711  -22.8412 Cl      1  UNL1       -0.0823
     22 C          50.4893   12.3984  -23.4039 C.ar    1  UNL1        0.0087
     23 C          45.9070   12.8826  -24.1803 C.3     1  UNL1        0.1207
     24 C          45.9751   13.1226  -25.6673 C.ar    1  UNL1       -0.0021
     25 C          46.2086   12.0536  -26.5457 C.ar    1  UNL1       -0.0026
     26 C          46.3307   12.2833  -27.9170 C.ar    1  UNL1       -0.0001
     27 C          46.2247   13.5802  -28.4250 C.ar    1  UNL1        0.0064
     28 C          45.9885   14.6642  -27.5627 C.ar    1  UNL1        0.0752
     29 C          45.8611   14.4239  -26.1827 C.ar    1  UNL1        0.0038
     30 C          45.8803   16.0379  -28.1022 C.2     1  UNL1        0.3380
     31 O          44.7575   16.6056  -28.1852 O.2     1  UNL1       -0.2451
     32 O          47.0200   16.7181  -28.5235 O.3     1  UNL1       -0.4771
     33 H          46.9572   17.6591  -28.8934 H       1  UNL1        0.2954
@<TRIPOS>BOND
     1    14    15    1
     2    15    16    1
     3    16    17   ar
     4    17    18   ar
     5    18    19   ar
     6    19    20   ar
     7    20    21    1
     8    20    22   ar
     9    15     1    1
    10     1    23    1
    11    23    24    1
    12    24    25   ar
    13    25    26   ar
    14    26    27   ar
    15    27    28   ar
    16    28    30    1
    17    30    31    2
    18    30    32    1
    19    28    29   ar
    20     1     2   am
    21     2     3    2
    22     2     4    1
    23     4     5   ar
    24     5     6   ar
    25     6     7   ar
    26     7     8   ar
    27     8     9   ar
    28     9    10   ar
    29    10    11   ar
    30    11    12   ar
    31    12    13   ar
    32    22    16   ar
    33    29    24   ar
    34    13     4   ar
    35    12     7   ar
    36    32    33    1
@<TRIPOS>MOLECULE
*****
 33 36 0 0 0
SMALL
GASTEIGER

@<TRIPOS>ATOM
      1 N          47.0390   12.8191  -23.9524 N.am    1  UNL1       -0.2698
      2 C          47.4829   13.9781  -23.2217 C.2     1  UNL1        0.2510
      3 O          47.7715   13.8616  -21.9997 O.2     1  UNL1       -0.2698
      4 C          47.6064   15.2999  -23.8749 C.ar    1  UNL1        0.0727
      5 C          46.6725   16.3144  -23.6079 C.ar    1  UNL1        0.1033
      6 N          46.7843   17.5290  -24.2078 N.ar    1  UNL1       -0.2437
      7 C          47.7954   17.8117  -25.0708 C.ar    1  UNL1        0.0813
      8 C          47.8768   19.0741  -25.6698 C.ar    1  UNL1        0.0191
      9 C          48.9214   19.3627  -26.5537 C.ar    1  UNL1        0.0015
     10 C          49.8875   18.3930  -26.8414 C.ar    1  UNL1        0.0001
     11 C          49.8145   17.1288  -26.2473 C.ar    1  UNL1        0.0015
     12 C          48.7684   16.8307  -25.3608 C.ar    1  UNL1        0.0178
     13 C          48.6681   15.5746  -24.7510 C.ar    1  UNL1        0.0076
     14 C          47.8115   10.9476  -22.5337 C.3     1  UNL1        0.0264
     15 C          47.8685   11.6001  -23.9227 C.3     1  UNL1        0.0985
     16 C          49.2719   11.8893  -24.4321 C.ar    1  UNL1       -0.0034
     17 C          49.6833   11.5871  -25.7476 C.ar    1  UNL1       -0.0026
     18 C          51.0006   11.8262  -26.1496 C.ar    1  UNL1        0.0006
     19 C          51.9261   12.3532  -25.2471 C.ar    1  UNL1        0.0114
     20 C          51.5371   12.6427  -23.9370 C.ar    1  UNL1        0.0574
     21 CL         52.7076   13.2751  -22.7946 Cl      1  UNL1       -0.0823
     22 C          50.2181   12.4131  -23.5321 C.ar    1  UNL1        0.0087
     23 C          45.7661   12.8654  -24.6956 C.3     1  UNL1        0.1207
     24 C          46.0198   12.9416  -26.1799 C.ar    1  UNL1       -0.0021
     25 C          45.9441   14.1735  -26.8475 C.ar    1  UNL1       -0.0026
     26 C          46.1204   14.2364  -28.2306 C.ar    1  UNL1       -0.0001
     27 C          46.3703   13.0725  -28.9614 C.ar    1  UNL1        0.0064
     28 C          46.4526   11.8292  -28.3118 C.ar    1  UNL1        0.0752
     29 C          46.2793   11.7748  -26.9169 C.ar    1  UNL1        0.0038
     30 C          46.7135   10.5967  -29.0880 C.2     1  UNL1        0.3380
     31 O          47.6992    9.8618  -28.8085 O.2     1  UNL1       -0.2451
     32 O          45.8708   10.2360  -30.1362 O.3     1  UNL1       -0.4771
     33 H          46.0398    9.3938  -30.6733 H       1  UNL1        0.2954
@<TRIPOS>BOND
     1    14    15    1
     2    15    16    1
     3    16    17   ar
     4    17    18   ar
     5    18    19   ar
     6    19    20   ar
     7    20    21    1
     8    20    22   ar
     9    15     1    1
    10     1    23    1
    11    23    24    1
    12    24    25   ar
    13    25    26   ar
    14    26    27   ar
    15    27    28   ar
    16    28    30    1
    17    30    31    2
    18    30    32    1
    19    28    29   ar
    20     1     2   am
    21     2     3    2
    22     2     4    1
    23     4     5   ar
    24     5     6   ar
    25     6     7   ar
    26     7     8   ar
    27     8     9   ar
    28     9    10   ar
    29    10    11   ar
    30    11    12   ar
    31    12    13   ar
    32    22    16   ar
    33    29    24   ar
    34    13     4   ar
    35    12     7   ar
    36    32    33    1
@<TRIPOS>MOLECULE
*****
 33 36 0 0 0
SMALL
GASTEIGER

@<TRIPOS>ATOM
      1 N          48.8206   13.4060  -24.3460 N.am    1  UNL1       -0.2698
      2 C          47.4819   13.0417  -24.7324 C.2     1  UNL1        0.2510
      3 O          46.6476   12.7287  -23.8401 O.2     1  UNL1       -0.2698
      4 C          47.0670   13.0270  -26.1526 C.ar    1  UNL1        0.0727
      5 C          46.6050   14.2010  -26.7699 C.ar    1  UNL1        0.1033
      6 N          46.2230   14.1888  -28.0744 N.ar    1  UNL1       -0.2437
      7 C          46.2805   13.0590  -28.8276 C.ar    1  UNL1        0.0813
      8 C          45.8775   13.0856  -30.1676 C.ar    1  UNL1        0.0191
      9 C          45.9427   11.9221  -30.9407 C.ar    1  UNL1        0.0015
     10 C          46.4109   10.7297  -30.3790 C.ar    1  UNL1        0.0001
     11 C          46.8162   10.6937  -29.0407 C.ar    1  UNL1        0.0015
     12 C          46.7520   11.8564  -28.2577 C.ar    1  UNL1        0.0178
     13 C          47.1499   11.8518  -26.9156 C.ar    1  UNL1        0.0076
     14 C          48.4705   13.9995  -21.9718 C.3     1  UNL1        0.0264
     15 C          49.0050   14.4634  -23.3347 C.3     1  UNL1        0.0985
     16 C          48.4345   15.7850  -23.8250 C.ar    1  UNL1       -0.0034
     17 C          47.1985   16.2960  -23.3752 C.ar    1  UNL1       -0.0026
     18 C          46.6950   17.4913  -23.8968 C.ar    1  UNL1        0.0006
     19 C          47.4049   18.1833  -24.8796 C.ar    1  UNL1        0.0114
     20 C          48.6223   17.6812  -25.3458 C.ar    1  UNL1        0.0574
     21 CL         49.4985   18.5341  -26.6029 Cl      1  UNL1       -0.0823
     22 C          49.1346   16.4900  -24.8213 C.ar    1  UNL1        0.0087
     23 C          49.9719   12.7094  -24.9493 C.3     1  UNL1        0.1207
     24 C          50.0531   11.2882  -24.4524 C.ar    1  UNL1       -0.0021
     25 C          50.5083   10.2677  -25.3011 C.ar    1  UNL1       -0.0026
     26 C          50.5280    8.9431  -24.8614 C.ar    1  UNL1       -0.0001
     27 C          50.0912    8.6230  -23.5737 C.ar    1  UNL1        0.0064
     28 C          49.6341    9.6303  -22.7073 C.ar    1  UNL1        0.0752
     29 C          49.6225   10.9635  -23.1557 C.ar    1  UNL1        0.0038
     30 C          49.1682    9.2888  -21.3449 C.2     1  UNL1        0.3380
     31 O          47.9395    9.1299  -21.1105 O.2     1  UNL1       -0.2451
     32 O          50.0844    9.1388  -20.3070 O.3     1  UNL1       -0.4771
     33 H          49.7762    8.9041  -19.3710 H       1  UNL1        0.2954
@<TRIPOS>BOND
     1    14    15    1
     2    15    16    1
     3    16    17   ar
     4    17    18   ar
     5    18    19   ar
     6    19    20   ar
     7    20    21    1
     8    20    22   ar
     9    15     1    1
    10     1    23    1
    11    23    24    1
    12    24    25   ar
    13    25    26   ar
    14    26    27   ar
    15    27    28   ar
    16    28    30    1
    17    30    31    2
    18    30    32    1
    19    28    29   ar
    20     1     2   am
    21     2     3    2
    22     2     4    1
    23     4     5   ar
    24     5     6   ar
    25     6     7   ar
    26     7     8   ar
    27     8     9   ar
    28     9    10   ar
    29    10    11   ar
    30    11    12   ar
    31    12    13   ar
    32    22    16   ar
    33    29    24   ar
    34    13     4   ar
    35    12     7   ar
    36    32    33    1
@<TRIPOS>MOLECULE
*****
 33 36 0 0 0
SMALL
GASTEIGER

@<TRIPOS>ATOM
      1 N          48.3737   13.9548  -24.4227 N.am    1  UNL1       -0.2698
      2 C          47.0972   14.2422  -25.0246 C.2     1  UNL1        0.2510
      3 O          46.2226   14.8516  -24.3509 O.2     1  UNL1       -0.2698
      4 C          46.7923   13.8371  -26.4146 C.ar    1  UNL1        0.0727
      5 C          46.3406   14.7846  -27.3479 C.ar    1  UNL1        0.1033
      6 N          46.0594   14.4137  -28.6250 N.ar    1  UNL1       -0.2437
      7 C          46.2108   13.1313  -29.0488 C.ar    1  UNL1        0.0813
      8 C          45.9102   12.7875  -30.3718 C.ar    1  UNL1        0.0191
      9 C          46.0718   11.4677  -30.8053 C.ar    1  UNL1        0.0015
     10 C          46.5345   10.4883  -29.9203 C.ar    1  UNL1        0.0001
     11 C          46.8378   10.8228  -28.5964 C.ar    1  UNL1        0.0015
     12 C          46.6765   12.1443  -28.1531 C.ar    1  UNL1        0.0178
     13 C          46.9711   12.5097  -26.8342 C.ar    1  UNL1        0.0076
     14 C          48.4702   15.5114  -22.5046 C.3     1  UNL1        0.0264
     15 C          49.1361   15.0599  -23.8126 C.3     1  UNL1        0.0985
     16 C          49.3753   16.1724  -24.8213 C.ar    1  UNL1       -0.0034
     17 C          50.3919   16.1111  -25.7979 C.ar    1  UNL1       -0.0026
     18 C          50.6026   17.1844  -26.6686 C.ar    1  UNL1        0.0006
     19 C          49.8172   18.3342  -26.5694 C.ar    1  UNL1        0.0114
     20 C          48.8173   18.4153  -25.5972 C.ar    1  UNL1        0.0574
     21 CL         47.8518   19.8721  -25.4523 Cl      1  UNL1       -0.0823
     22 C          48.5970   17.3410  -24.7290 C.ar    1  UNL1        0.0087
     23 C          48.8827   12.5708  -24.4112 C.3     1  UNL1        0.1207
     24 C          48.4775   11.8661  -23.1412 C.ar    1  UNL1       -0.0021
     25 C          47.1337   11.5304  -22.9172 C.ar    1  UNL1       -0.0026
     26 C          46.7486   10.9314  -21.7167 C.ar    1  UNL1       -0.0001
     27 C          47.6982   10.6648  -20.7275 C.ar    1  UNL1        0.0064
     28 C          49.0495   10.9907  -20.9330 C.ar    1  UNL1        0.0752
     29 C          49.4305   11.5890  -22.1477 C.ar    1  UNL1        0.0038
     30 C          50.0534   10.7110  -19.8825 C.2     1  UNL1        0.3380
     31 O          51.0156   11.5030  -19.6907 O.2     1  UNL1       -0.2451
     32 O          49.9442    9.5686  -19.0938 O.3     1  UNL1       -0.4771
     33 H          50.6254    9.3682  -18.3713 H       1  UNL1        0.2954
@<TRIPOS>BOND
     1    14    15    1
     2    15    16    1
     3    16    17   ar
     4    17    18   ar
     5    18    19   ar
     6    19    20   ar
     7    20    21    1
     8    20    22   ar
     9    15     1    1
    10     1    23    1
    11    23    24    1
    12    24    25   ar
    13    25    26   ar
    14    26    27   ar
    15    27    28   ar
    16    28    30    1
    17    30    31    2
    18    30    32    1
    19    28    29   ar
    20     1     2   am
    21     2     3    2
    22     2     4    1
    23     4     5   ar
    24     5     6   ar
    25     6     7   ar
    26     7     8   ar
    27     8     9   ar
    28     9    10   ar
    29    10    11   ar
    30    11    12   ar
    31    12    13   ar
    32    22    16   ar
    33    29    24   ar
    34    13     4   ar
    35    12     7   ar
    36    32    33    1
@<TRIPOS>MOLECULE
*****
 33 36 0 0 0
SMALL
GASTEIGER

@<TRIPOS>ATOM
      1 N          47.8306   14.4965  -24.7305 N.am    1  UNL1       -0.2698
      2 C          46.5261   14.2294  -25.2793 C.2     1  UNL1        0.2510
      3 O          45.5167   14.2943  -24.5263 O.2     1  UNL1       -0.2698
      4 C          46.3473   13.8807  -26.7061 C.ar    1  UNL1        0.0727
      5 C          45.9456   14.8581  -27.6314 C.ar    1  UNL1        0.1033
      6 N          45.7803   14.5390  -28.9424 N.ar    1  UNL1       -0.2437
      7 C          46.0031   13.2816  -29.4076 C.ar    1  UNL1        0.0813
      8 C          45.8213   12.9911  -30.7646 C.ar    1  UNL1        0.0191
      9 C          46.0562   11.6972  -31.2403 C.ar    1  UNL1        0.0015
     10 C          46.4737   10.6904  -30.3635 C.ar    1  UNL1        0.0001
     11 C          46.6583   10.9715  -29.0058 C.ar    1  UNL1        0.0015
     12 C          46.4229   12.2669  -28.5202 C.ar    1  UNL1        0.0178
     13 C          46.5984   12.5789  -27.1669 C.ar    1  UNL1        0.0076
     14 C          46.7086   16.4656  -23.7427 C.3     1  UNL1        0.0264
     15 C          48.0471   15.7559  -23.9943 C.3     1  UNL1        0.0985
     16 C          49.0999   16.6100  -24.6831 C.ar    1  UNL1       -0.0034
     17 C          50.4613   16.5887  -24.3127 C.ar    1  UNL1       -0.0026
     18 C          51.3798   17.4323  -24.9443 C.ar    1  UNL1        0.0006
     19 C          50.9548   18.3152  -25.9386 C.ar    1  UNL1        0.0114
     20 C          49.6073   18.3584  -26.3047 C.ar    1  UNL1        0.0574
     21 CL         49.0682   19.4896  -27.5315 Cl      1  UNL1       -0.0823
     22 C          48.6856   17.5105  -25.6817 C.ar    1  UNL1        0.0087
     23 C          48.9116   13.5074  -24.8972 C.3     1  UNL1        0.1207
     24 C          48.6491   12.2860  -24.0529 C.ar    1  UNL1       -0.0021
     25 C          47.6437   12.3060  -23.0743 C.ar    1  UNL1       -0.0026
     26 C          47.4394   11.1965  -22.2525 C.ar    1  UNL1       -0.0001
     27 C          48.2368   10.0587  -22.3960 C.ar    1  UNL1        0.0064
     28 C          49.2472   10.0172  -23.3715 C.ar    1  UNL1        0.0752
     29 C          49.4434   11.1372  -24.1996 C.ar    1  UNL1        0.0038
     30 C          50.0936    8.8124  -23.5195 C.2     1  UNL1        0.3380
     31 O          50.4008    8.1193  -22.5120 O.2     1  UNL1       -0.2451
     32 O          50.5589    8.4317  -24.7755 O.3     1  UNL1       -0.4771
     33 H          51.1380    7.6081  -24.8880 H       1  UNL1        0.2954
@<TRIPOS>BOND
     1    14    15    1
     2    15    16    1
     3    16    17   ar
     4    17    18   ar
     5    18    19   ar
     6    19    20   ar
     7    20    21    1
     8    20    22   ar
     9    15     1    1
    10     1    23    1
    11    23    24    1
    12    24    25   ar
    13    25    26   ar
    14    26    27   ar
    15    27    28   ar
    16    28    30    1
    17    30    31    2
    18    30    32    1
    19    28    29   ar
    20     1     2   am
    21     2     3    2
    22     2     4    1
    23     4     5   ar
    24     5     6   ar
    25     6     7   ar
    26     7     8   ar
    27     8     9   ar
    28     9    10   ar
    29    10    11   ar
    30    11    12   ar
    31    12    13   ar
    32    22    16   ar
    33    29    24   ar
    34    13     4   ar
    35    12     7   ar
    36    32    33    1
@<TRIPOS>MOLECULE
*****
 33 36 0 0 0
SMALL
GASTEIGER

@<TRIPOS>ATOM
      1 N          48.1818   13.7722  -24.4881 N.am    1  UNL1       -0.2698
      2 C          46.9675   14.1363  -25.1716 C.2     1  UNL1        0.2510
      3 O          46.1075   14.8340  -24.5685 O.2     1  UNL1       -0.2698
      4 C          46.7095   13.7085  -26.5643 C.ar    1  UNL1        0.0727
      5 C          46.2575   14.6337  -27.5195 C.ar    1  UNL1        0.1033
      6 N          46.0194   14.2419  -28.7992 N.ar    1  UNL1       -0.2437
      7 C          46.2153   12.9595  -29.2044 C.ar    1  UNL1        0.0813
      8 C          45.9583   12.5937  -30.5307 C.ar    1  UNL1        0.0191
      9 C          46.1657   11.2742  -30.9449 C.ar    1  UNL1        0.0015
     10 C          46.6307   10.3169  -30.0373 C.ar    1  UNL1        0.0001
     11 C          46.8906   10.6733  -28.7098 C.ar    1  UNL1        0.0015
     12 C          46.6833   11.9948  -28.2859 C.ar    1  UNL1        0.0178
     13 C          46.9339   12.3819  -26.9641 C.ar    1  UNL1        0.0076
     14 C          48.3373   15.3204  -22.5670 C.3     1  UNL1        0.0264
     15 C          48.9939   14.8355  -23.8679 C.3     1  UNL1        0.0985
     16 C          49.3025   15.9347  -24.8724 C.ar    1  UNL1       -0.0034
     17 C          50.2823   15.7956  -25.8783 C.ar    1  UNL1       -0.0026
     18 C          50.5629   16.8565  -26.7443 C.ar    1  UNL1        0.0006
     19 C          49.8854   18.0699  -26.6118 C.ar    1  UNL1        0.0114
     20 C          48.9240   18.2272  -25.6106 C.ar    1  UNL1        0.0574
     21 CL         48.0957   19.7616  -25.4241 Cl      1  UNL1       -0.0823
     22 C          48.6335   17.1661  -24.7467 C.ar    1  UNL1        0.0087
     23 C          48.5786   12.3543  -24.4056 C.3     1  UNL1        0.1207
     24 C          50.0462   12.1944  -24.7122 C.ar    1  UNL1       -0.0021
     25 C          51.0121   12.6682  -23.8114 C.ar    1  UNL1       -0.0026
     26 C          52.3697   12.5739  -24.1213 C.ar    1  UNL1       -0.0001
     27 C          52.7770   12.0101  -25.3327 C.ar    1  UNL1        0.0064
     28 C          51.8260   11.5273  -26.2474 C.ar    1  UNL1        0.0752
     29 C          50.4599   11.6208  -25.9254 C.ar    1  UNL1        0.0038
     30 C          52.2592   10.9338  -27.5319 C.2     1  UNL1        0.3380
     31 O          51.7576    9.8502  -27.9368 O.2     1  UNL1       -0.2451
     32 O          53.2263   11.5682  -28.3073 O.3     1  UNL1       -0.4771
     33 H          53.5292   11.1710  -29.1886 H       1  UNL1        0.2954
@<TRIPOS>BOND
     1    14    15    1
     2    15    16    1
     3    16    17   ar
     4    17    18   ar
     5    18    19   ar
     6    19    20   ar
     7    20    21    1
     8    20    22   ar
     9    15     1    1
    10     1    23    1
    11    23    24    1
    12    24    25   ar
    13    25    26   ar
    14    26    27   ar
    15    27    28   ar
    16    28    30    1
    17    30    31    2
    18    30    32    1
    19    28    29   ar
    20     1     2   am
    21     2     3    2
    22     2     4    1
    23     4     5   ar
    24     5     6   ar
    25     6     7   ar
    26     7     8   ar
    27     8     9   ar
    28     9    10   ar
    29    10    11   ar
    30    11    12   ar
    31    12    13   ar
    32    22    16   ar
    33    29    24   ar
    34    13     4   ar
    35    12     7   ar
    36    32    33    1
@<TRIPOS>MOLECULE
*****
 33 36 0 0 0
SMALL
GASTEIGER

@<TRIPOS>ATOM
      1 N          46.7862   15.0259  -24.4409 N.am    1  UNL1       -0.2698
      2 C          46.1367   13.7498  -24.2862 C.2     1  UNL1        0.2510
      3 O          44.9357   13.6227  -24.6492 O.2     1  UNL1       -0.2698
      4 C          46.8489   12.5875  -23.7106 C.ar    1  UNL1        0.0727
      5 C          46.4008   12.0000  -22.5162 C.ar    1  UNL1        0.1033
      6 N          47.0545   10.9326  -21.9860 N.ar    1  UNL1       -0.2437
      7 C          48.1471   10.3911  -22.5858 C.ar    1  UNL1        0.0813
      8 C          48.7943    9.2923  -22.0089 C.ar    1  UNL1        0.0191
      9 C          49.9156    8.7349  -22.6318 C.ar    1  UNL1        0.0015
     10 C          50.3931    9.2718  -23.8318 C.ar    1  UNL1        0.0001
     11 C          49.7527   10.3697  -24.4159 C.ar    1  UNL1        0.0015
     12 C          48.6282   10.9359  -23.7962 C.ar    1  UNL1        0.0178
     13 C          47.9662   12.0350  -24.3560 C.ar    1  UNL1        0.0076
     14 C          47.2197   14.6871  -26.8511 C.3     1  UNL1        0.0264
     15 C          46.7700   15.6752  -25.7648 C.3     1  UNL1        0.0985
     16 C          47.5455   16.9829  -25.7345 C.ar    1  UNL1       -0.0034
     17 C          46.9523   18.2136  -25.3812 C.ar    1  UNL1       -0.0026
     18 C          47.6980   19.3954  -25.4193 C.ar    1  UNL1        0.0006
     19 C          49.0344   19.3704  -25.8222 C.ar    1  UNL1        0.0114
     20 C          49.6305   18.1617  -26.1898 C.ar    1  UNL1        0.0574
     21 CL         51.2999   18.1351  -26.7259 Cl      1  UNL1       -0.0823
     22 C          48.8912   16.9751  -26.1454 C.ar    1  UNL1        0.0087
     23 C          47.4343   15.6630  -23.2795 C.3     1  UNL1        0.1207
     24 C          48.7348   14.9738  -22.9522 C.ar    1  UNL1       -0.0021
     25 C          49.7919   14.9842  -23.8749 C.ar    1  UNL1       -0.0026
     26 C          50.9746   14.2968  -23.5979 C.ar    1  UNL1       -0.0001
     27 C          51.1134   13.5900  -22.4010 C.ar    1  UNL1        0.0064
     28 C          50.0678   13.5690  -21.4625 C.ar    1  UNL1        0.0752
     29 C          48.8812   14.2689  -21.7465 C.ar    1  UNL1        0.0038
     30 C          50.2152   12.8166  -20.1969 C.2     1  UNL1        0.3380
     31 O          49.8130   13.3108  -19.1088 O.2     1  UNL1       -0.2451
     32 O          50.8000   11.5529  -20.1958 O.3     1  UNL1       -0.4771
     33 H          50.9048   11.0290  -19.3351 H       1  UNL1        0.2954
@<TRIPOS>BOND
     1    14    15    1
     2    15    16    1
     3    16    17   ar
     4    17    18   ar
     5    18    19   ar
     6    19    20   ar
     7    20    21    1
     8    20    22   ar
     9    15     1    1
    10     1    23    1
    11    23    24    1
    12    24    25   ar
    13    25    26   ar
    14    26    27   ar
    15    27    28   ar
    16    28    30    1
    17    30    31    2
    18    30    32    1
    19    28    29   ar
    20     1     2   am
    21     2     3    2
    22     2     4    1
    23     4     5   ar
    24     5     6   ar
    25     6     7   ar
    26     7     8   ar
    27     8     9   ar
    28     9    10   ar
    29    10    11   ar
    30    11    12   ar
    31    12    13   ar
    32    22    16   ar
    33    29    24   ar
    34    13     4   ar
    35    12     7   ar
    36    32    33    1
@<TRIPOS>MOLECULE
*****
 33 36 0 0 0
SMALL
GASTEIGER

@<TRIPOS>ATOM
      1 N          47.7285   13.1969  -24.2415 N.am    1  UNL1       -0.2698
      2 C          46.7040   12.4624  -24.9381 C.2     1  UNL1        0.2510
      3 O          45.9720   11.6643  -24.2921 O.2     1  UNL1       -0.2698
      4 C          46.4941   12.6251  -26.3937 C.ar    1  UNL1        0.0727
      5 C          46.1144   13.8699  -26.9219 C.ar    1  UNL1        0.1033
      6 N          45.9206   14.0207  -28.2589 N.ar    1  UNL1       -0.2437
      7 C          46.0932   12.9909  -29.1288 C.ar    1  UNL1        0.0813
      8 C          45.8833   13.1846  -30.4989 C.ar    1  UNL1        0.0191
      9 C          46.0666   12.1236  -31.3914 C.ar    1  UNL1        0.0015
     10 C          46.4604   10.8673  -30.9191 C.ar    1  UNL1        0.0001
     11 C          46.6728   10.6643  -29.5515 C.ar    1  UNL1        0.0015
     12 C          46.4892   11.7233  -28.6493 C.ar    1  UNL1        0.0178
     13 C          46.6935   11.5512  -27.2751 C.ar    1  UNL1        0.0076
     14 C          48.0508   15.3498  -23.0698 C.3     1  UNL1        0.0264
     15 C          47.3544   13.9811  -23.0500 C.3     1  UNL1        0.0985
     16 C          47.5757   13.1736  -21.7806 C.ar    1  UNL1       -0.0034
     17 C          46.5874   12.3292  -21.2316 C.ar    1  UNL1       -0.0026
     18 C          46.8240   11.6484  -20.0338 C.ar    1  UNL1        0.0006
     19 C          48.0366   11.8099  -19.3614 C.ar    1  UNL1        0.0114
     20 C          49.0182   12.6548  -19.8848 C.ar    1  UNL1        0.0574
     21 CL         50.5290   12.8821  -19.0239 Cl      1  UNL1       -0.0823
     22 C          48.7898   13.3319  -21.0873 C.ar    1  UNL1        0.0087
     23 C          49.1232   13.1378  -24.7167 C.3     1  UNL1        0.1207
     24 C          49.5797   11.7067  -24.8481 C.ar    1  UNL1       -0.0021
     25 C          49.6819   10.8903  -23.7115 C.ar    1  UNL1       -0.0026
     26 C          50.1605    9.5840  -23.8241 C.ar    1  UNL1       -0.0001
     27 C          50.5447    9.0806  -25.0692 C.ar    1  UNL1        0.0064
     28 C          50.4477    9.8809  -26.2201 C.ar    1  UNL1        0.0752
     29 C          49.9592   11.1944  -26.0994 C.ar    1  UNL1        0.0038
     30 C          50.8587    9.3472  -27.5377 C.2     1  UNL1        0.3380
     31 O          50.0039    8.8543  -28.3227 O.2     1  UNL1       -0.2451
     32 O          52.1961    9.3851  -27.9239 O.3     1  UNL1       -0.4771
     33 H          52.4879    9.0234  -28.8241 H       1  UNL1        0.2954
@<TRIPOS>BOND
     1    14    15    1
     2    15    16    1
     3    16    17   ar
     4    17    18   ar
     5    18    19   ar
     6    19    20   ar
     7    20    21    1
     8    20    22   ar
     9    15     1    1
    10     1    23    1
    11    23    24    1
    12    24    25   ar
    13    25    26   ar
    14    26    27   ar
    15    27    28   ar
    16    28    30    1
    17    30    31    2
    18    30    32    1
    19    28    29   ar
    20     1     2   am
    21     2     3    2
    22     2     4    1
    23     4     5   ar
    24     5     6   ar
    25     6     7   ar
    26     7     8   ar
    27     8     9   ar
    28     9    10   ar
    29    10    11   ar
    30    11    12   ar
    31    12    13   ar
    32    22    16   ar
    33    29    24   ar
    34    13     4   ar
    35    12     7   ar
    36    32    33    1
