@<TRIPOS>MOLECULE
*****
 36 40 0 0 0
SMALL
GASTEIGER

@<TRIPOS>ATOM
      1 C          -7.6026   -8.3422   30.0602 C.ar    1  UNL1        0.1317
      2 C          -7.5111   -6.9567   29.8220 C.ar    1  UNL1        0.0286
      3 C          -8.5995   -6.1116   30.1057 C.ar    1  UNL1        0.0777
      4 C          -9.7760   -6.6539   30.6404 C.ar    1  UNL1        0.2969
      5 N          -9.8197   -7.9909   30.8763 N.ar    1  UNL1       -0.1229
      6 C         -10.8034   -8.7505   31.3870 C.ar    1  UNL1        0.2751
      7 I         -12.7500   -8.0471   31.8549 I       1  UNL1        0.0389
      8 C         -10.3232  -10.0592   31.4231 C.ar    1  UNL1        0.1314
      9 N          -9.0627  -10.1041   30.9287 N.ar    1  UNL1       -0.2939
     10 C          -8.7985   -8.8223   30.6078 C.ar    1  UNL1        0.3125
     11 H          -8.4771  -10.8890   30.8277 H       1  UNL1        0.1718
     12 N          -5.7327  -11.5088   28.6245 N.3     1  UNL1       -0.2647
     13 C          -5.2899  -11.3571   30.0221 C.3     1  UNL1        0.0941
     14 C          -6.1717  -10.3074   30.7063 C.3     1  UNL1        0.1084
     15 N          -6.5018   -9.2219   29.7737 N.pl3   1  UNL1       -0.2988
     16 C          -5.6487   -8.9967   28.6002 C.3     1  UNL1        0.1084
     17 C          -5.4424  -10.3059   27.8103 C.3     1  UNL1        0.0941
     18 C          -5.2653  -12.7612   27.9929 C.3     1  UNL1        0.1200
     19 N          -7.5915  -15.3786   26.8705 N.ar    1  UNL1       -0.3128
     20 C          -8.2436  -14.7686   27.8808 C.ar    1  UNL1        0.1780
     21 N          -7.5264  -13.7710   28.4378 N.ar    1  UNL1       -0.2273
     22 C          -6.3717  -13.7564   27.7401 C.ar    1  UNL1        0.0885
     23 C          -6.4024  -14.7486   26.7732 C.ar    1  UNL1        0.0537
     24 C          -5.3796  -14.9842   25.6988 C.3     1  UNL1        0.0514
     25 C          -8.9646  -15.8094   24.8811 C.3     1  UNL1        0.0265
     26 C          -8.1424  -16.4249   26.0073 C.3     1  UNL1        0.1073
     27 C         -11.0391  -11.2664   31.8827 C.ar    1  UNL1        0.0221
     28 C         -12.2101  -11.6686   31.2286 C.ar    1  UNL1        0.0013
     29 C         -12.8941  -12.8180   31.6338 C.ar    1  UNL1       -0.0042
     30 C         -12.4151  -13.6107   32.7032 C.ar    1  UNL1       -0.0228
     31 C         -11.2178  -13.2054   33.3337 C.ar    1  UNL1       -0.0042
     32 C         -10.5384  -12.0553   32.9256 C.ar    1  UNL1        0.0013
     33 C         -13.1353  -14.8874   33.1842 C.3     1  UNL1        0.0189
     34 C         -12.5747  -16.1103   32.4264 C.3     1  UNL1        0.0044
     35 C         -14.6644  -14.8474   32.9478 C.3     1  UNL1        0.0044
     36 C         -12.9011  -15.0716   34.6997 C.3     1  UNL1        0.0044
@<TRIPOS>BOND
     1    25    26    1
     2    26    19    1
     3    19    20   ar
     4    20    21   ar
     5    21    22   ar
     6    22    18    1
     7    18    12    1
     8    12    13    1
     9    13    14    1
    10    14    15    1
    11    15     1    1
    12     1     2   ar
    13     2     3   ar
    14     3     4   ar
    15     4     5   ar
    16     5     6   ar
    17     6     7    1
    18     6     8   ar
    19     8    27    1
    20    27    28   ar
    21    28    29   ar
    22    29    30   ar
    23    30    33    1
    24    33    34    1
    25    33    35    1
    26    33    36    1
    27    30    31   ar
    28    31    32   ar
    29     8     9   ar
    30     9    10   ar
    31    15    16    1
    32    16    17    1
    33    22    23   ar
    34    23    24    1
    35    23    19   ar
    36    17    12    1
    37    10     1   ar
    38    10     5   ar
    39    32    27   ar
    40     9    11    1
@<TRIPOS>MOLECULE
*****
 36 40 0 0 0
SMALL
GASTEIGER

@<TRIPOS>ATOM
      1 C          -7.9041  -12.1754   29.8470 C.ar    1  UNL1        0.1317
      2 C          -6.8236  -11.3311   30.1701 C.ar    1  UNL1        0.0286
      3 C          -5.5948  -11.4572   29.4967 C.ar    1  UNL1        0.0777
      4 C          -5.4530  -12.4218   28.4899 C.ar    1  UNL1        0.2969
      5 N          -6.5231  -13.2033   28.1914 N.ar    1  UNL1       -0.1229
      6 C          -6.6576  -14.1784   27.2768 C.ar    1  UNL1        0.2751
      7 I          -5.0805  -14.9230   26.0680 I       1  UNL1        0.0389
      8 C          -7.9657  -14.6500   27.3813 C.ar    1  UNL1        0.1314
      9 N          -8.6234  -13.9797   28.3578 N.ar    1  UNL1       -0.2939
     10 C          -7.7055  -13.1099   28.8234 C.ar    1  UNL1        0.3125
     11 H          -9.5536  -14.0998   28.6570 H       1  UNL1        0.1718
     12 N         -11.2034  -10.4568   31.1684 N.3     1  UNL1       -0.2647
     13 C         -10.6130  -11.1701   32.3151 C.3     1  UNL1        0.0941
     14 C          -9.2052  -11.6377   31.9316 C.3     1  UNL1        0.1084
     15 N          -9.1665  -12.0633   30.5264 N.pl3   1  UNL1       -0.2988
     16 C         -10.4144  -12.4508   29.8570 C.3     1  UNL1        0.1084
     17 C         -11.4943  -11.3630   30.0335 C.3     1  UNL1        0.0941
     18 C         -12.3532   -9.6033   31.5364 C.3     1  UNL1        0.1200
     19 N         -11.3218   -6.2114   30.5604 N.ar    1  UNL1       -0.3128
     20 C         -12.1230   -6.0185   31.6276 C.ar    1  UNL1        0.1780
     21 N         -12.6182   -7.1712   32.1235 N.ar    1  UNL1       -0.2273
     22 C         -12.0993   -8.1300   31.3286 C.ar    1  UNL1        0.0885
     23 C         -11.3009   -7.5452   30.3585 C.ar    1  UNL1        0.0537
     24 C         -10.4330   -8.2599   29.3625 C.3     1  UNL1        0.0514
     25 C          -9.0767   -5.2821   30.2071 C.3     1  UNL1        0.0265
     26 C         -10.5585   -5.1722   29.8669 C.3     1  UNL1        0.1073
     27 C          -8.5936  -15.7371   26.6035 C.ar    1  UNL1        0.0221
     28 C          -8.9086  -15.5312   25.2546 C.ar    1  UNL1        0.0013
     29 C          -9.4858  -16.5515   24.4936 C.ar    1  UNL1       -0.0042
     30 C          -9.7533  -17.8197   25.0606 C.ar    1  UNL1       -0.0228
     31 C          -9.4040  -18.0185   26.4147 C.ar    1  UNL1       -0.0042
     32 C          -8.8281  -16.9953   27.1714 C.ar    1  UNL1        0.0013
     33 C         -10.3876  -18.9756   24.2596 C.3     1  UNL1        0.0189
     34 C         -11.9128  -18.7565   24.1612 C.3     1  UNL1        0.0044
     35 C         -10.1518  -20.3624   24.9050 C.3     1  UNL1        0.0044
     36 C          -9.7819  -19.0118   22.8393 C.3     1  UNL1        0.0044
@<TRIPOS>BOND
     1    25    26    1
     2    26    19    1
     3    19    20   ar
     4    20    21   ar
     5    21    22   ar
     6    22    18    1
     7    18    12    1
     8    12    13    1
     9    13    14    1
    10    14    15    1
    11    15     1    1
    12     1     2   ar
    13     2     3   ar
    14     3     4   ar
    15     4     5   ar
    16     5     6   ar
    17     6     7    1
    18     6     8   ar
    19     8    27    1
    20    27    28   ar
    21    28    29   ar
    22    29    30   ar
    23    30    33    1
    24    33    34    1
    25    33    35    1
    26    33    36    1
    27    30    31   ar
    28    31    32   ar
    29     8     9   ar
    30     9    10   ar
    31    15    16    1
    32    16    17    1
    33    22    23   ar
    34    23    24    1
    35    23    19   ar
    36    17    12    1
    37    10     1   ar
    38    10     5   ar
    39    32    27   ar
    40     9    11    1
@<TRIPOS>MOLECULE
*****
 36 40 0 0 0
SMALL
GASTEIGER

@<TRIPOS>ATOM
      1 C          -5.6812   -8.7571   29.3796 C.ar    1  UNL1        0.1317
      2 C          -4.5708   -8.7816   28.5131 C.ar    1  UNL1        0.0286
      3 C          -4.2167   -9.9664   27.8420 C.ar    1  UNL1        0.0777
      4 C          -4.9839  -11.1240   28.0298 C.ar    1  UNL1        0.2969
      5 N          -6.0598  -11.0566   28.8562 N.ar    1  UNL1       -0.1229
      6 C          -6.9546  -12.0000   29.1948 C.ar    1  UNL1        0.2751
      7 I          -6.8371  -14.0372   28.6126 I       1  UNL1        0.0389
      8 C          -7.8609  -11.3995   30.0681 C.ar    1  UNL1        0.1314
      9 N          -7.5189  -10.1047   30.2726 N.ar    1  UNL1       -0.2939
     10 C          -6.4162   -9.9411   29.5156 C.ar    1  UNL1        0.3125
     11 H          -7.9702   -9.4393   30.8409 H       1  UNL1        0.1718
     12 N          -8.0549   -5.9097   30.7372 N.3     1  UNL1       -0.2647
     13 C          -6.8912   -5.2350   30.1349 C.3     1  UNL1        0.0941
     14 C          -6.0655   -6.2712   29.3655 C.3     1  UNL1        0.1084
     15 N          -6.0565   -7.5565   30.0763 N.pl3   1  UNL1       -0.2988
     16 C          -6.3505   -7.5858   31.5144 C.3     1  UNL1        0.1084
     17 C          -7.6648   -6.8387   31.8229 C.3     1  UNL1        0.0941
     18 C          -9.1339   -4.9792   31.1321 C.3     1  UNL1        0.1200
     19 N         -12.1281   -7.1029   31.3476 N.ar    1  UNL1       -0.3128
     20 C         -12.4391   -6.0180   32.0854 C.ar    1  UNL1        0.1780
     21 N         -11.4368   -5.1165   32.1361 N.ar    1  UNL1       -0.2273
     22 C         -10.4534   -5.6644   31.3922 C.ar    1  UNL1        0.0885
     23 C         -10.8710   -6.8928   30.9052 C.ar    1  UNL1        0.0537
     24 C         -10.1364   -7.7655   29.9279 C.3     1  UNL1        0.0514
     25 C         -12.5362   -9.5075   31.6312 C.3     1  UNL1        0.0265
     26 C         -13.0373   -8.2032   31.0220 C.3     1  UNL1        0.1073
     27 C          -9.0183  -12.0296   30.7347 C.ar    1  UNL1        0.0221
     28 C          -9.1183  -11.9927   32.1310 C.ar    1  UNL1        0.0013
     29 C         -10.2139  -12.5656   32.7826 C.ar    1  UNL1       -0.0042
     30 C         -11.2545  -13.1837   32.0501 C.ar    1  UNL1       -0.0228
     31 C         -11.1509  -13.1876   30.6414 C.ar    1  UNL1       -0.0042
     32 C         -10.0534  -12.6144   29.9949 C.ar    1  UNL1        0.0013
     33 C         -12.4829  -13.8276   32.7257 C.3     1  UNL1        0.0189
     34 C         -12.2116  -13.9914   34.2368 C.3     1  UNL1        0.0044
     35 C         -12.8269  -15.2246   32.1548 C.3     1  UNL1        0.0044
     36 C         -13.7173  -12.9222   32.5213 C.3     1  UNL1        0.0044
@<TRIPOS>BOND
     1    25    26    1
     2    26    19    1
     3    19    20   ar
     4    20    21   ar
     5    21    22   ar
     6    22    18    1
     7    18    12    1
     8    12    13    1
     9    13    14    1
    10    14    15    1
    11    15     1    1
    12     1     2   ar
    13     2     3   ar
    14     3     4   ar
    15     4     5   ar
    16     5     6   ar
    17     6     7    1
    18     6     8   ar
    19     8    27    1
    20    27    28   ar
    21    28    29   ar
    22    29    30   ar
    23    30    33    1
    24    33    34    1
    25    33    35    1
    26    33    36    1
    27    30    31   ar
    28    31    32   ar
    29     8     9   ar
    30     9    10   ar
    31    15    16    1
    32    16    17    1
    33    22    23   ar
    34    23    24    1
    35    23    19   ar
    36    17    12    1
    37    10     1   ar
    38    10     5   ar
    39    32    27   ar
    40     9    11    1
@<TRIPOS>MOLECULE
*****
 36 40 0 0 0
SMALL
GASTEIGER

@<TRIPOS>ATOM
      1 C          -7.3397  -12.4538   29.1874 C.ar    1  UNL1        0.1317
      2 C          -8.5290  -12.3766   29.9385 C.ar    1  UNL1        0.0286
      3 C          -9.5802  -13.2818   29.7034 C.ar    1  UNL1        0.0777
      4 C          -9.4341  -14.2729   28.7234 C.ar    1  UNL1        0.2969
      5 N          -8.2651  -14.3296   28.0340 N.ar    1  UNL1       -0.1229
      6 C          -7.8674  -15.1743   27.0677 C.ar    1  UNL1        0.2751
      7 I          -9.0984  -16.6592   26.1831 I       1  UNL1        0.0389
      8 C          -6.5738  -14.7956   26.7102 C.ar    1  UNL1        0.1314
      9 N          -6.1863  -13.7227   27.4409 N.ar    1  UNL1       -0.2939
     10 C          -7.2481  -13.4737   28.2323 C.ar    1  UNL1        0.3125
     11 H          -5.3299  -13.2385   27.4027 H       1  UNL1        0.1718
     12 N          -5.5649   -9.0460   30.0937 N.3     1  UNL1       -0.2647
     13 C          -4.9450   -9.5233   28.8446 C.3     1  UNL1        0.0941
     14 C          -5.7649  -10.7009   28.3073 C.3     1  UNL1        0.1084
     15 N          -6.2559  -11.5357   29.4114 N.pl3   1  UNL1       -0.2988
     16 C          -5.5761  -11.4824   30.7116 C.3     1  UNL1        0.1084
     17 C          -5.4299  -10.0251   31.1969 C.3     1  UNL1        0.0941
     18 C          -5.1410   -7.6821   30.4758 C.3     1  UNL1        0.1200
     19 N          -8.2129   -5.7004   30.0778 N.ar    1  UNL1       -0.3128
     20 C          -7.2508   -4.7794   30.2877 C.ar    1  UNL1        0.1780
     21 N          -6.0332   -5.3296   30.4736 N.ar    1  UNL1       -0.2273
     22 C          -6.2453   -6.6582   30.3728 C.ar    1  UNL1        0.0885
     23 C          -7.5893   -6.8956   30.1325 C.ar    1  UNL1        0.0537
     24 C          -8.2231   -8.2215   29.8218 C.3     1  UNL1        0.0514
     25 C         -10.5087   -5.6803   30.9482 C.3     1  UNL1        0.0265
     26 C          -9.6100   -5.4153   29.7459 C.3     1  UNL1        0.1073
     27 C          -5.7134  -15.4038   25.6754 C.ar    1  UNL1        0.0221
     28 C          -4.8580  -16.4585   26.0176 C.ar    1  UNL1        0.0013
     29 C          -4.0486  -17.0621   25.0513 C.ar    1  UNL1       -0.0042
     30 C          -4.0823  -16.6340   23.7033 C.ar    1  UNL1       -0.0228
     31 C          -4.9708  -15.5876   23.3706 C.ar    1  UNL1       -0.0042
     32 C          -5.7771  -14.9869   24.3401 C.ar    1  UNL1        0.0013
     33 C          -3.2086  -17.2708   22.6028 C.3     1  UNL1        0.0189
     34 C          -4.0937  -18.1369   21.6806 C.3     1  UNL1        0.0044
     35 C          -2.0876  -18.1772   23.1664 C.3     1  UNL1        0.0044
     36 C          -2.5355  -16.1576   21.7703 C.3     1  UNL1        0.0044
@<TRIPOS>BOND
     1    25    26    1
     2    26    19    1
     3    19    20   ar
     4    20    21   ar
     5    21    22   ar
     6    22    18    1
     7    18    12    1
     8    12    13    1
     9    13    14    1
    10    14    15    1
    11    15     1    1
    12     1     2   ar
    13     2     3   ar
    14     3     4   ar
    15     4     5   ar
    16     5     6   ar
    17     6     7    1
    18     6     8   ar
    19     8    27    1
    20    27    28   ar
    21    28    29   ar
    22    29    30   ar
    23    30    33    1
    24    33    34    1
    25    33    35    1
    26    33    36    1
    27    30    31   ar
    28    31    32   ar
    29     8     9   ar
    30     9    10   ar
    31    15    16    1
    32    16    17    1
    33    22    23   ar
    34    23    24    1
    35    23    19   ar
    36    17    12    1
    37    10     1   ar
    38    10     5   ar
    39    32    27   ar
    40     9    11    1
