@<TRIPOS>MOLECULE
*****
 46 51 0 0 0
SMALL
GASTEIGER

@<TRIPOS>ATOM
      1 C          14.2309   85.5733   25.6541 C.ar    1  UNL1        0.1318
      2 C          14.1748   84.6657   26.7302 C.ar    1  UNL1        0.0356
      3 C          13.7675   83.3505   26.5062 C.ar    1  UNL1        0.0191
      4 C          13.4186   82.9284   25.2197 C.ar    1  UNL1        0.0702
      5 C          13.5453   83.8394   24.1611 C.ar    1  UNL1        0.1149
      6 N          13.9313   85.1194   24.4041 N.ar    1  UNL1       -0.2279
      7 C          14.7783   89.5074   24.6346 C.3     1  UNL1        0.0471
      8 C          13.9602   89.3920   25.9385 C.3     1  UNL1        0.0252
      9 C          13.5308   87.9490   26.2362 C.3     1  UNL1        0.0923
     10 N          14.5638   86.9707   25.8534 N.pl3   1  UNL1       -0.2932
     11 C          15.9453   87.4515   25.6917 C.3     1  UNL1        0.0923
     12 C          16.0181   88.5675   24.6353 C.3     1  UNL1        0.0252
     13 C          13.9101   89.3573   23.3593 C.3     1  UNL1        0.2054
     14 O          13.7643   87.9892   22.9644 O.3     1  UNL1       -0.4758
     15 C          14.1787   86.6089   21.0181 C.ar    1  UNL1        0.0180
     16 C          13.3134   87.4737   21.7338 C.ar    1  UNL1        0.1347
     17 C          12.0408   87.7696   21.2095 C.ar    1  UNL1        0.0366
     18 C          11.6103   87.1779   20.0261 C.ar    1  UNL1        0.0033
     19 C          12.4432   86.3068   19.3317 C.ar    1  UNL1        0.0063
     20 C          13.7377   86.0281   19.7945 C.ar    1  UNL1        0.0744
     21 C          14.5732   85.1176   18.9768 C.2     1  UNL1        0.3378
     22 O          14.7846   85.3518   17.7572 O.2     1  UNL1       -0.2451
     23 O          15.0940   83.9597   19.5484 O.3     1  UNL1       -0.4771
     24 H          15.6633   83.3219   19.0049 H       1  UNL1        0.2954
     25 C          16.5399   87.4335   21.2119 C.3     1  UNL1        0.0051
     26 C          15.5573   86.3283   21.5883 C.3     1  UNL1        0.0297
     27 N          12.9855   81.5746   25.0060 N.am    1  UNL1       -0.2766
     28 C          11.6070   81.1870   24.9006 C.2     1  UNL1        0.2839
     29 O          10.7045   81.9279   25.3749 O.2     1  UNL1       -0.2665
     30 H          13.6997   80.8158   25.0760 H       1  UNL1        0.1553
     31 C          11.2227   79.8881   24.3217 C.ar    1  UNL1        0.1946
     32 O          10.2206   79.7624   23.4693 O.2     1  UNL1       -0.4492
     33 C          10.1212   78.4958   23.1482 C.ar    1  UNL1        0.1452
     34 C           9.1987   77.9116   22.2871 C.ar    1  UNL1        0.0375
     35 C           9.2701   76.5217   22.0880 C.ar    1  UNL1        0.0031
     36 C          10.2569   75.7406   22.7485 C.ar    1  UNL1        0.0002
     37 C          11.1783   76.3758   23.6154 C.ar    1  UNL1        0.0028
     38 C          11.0778   77.7564   23.7887 C.ar    1  UNL1        0.0337
     39 C          11.8185   78.6408   24.5471 C.ar    1  UNL1        0.0202
     40 C          13.0007   78.3123   25.4079 C.3     1  UNL1        0.0345
     41 C          10.3221   74.2729   22.5317 C.ar    1  UNL1        0.0000
     42 C           9.1472   73.5291   22.3112 C.ar    1  UNL1        0.0000
     43 C           9.2114   72.1474   22.1071 C.ar    1  UNL1        0.0000
     44 C          10.4454   71.4935   22.1197 C.ar    1  UNL1        0.0000
     45 C          11.6182   72.2201   22.3366 C.ar    1  UNL1        0.0000
     46 C          11.5598   73.6020   22.5421 C.ar    1  UNL1        0.0000
@<TRIPOS>BOND
     1    25    26    1
     2    26    15    1
     3    15    16   ar
     4    16    14    1
     5    14    13    1
     6    13     7    1
     7     7     8    1
     8     8     9    1
     9     9    10    1
    10    10     1    1
    11     1     2   ar
    12     2     3   ar
    13     3     4   ar
    14     4    27    1
    15    27    28   am
    16    28    29    2
    17    28    31    1
    18    31    32   ar
    19    32    33   ar
    20    33    34   ar
    21    34    35   ar
    22    35    36   ar
    23    36    41    1
    24    41    42   ar
    25    42    43   ar
    26    43    44   ar
    27    44    45   ar
    28    45    46   ar
    29    36    37   ar
    30    37    38   ar
    31    38    39   ar
    32    39    40    1
    33     4     5   ar
    34     5     6   ar
    35    10    11    1
    36    11    12    1
    37    16    17   ar
    38    17    18   ar
    39    18    19   ar
    40    19    20   ar
    41    20    21    1
    42    21    22    2
    43    21    23    1
    44    20    15   ar
    45    12     7    1
    46     6     1   ar
    47    39    31   ar
    48    38    33   ar
    49    46    41   ar
    50    27    30    1
    51    23    24    1
@<TRIPOS>MOLECULE
*****
 46 51 0 0 0
SMALL
GASTEIGER

@<TRIPOS>ATOM
      1 C          13.9826   85.7319   24.6705 C.ar    1  UNL1        0.1318
      2 C          14.1475   85.1089   25.9233 C.ar    1  UNL1        0.0356
      3 C          13.7836   83.7720   26.0850 C.ar    1  UNL1        0.0191
      4 C          13.2602   83.0474   25.0099 C.ar    1  UNL1        0.0702
      5 C          13.1676   83.6791   23.7612 C.ar    1  UNL1        0.1149
      6 N          13.5153   84.9860   23.6296 N.ar    1  UNL1       -0.2279
      7 C          14.1458   89.3132   22.6795 C.3     1  UNL1        0.0471
      8 C          13.5486   89.5018   24.0904 C.3     1  UNL1        0.0252
      9 C          13.2514   88.1660   24.7853 C.3     1  UNL1        0.0923
     10 N          14.2647   87.1415   24.4783 N.pl3   1  UNL1       -0.2932
     11 C          15.5753   87.5918   23.9831 C.3     1  UNL1        0.0923
     12 C          15.4206   88.4216   22.6969 C.3     1  UNL1        0.0252
     13 C          13.0990   88.8461   21.6360 C.3     1  UNL1        0.2054
     14 O          13.4890   87.6308   20.9879 O.3     1  UNL1       -0.4758
     15 C          14.0776   86.0938   19.2113 C.ar    1  UNL1        0.0180
     16 C          13.7824   87.4162   19.6273 C.ar    1  UNL1        0.1347
     17 C          13.7720   88.4551   18.6773 C.ar    1  UNL1        0.0366
     18 C          13.9955   88.1827   17.3313 C.ar    1  UNL1        0.0033
     19 C          14.2589   86.8832   16.9111 C.ar    1  UNL1        0.0063
     20 C          14.3297   85.8297   17.8345 C.ar    1  UNL1        0.0744
     21 C          14.6506   84.4820   17.3086 C.2     1  UNL1        0.3378
     22 O          15.8390   84.1522   17.0520 O.2     1  UNL1       -0.2451
     23 O          13.6219   83.5810   17.0468 O.3     1  UNL1       -0.4771
     24 H          13.8200   82.6567   16.6825 H       1  UNL1        0.2954
     25 C          15.4423   84.9952   21.0067 C.3     1  UNL1        0.0051
     26 C          14.1125   84.9952   20.2584 C.3     1  UNL1        0.0297
     27 N          12.8747   81.6750   25.1947 N.am    1  UNL1       -0.2766
     28 C          11.5190   81.2103   25.1072 C.2     1  UNL1        0.2839
     29 O          10.5634   82.0186   25.2549 O.2     1  UNL1       -0.2665
     30 H          13.5946   81.0089   25.5533 H       1  UNL1        0.1553
     31 C          11.2136   79.7797   24.9329 C.ar    1  UNL1        0.1946
     32 O          11.5818   78.8657   25.8135 O.2     1  UNL1       -0.4492
     33 C          11.1786   77.6984   25.3750 C.ar    1  UNL1        0.1452
     34 C          11.3593   76.4594   25.9800 C.ar    1  UNL1        0.0375
     35 C          10.8448   75.3252   25.3277 C.ar    1  UNL1        0.0031
     36 C          10.1609   75.4454   24.0874 C.ar    1  UNL1        0.0002
     37 C           9.9972   76.7262   23.5071 C.ar    1  UNL1        0.0028
     38 C          10.5204   77.8289   24.1826 C.ar    1  UNL1        0.0337
     39 C          10.5153   79.1758   23.8798 C.ar    1  UNL1        0.0202
     40 C           9.8864   79.8235   22.6833 C.3     1  UNL1        0.0345
     41 C           9.6227   74.2404   23.4066 C.ar    1  UNL1        0.0000
     42 C          10.4736   73.1726   23.0627 C.ar    1  UNL1        0.0000
     43 C           9.9642   72.0391   22.4219 C.ar    1  UNL1        0.0000
     44 C           8.6034   71.9575   22.1185 C.ar    1  UNL1        0.0000
     45 C           7.7489   73.0096   22.4550 C.ar    1  UNL1        0.0000
     46 C           8.2530   74.1459   23.0951 C.ar    1  UNL1        0.0000
@<TRIPOS>BOND
     1    25    26    1
     2    26    15    1
     3    15    16   ar
     4    16    14    1
     5    14    13    1
     6    13     7    1
     7     7     8    1
     8     8     9    1
     9     9    10    1
    10    10     1    1
    11     1     2   ar
    12     2     3   ar
    13     3     4   ar
    14     4    27    1
    15    27    28   am
    16    28    29    2
    17    28    31    1
    18    31    32   ar
    19    32    33   ar
    20    33    34   ar
    21    34    35   ar
    22    35    36   ar
    23    36    41    1
    24    41    42   ar
    25    42    43   ar
    26    43    44   ar
    27    44    45   ar
    28    45    46   ar
    29    36    37   ar
    30    37    38   ar
    31    38    39   ar
    32    39    40    1
    33     4     5   ar
    34     5     6   ar
    35    10    11    1
    36    11    12    1
    37    16    17   ar
    38    17    18   ar
    39    18    19   ar
    40    19    20   ar
    41    20    21    1
    42    21    22    2
    43    21    23    1
    44    20    15   ar
    45    12     7    1
    46     6     1   ar
    47    39    31   ar
    48    38    33   ar
    49    46    41   ar
    50    27    30    1
    51    23    24    1
@<TRIPOS>MOLECULE
*****
 46 51 0 0 0
SMALL
GASTEIGER

@<TRIPOS>ATOM
      1 C           9.0103   77.3205   22.6087 C.ar    1  UNL1        0.1318
      2 C           9.2748   77.3916   23.9907 C.ar    1  UNL1        0.0356
      3 C           9.8396   78.5479   24.5290 C.ar    1  UNL1        0.0191
      4 C          10.1406   79.6366   23.7049 C.ar    1  UNL1        0.0702
      5 C           9.8072   79.5567   22.3450 C.ar    1  UNL1        0.1149
      6 N           9.2698   78.4156   21.8396 N.ar    1  UNL1       -0.2279
      7 C           6.7167   73.9406   22.2450 C.3     1  UNL1        0.0471
      8 C           6.6858   74.7623   20.9386 C.3     1  UNL1        0.0252
      9 C           7.3343   76.1440   21.0988 C.3     1  UNL1        0.0923
     10 N           8.5057   76.1089   21.9916 N.pl3   1  UNL1       -0.2932
     11 C           9.1560   74.8100   22.2283 C.3     1  UNL1        0.0923
     12 C           8.1582   73.7948   22.8119 C.3     1  UNL1        0.0252
     13 C           5.7023   74.4458   23.3026 C.3     1  UNL1        0.2054
     14 O           4.6023   75.1407   22.7057 O.3     1  UNL1       -0.4758
     15 C           3.0681   76.9757   22.3264 C.ar    1  UNL1        0.0180
     16 C           3.8560   76.2154   23.2265 C.ar    1  UNL1        0.1347
     17 C           3.8517   76.5411   24.5961 C.ar    1  UNL1        0.0366
     18 C           3.0409   77.5653   25.0753 C.ar    1  UNL1        0.0033
     19 C           2.2441   78.2984   24.2023 C.ar    1  UNL1        0.0063
     20 C           2.2607   78.0385   22.8239 C.ar    1  UNL1        0.0744
     21 C           1.4094   78.8889   21.9591 C.2     1  UNL1        0.3378
     22 O           1.9110   79.8067   21.2569 O.2     1  UNL1       -0.2451
     23 O           0.0291   78.7062   21.9565 O.3     1  UNL1       -0.4771
     24 H          -0.5706   79.2805   21.3761 H       1  UNL1        0.2954
     25 C           4.1001   77.5178   20.1052 C.3     1  UNL1        0.0051
     26 C           3.1120   76.6249   20.8501 C.3     1  UNL1        0.0297
     27 N          10.7369   80.8160   24.2703 N.am    1  UNL1       -0.2766
     28 C          12.1449   80.9579   24.5130 C.2     1  UNL1        0.2839
     29 O          12.8747   79.9354   24.6141 O.2     1  UNL1       -0.2665
     30 H          10.1007   81.5479   24.6580 H       1  UNL1        0.1553
     31 C          12.7501   82.2824   24.7355 C.ar    1  UNL1        0.1946
     32 O          13.0241   83.1105   23.7426 O.2     1  UNL1       -0.4492
     33 C          13.5615   84.1902   24.2552 C.ar    1  UNL1        0.1452
     34 C          14.0108   85.3162   23.5740 C.ar    1  UNL1        0.0375
     35 C          14.5626   86.3669   24.3278 C.ar    1  UNL1        0.0031
     36 C          14.6567   86.2773   25.7432 C.ar    1  UNL1        0.0002
     37 C          14.1854   85.1136   26.3972 C.ar    1  UNL1        0.0028
     38 C          13.6438   84.0915   25.6174 C.ar    1  UNL1        0.0337
     39 C          13.1079   82.8655   25.9576 C.ar    1  UNL1        0.0202
     40 C          12.9492   82.3088   27.3401 C.3     1  UNL1        0.0345
     41 C          15.2427   87.3927   26.5292 C.ar    1  UNL1        0.0000
     42 C          16.1142   88.3162   25.9210 C.ar    1  UNL1        0.0000
     43 C          16.6644   89.3656   26.6633 C.ar    1  UNL1        0.0000
     44 C          16.3516   89.5060   28.0171 C.ar    1  UNL1        0.0000
     45 C          15.4879   88.5969   28.6319 C.ar    1  UNL1        0.0000
     46 C          14.9354   87.5451   27.8947 C.ar    1  UNL1        0.0000
@<TRIPOS>BOND
     1    25    26    1
     2    26    15    1
     3    15    16   ar
     4    16    14    1
     5    14    13    1
     6    13     7    1
     7     7     8    1
     8     8     9    1
     9     9    10    1
    10    10     1    1
    11     1     2   ar
    12     2     3   ar
    13     3     4   ar
    14     4    27    1
    15    27    28   am
    16    28    29    2
    17    28    31    1
    18    31    32   ar
    19    32    33   ar
    20    33    34   ar
    21    34    35   ar
    22    35    36   ar
    23    36    41    1
    24    41    42   ar
    25    42    43   ar
    26    43    44   ar
    27    44    45   ar
    28    45    46   ar
    29    36    37   ar
    30    37    38   ar
    31    38    39   ar
    32    39    40    1
    33     4     5   ar
    34     5     6   ar
    35    10    11    1
    36    11    12    1
    37    16    17   ar
    38    17    18   ar
    39    18    19   ar
    40    19    20   ar
    41    20    21    1
    42    21    22    2
    43    21    23    1
    44    20    15   ar
    45    12     7    1
    46     6     1   ar
    47    39    31   ar
    48    38    33   ar
    49    46    41   ar
    50    27    30    1
    51    23    24    1
@<TRIPOS>MOLECULE
*****
 46 51 0 0 0
SMALL
GASTEIGER

@<TRIPOS>ATOM
      1 C           7.8767   77.8698   25.6397 C.ar    1  UNL1        0.1318
      2 C           8.8500   78.0245   24.6329 C.ar    1  UNL1        0.0356
      3 C           9.7519   79.0866   24.6991 C.ar    1  UNL1        0.0191
      4 C           9.6967   79.9950   25.7606 C.ar    1  UNL1        0.0702
      5 C           8.7567   79.7763   26.7781 C.ar    1  UNL1        0.1149
      6 N           7.8791   78.7429   26.6865 N.ar    1  UNL1       -0.2279
      7 C           6.0049   74.3461   26.5865 C.3     1  UNL1        0.0471
      8 C           4.9897   75.5084   26.5485 C.3     1  UNL1        0.0252
      9 C           5.6705   76.8786   26.4292 C.3     1  UNL1        0.0923
     10 N           6.8644   76.8337   25.5671 N.pl3   1  UNL1       -0.2932
     11 C           6.9927   75.7133   24.6215 C.3     1  UNL1        0.0923
     12 C           6.9634   74.3647   25.3612 C.3     1  UNL1        0.0252
     13 C           6.7574   74.2430   27.9377 C.3     1  UNL1        0.2054
     14 O           6.8854   75.5149   28.5819 O.3     1  UNL1       -0.4758
     15 C           7.9515   77.4390   29.5949 C.ar    1  UNL1        0.0180
     16 C           8.0444   76.2935   28.7654 C.ar    1  UNL1        0.1347
     17 C           9.2796   75.9636   28.1759 C.ar    1  UNL1        0.0366
     18 C          10.4149   76.7213   28.4457 C.ar    1  UNL1        0.0033
     19 C          10.3378   77.8311   29.2805 C.ar    1  UNL1        0.0063
     20 C           9.1146   78.2225   29.8445 C.ar    1  UNL1        0.0744
     21 C           9.1123   79.4372   30.6933 C.2     1  UNL1        0.3378
     22 O           9.4089   79.3743   31.9160 O.2     1  UNL1       -0.2451
     23 O           8.7303   80.6596   30.1469 O.3     1  UNL1       -0.4771
     24 H           8.7173   81.5005   30.7117 H       1  UNL1        0.2954
     25 C           6.4167   77.1220   31.5537 C.3     1  UNL1        0.0051
     26 C           6.6026   77.7918   30.1953 C.3     1  UNL1        0.0297
     27 N          10.6221   81.0939   25.8080 N.am    1  UNL1       -0.2766
     28 C          11.8881   81.0984   25.1306 C.2     1  UNL1        0.2839
     29 O          12.4260   80.0108   24.7899 O.2     1  UNL1       -0.2665
     30 H          10.4301   81.8660   26.4846 H       1  UNL1        0.1553
     31 C          12.6235   82.3535   24.8982 C.ar    1  UNL1        0.1946
     32 O          12.6319   82.9612   23.7247 O.2     1  UNL1       -0.4492
     33 C          13.3763   84.0344   23.8321 C.ar    1  UNL1        0.1452
     34 C          13.6688   84.9634   22.8396 C.ar    1  UNL1        0.0375
     35 C          14.4999   86.0469   23.1741 C.ar    1  UNL1        0.0031
     36 C          15.0233   86.1852   24.4884 C.ar    1  UNL1        0.0002
     37 C          14.6989   85.2176   25.4694 C.ar    1  UNL1        0.0028
     38 C          13.8714   84.1564   25.1018 C.ar    1  UNL1        0.0337
     39 C          13.3837   83.0833   25.8206 C.ar    1  UNL1        0.0202
     40 C          13.6247   82.7917   27.2709 C.3     1  UNL1        0.0345
     41 C          15.9013   87.3331   24.8302 C.ar    1  UNL1        0.0000
     42 C          17.1263   87.5210   24.1620 C.ar    1  UNL1        0.0000
     43 C          17.9510   88.6028   24.4857 C.ar    1  UNL1        0.0000
     44 C          17.5638   89.5076   25.4765 C.ar    1  UNL1        0.0000
     45 C          16.3508   89.3326   26.1461 C.ar    1  UNL1        0.0000
     46 C          15.5225   88.2521   25.8272 C.ar    1  UNL1        0.0000
@<TRIPOS>BOND
     1    25    26    1
     2    26    15    1
     3    15    16   ar
     4    16    14    1
     5    14    13    1
     6    13     7    1
     7     7     8    1
     8     8     9    1
     9     9    10    1
    10    10     1    1
    11     1     2   ar
    12     2     3   ar
    13     3     4   ar
    14     4    27    1
    15    27    28   am
    16    28    29    2
    17    28    31    1
    18    31    32   ar
    19    32    33   ar
    20    33    34   ar
    21    34    35   ar
    22    35    36   ar
    23    36    41    1
    24    41    42   ar
    25    42    43   ar
    26    43    44   ar
    27    44    45   ar
    28    45    46   ar
    29    36    37   ar
    30    37    38   ar
    31    38    39   ar
    32    39    40    1
    33     4     5   ar
    34     5     6   ar
    35    10    11    1
    36    11    12    1
    37    16    17   ar
    38    17    18   ar
    39    18    19   ar
    40    19    20   ar
    41    20    21    1
    42    21    22    2
    43    21    23    1
    44    20    15   ar
    45    12     7    1
    46     6     1   ar
    47    39    31   ar
    48    38    33   ar
    49    46    41   ar
    50    27    30    1
    51    23    24    1
@<TRIPOS>MOLECULE
*****
 46 51 0 0 0
SMALL
GASTEIGER

@<TRIPOS>ATOM
      1 C           8.4186   77.7091   23.3942 C.ar    1  UNL1        0.1318
      2 C           8.9821   78.5525   22.4165 C.ar    1  UNL1        0.0356
      3 C           9.6679   79.7029   22.8064 C.ar    1  UNL1        0.0191
      4 C           9.8017   80.0203   24.1615 C.ar    1  UNL1        0.0702
      5 C           9.2833   79.1274   25.1105 C.ar    1  UNL1        0.1149
      6 N           8.6074   78.0195   24.7081 N.ar    1  UNL1       -0.2279
      7 C           6.6601   74.0363   23.8793 C.3     1  UNL1        0.0471
      8 C           5.6440   75.0570   23.3240 C.3     1  UNL1        0.0252
      9 C           6.1842   76.4934   23.3440 C.3     1  UNL1        0.0923
     10 N           7.6233   76.5510   23.0338 N.pl3   1  UNL1       -0.2932
     11 C           8.2268   75.4041   22.3363 C.3     1  UNL1        0.0923
     12 C           8.0262   74.1066   23.1380 C.3     1  UNL1        0.0252
     13 C           6.8077   74.1055   25.4208 C.3     1  UNL1        0.2054
     14 O           5.6660   74.7017   26.0454 O.3     1  UNL1       -0.4758
     15 C           4.7943   75.7747   28.0338 C.ar    1  UNL1        0.0180
     16 C           5.2433   74.5974   27.3847 C.ar    1  UNL1        0.1347
     17 C           5.2334   73.3749   28.0827 C.ar    1  UNL1        0.0366
     18 C           4.7373   73.3076   29.3808 C.ar    1  UNL1        0.0033
     19 C           4.2695   74.4535   30.0153 C.ar    1  UNL1        0.0063
     20 C           4.3118   75.6993   29.3719 C.ar    1  UNL1        0.0744
     21 C           3.8273   76.8760   30.1311 C.2     1  UNL1        0.3378
     22 O           2.6384   76.9371   30.5432 O.2     1  UNL1       -0.2451
     23 O           4.6811   77.9533   30.3523 O.3     1  UNL1       -0.4771
     24 H           4.3675   78.7690   30.8647 H       1  UNL1        0.2954
     25 C           3.6575   77.2079   26.3173 C.3     1  UNL1        0.0051
     26 C           4.8424   77.0864   27.2711 C.3     1  UNL1        0.0297
     27 N          10.4973   81.2172   24.5486 N.am    1  UNL1       -0.2766
     28 C          11.9224   81.2941   24.7060 C.2     1  UNL1        0.2839
     29 O          12.5941   80.2452   24.8984 O.2     1  UNL1       -0.2665
     30 H           9.9280   82.0308   24.8721 H       1  UNL1        0.1553
     31 C          12.6169   82.5929   24.7348 C.ar    1  UNL1        0.1946
     32 O          12.4671   83.4962   23.7819 O.2     1  UNL1       -0.4492
     33 C          13.2163   84.5282   24.0836 C.ar    1  UNL1        0.1452
     34 C          13.3712   85.7025   23.3550 C.ar    1  UNL1        0.0375
     35 C          14.2367   86.6861   23.8650 C.ar    1  UNL1        0.0031
     36 C          14.9304   86.4829   25.0889 C.ar    1  UNL1        0.0002
     37 C          14.7423   85.2734   25.8000 C.ar    1  UNL1        0.0028
     38 C          13.8760   84.3202   25.2641 C.ar    1  UNL1        0.0337
     39 C          13.4914   83.0741   25.7172 C.ar    1  UNL1        0.0202
     40 C          13.9245   82.4094   26.9889 C.3     1  UNL1        0.0345
     41 C          15.8431   87.5283   25.6174 C.ar    1  UNL1        0.0000
     42 C          15.5079   88.2504   26.7787 C.ar    1  UNL1        0.0000
     43 C          16.3692   89.2341   27.2743 C.ar    1  UNL1        0.0000
     44 C          17.5720   89.5073   26.6194 C.ar    1  UNL1        0.0000
     45 C          17.9163   88.7975   25.4670 C.ar    1  UNL1        0.0000
     46 C          17.0584   87.8133   24.9664 C.ar    1  UNL1        0.0000
@<TRIPOS>BOND
     1    25    26    1
     2    26    15    1
     3    15    16   ar
     4    16    14    1
     5    14    13    1
     6    13     7    1
     7     7     8    1
     8     8     9    1
     9     9    10    1
    10    10     1    1
    11     1     2   ar
    12     2     3   ar
    13     3     4   ar
    14     4    27    1
    15    27    28   am
    16    28    29    2
    17    28    31    1
    18    31    32   ar
    19    32    33   ar
    20    33    34   ar
    21    34    35   ar
    22    35    36   ar
    23    36    41    1
    24    41    42   ar
    25    42    43   ar
    26    43    44   ar
    27    44    45   ar
    28    45    46   ar
    29    36    37   ar
    30    37    38   ar
    31    38    39   ar
    32    39    40    1
    33     4     5   ar
    34     5     6   ar
    35    10    11    1
    36    11    12    1
    37    16    17   ar
    38    17    18   ar
    39    18    19   ar
    40    19    20   ar
    41    20    21    1
    42    21    22    2
    43    21    23    1
    44    20    15   ar
    45    12     7    1
    46     6     1   ar
    47    39    31   ar
    48    38    33   ar
    49    46    41   ar
    50    27    30    1
    51    23    24    1
@<TRIPOS>MOLECULE
*****
 46 51 0 0 0
SMALL
GASTEIGER

@<TRIPOS>ATOM
      1 C           6.8283   77.9194   29.6534 C.ar    1  UNL1        0.1318
      2 C           8.0747   77.8865   30.3093 C.ar    1  UNL1        0.0356
      3 C           9.1376   78.6424   29.8146 C.ar    1  UNL1        0.0191
      4 C           8.9708   79.4344   28.6746 C.ar    1  UNL1        0.0702
      5 C           7.7008   79.4932   28.0826 C.ar    1  UNL1        0.1149
      6 N           6.6831   78.7382   28.5732 N.ar    1  UNL1       -0.2279
      7 C           4.3201   74.6752   29.6343 C.3     1  UNL1        0.0471
      8 C           4.7927   74.9891   31.0699 C.3     1  UNL1        0.0252
      9 C           5.9090   76.0418   31.1033 C.3     1  UNL1        0.0923
     10 N           5.7216   77.0843   30.0793 N.pl3   1  UNL1       -0.2932
     11 C           4.3757   77.2612   29.5108 C.3     1  UNL1        0.0923
     12 C           3.8740   75.9553   28.8709 C.3     1  UNL1        0.0252
     13 C           5.3371   73.8213   28.8347 C.3     1  UNL1        0.2054
     14 O           6.3417   74.6260   28.2082 O.3     1  UNL1       -0.4758
     15 C           8.5438   75.4171   27.5840 C.ar    1  UNL1        0.0180
     16 C           7.7297   74.6406   28.4460 C.ar    1  UNL1        0.1347
     17 C           8.3232   73.9349   29.5098 C.ar    1  UNL1        0.0366
     18 C           9.6897   74.0388   29.7501 C.ar    1  UNL1        0.0033
     19 C          10.4914   74.8206   28.9251 C.ar    1  UNL1        0.0063
     20 C           9.9457   75.4966   27.8238 C.ar    1  UNL1        0.0744
     21 C          10.8747   76.2787   26.9747 C.2     1  UNL1        0.3378
     22 O          10.9604   76.0613   25.7368 O.2     1  UNL1       -0.2451
     23 O          11.7020   77.2352   27.5572 O.3     1  UNL1       -0.4771
     24 H          12.3474   77.7768   26.9948 H       1  UNL1        0.2954
     25 C           7.5659   75.1825   25.2859 C.3     1  UNL1        0.0051
     26 C           7.8855   76.1451   26.4260 C.3     1  UNL1        0.0297
     27 N          10.0790   80.1960   28.1666 N.am    1  UNL1       -0.2766
     28 C          10.5180   80.1484   26.8004 C.2     1  UNL1        0.2839
     29 O          10.2195   79.1619   26.0750 O.2     1  UNL1       -0.2665
     30 H          10.6847   80.6965   28.8546 H       1  UNL1        0.1553
     31 C          11.3920   81.1956   26.2439 C.ar    1  UNL1        0.1946
     32 O          12.1531   81.9605   27.0068 O.2     1  UNL1       -0.4492
     33 C          12.7968   82.7940   26.2268 C.ar    1  UNL1        0.1452
     34 C          13.6983   83.7824   26.6063 C.ar    1  UNL1        0.0375
     35 C          14.2739   84.5734   25.5966 C.ar    1  UNL1        0.0031
     36 C          13.9421   84.3659   24.2301 C.ar    1  UNL1        0.0002
     37 C          13.0210   83.3471   23.8872 C.ar    1  UNL1        0.0028
     38 C          12.4700   82.5818   24.9152 C.ar    1  UNL1        0.0337
     39 C          11.5689   81.5361   24.8970 C.ar    1  UNL1        0.0202
     40 C          10.9393   80.9159   23.6863 C.3     1  UNL1        0.0345
     41 C          14.5553   85.2083   23.1720 C.ar    1  UNL1        0.0000
     42 C          15.1331   86.4516   23.4923 C.ar    1  UNL1        0.0000
     43 C          15.7100   87.2427   22.4940 C.ar    1  UNL1        0.0000
     44 C          15.7178   86.8034   21.1684 C.ar    1  UNL1        0.0000
     45 C          15.1484   85.5717   20.8379 C.ar    1  UNL1        0.0000
     46 C          14.5694   84.7768   21.8319 C.ar    1  UNL1        0.0000
@<TRIPOS>BOND
     1    25    26    1
     2    26    15    1
     3    15    16   ar
     4    16    14    1
     5    14    13    1
     6    13     7    1
     7     7     8    1
     8     8     9    1
     9     9    10    1
    10    10     1    1
    11     1     2   ar
    12     2     3   ar
    13     3     4   ar
    14     4    27    1
    15    27    28   am
    16    28    29    2
    17    28    31    1
    18    31    32   ar
    19    32    33   ar
    20    33    34   ar
    21    34    35   ar
    22    35    36   ar
    23    36    41    1
    24    41    42   ar
    25    42    43   ar
    26    43    44   ar
    27    44    45   ar
    28    45    46   ar
    29    36    37   ar
    30    37    38   ar
    31    38    39   ar
    32    39    40    1
    33     4     5   ar
    34     5     6   ar
    35    10    11    1
    36    11    12    1
    37    16    17   ar
    38    17    18   ar
    39    18    19   ar
    40    19    20   ar
    41    20    21    1
    42    21    22    2
    43    21    23    1
    44    20    15   ar
    45    12     7    1
    46     6     1   ar
    47    39    31   ar
    48    38    33   ar
    49    46    41   ar
    50    27    30    1
    51    23    24    1
