@<TRIPOS>MOLECULE
*****
 46 51 0 0 0
SMALL
GASTEIGER

@<TRIPOS>ATOM
      1 C         -26.0081   49.7223   -8.3066 C.ar    1  UNL1        0.0702
      2 C         -24.9030   50.3276   -7.6961 C.ar    1  UNL1        0.0191
      3 C         -23.9531   50.9993   -8.4669 C.ar    1  UNL1        0.0356
      4 C         -24.1149   51.0681   -9.8596 C.ar    1  UNL1        0.1318
      5 N         -25.2179   50.5065  -10.4282 N.ar    1  UNL1       -0.2279
      6 C         -26.1543   49.8452   -9.6979 C.ar    1  UNL1        0.1149
      7 N         -23.1679   51.7713  -10.6862 N.pl3   1  UNL1       -0.2932
      8 C         -21.8059   51.2609  -10.8978 C.3     1  UNL1        0.0923
      9 C         -20.7643   52.3678  -10.6603 C.3     1  UNL1        0.0252
     10 C         -21.2707   53.7848  -11.0424 C.3     1  UNL1        0.0472
     11 C         -22.4343   53.7172  -12.0511 C.3     1  UNL1        0.0252
     12 C         -23.6174   52.9507  -11.4405 C.3     1  UNL1        0.0923
     13 C         -20.1161   54.6507  -11.5826 C.3     1  UNL1        0.2054
     14 O         -19.8652   55.7690  -10.7295 O.3     1  UNL1       -0.4750
     15 C         -19.6176   55.7110   -9.3460 C.ar    1  UNL1        0.1440
     16 C         -19.4806   54.4885   -8.6635 C.ar    1  UNL1        0.0374
     17 C         -19.2487   54.4704   -7.2908 C.ar    1  UNL1        0.0034
     18 C         -19.1364   55.6643   -6.5818 C.ar    1  UNL1        0.0071
     19 C         -19.2477   56.9037   -7.2364 C.ar    1  UNL1        0.0838
     20 C         -19.5019   56.9204   -8.6328 C.ar    1  UNL1        0.0618
     21 S         -19.7635   58.4587   -9.5337 S.3     1  UNL1       -0.1383
     22 H         -18.3973   58.5655   -9.8548 H       1  UNL1        0.1072
     23 C         -19.0932   58.1424   -6.4327 C.2     1  UNL1        0.3386
     24 O         -17.9428   58.5360   -6.0981 O.2     1  UNL1       -0.2451
     25 O         -20.1987   58.9072   -6.0730 O.3     1  UNL1       -0.4771
     26 H         -20.0903   59.7591   -5.5355 H       1  UNL1        0.2954
     27 C         -28.0881   49.7249   -6.8586 C.2     1  UNL1        0.2839
     28 O         -28.5293   50.8055   -7.3342 O.2     1  UNL1       -0.2665
     29 N         -26.9921   49.0541   -7.4982 N.am    1  UNL1       -0.2766
     30 H         -26.9725   48.0104   -7.4626 H       1  UNL1        0.1553
     31 C         -27.0856   49.7081   -3.7835 C.3     1  UNL1        0.0345
     32 C         -28.3345   49.1162   -4.3639 C.ar    1  UNL1        0.0202
     33 C         -28.7705   49.1320   -5.6949 C.ar    1  UNL1        0.1946
     34 O         -29.9418   48.5280   -5.7936 O.2     1  UNL1       -0.4492
     35 C         -30.2773   48.1020   -4.6003 C.ar    1  UNL1        0.1452
     36 C         -31.4266   47.4052   -4.2435 C.ar    1  UNL1        0.0375
     37 C         -31.5840   47.0384   -2.8955 C.ar    1  UNL1        0.0031
     38 C         -30.5961   47.3716   -1.9292 C.ar    1  UNL1        0.0002
     39 C         -29.4419   48.0836   -2.3350 C.ar    1  UNL1        0.0028
     40 C         -29.3194   48.4313   -3.6804 C.ar    1  UNL1        0.0337
     41 C         -30.7724   46.9778   -0.5083 C.ar    1  UNL1        0.0000
     42 C         -30.4109   47.8588    0.5288 C.ar    1  UNL1        0.0000
     43 C         -30.5792   47.4855    1.8658 C.ar    1  UNL1        0.0000
     44 C         -31.1077   46.2323    2.1828 C.ar    1  UNL1        0.0000
     45 C         -31.4699   45.3494    1.1631 C.ar    1  UNL1        0.0000
     46 C         -31.3048   45.7176   -0.1756 C.ar    1  UNL1        0.0000
@<TRIPOS>BOND
     1    31    32    1
     2    32    33   ar
     3    33    27    1
     4    27    28    2
     5    27    29   am
     6    29     1    1
     7     1     2   ar
     8     2     3   ar
     9     3     4   ar
    10     4     7    1
    11     7     8    1
    12     8     9    1
    13     9    10    1
    14    10    13    1
    15    13    14    1
    16    14    15    1
    17    15    16   ar
    18    16    17   ar
    19    17    18   ar
    20    18    19   ar
    21    19    23    1
    22    23    24    2
    23    23    25    1
    24    19    20   ar
    25    20    21    1
    26    10    11    1
    27    11    12    1
    28     4     5   ar
    29     5     6   ar
    30    33    34   ar
    31    34    35   ar
    32    35    36   ar
    33    36    37   ar
    34    37    38   ar
    35    38    41    1
    36    41    42   ar
    37    42    43   ar
    38    43    44   ar
    39    44    45   ar
    40    45    46   ar
    41    38    39   ar
    42    39    40   ar
    43    40    32   ar
    44     6     1   ar
    45    40    35   ar
    46    12     7    1
    47    46    41   ar
    48    20    15   ar
    49    29    30    1
    50    25    26    1
    51    21    22    1
@<TRIPOS>MOLECULE
*****
 46 51 0 0 0
SMALL
GASTEIGER

@<TRIPOS>ATOM
      1 C         -23.3932   52.1930   -9.5690 C.ar    1  UNL1        0.0702
      2 C         -24.1094   51.8895  -10.7333 C.ar    1  UNL1        0.0191
      3 C         -24.9929   50.8095  -10.7550 C.ar    1  UNL1        0.0356
      4 C         -25.1627   50.0307   -9.5995 C.ar    1  UNL1        0.1318
      5 N         -24.4861   50.3680   -8.4665 N.ar    1  UNL1       -0.2279
      6 C         -23.6186   51.4135   -8.4228 C.ar    1  UNL1        0.1149
      7 N         -26.0818   48.9221   -9.5763 N.pl3   1  UNL1       -0.2932
      8 C         -27.1582   48.7960  -10.5692 C.3     1  UNL1        0.0923
      9 C         -28.5051   48.5124   -9.8824 C.3     1  UNL1        0.0252
     10 C         -28.3709   47.6774   -8.5805 C.3     1  UNL1        0.0472
     11 C         -27.0562   46.8728   -8.5571 C.3     1  UNL1        0.0252
     12 C         -25.8535   47.8262   -8.6227 C.3     1  UNL1        0.0923
     13 C         -29.5909   46.7545   -8.3947 C.3     1  UNL1        0.2054
     14 O         -30.5516   47.3383   -7.5129 O.3     1  UNL1       -0.4750
     15 C         -30.2629   48.0549   -6.3374 C.ar    1  UNL1        0.1440
     16 C         -29.7429   47.4279   -5.1904 C.ar    1  UNL1        0.0374
     17 C         -29.4816   48.1680   -4.0405 C.ar    1  UNL1        0.0034
     18 C         -29.7198   49.5404   -4.0194 C.ar    1  UNL1        0.0071
     19 C         -30.2198   50.2019   -5.1550 C.ar    1  UNL1        0.0838
     20 C         -30.5025   49.4431   -6.3207 C.ar    1  UNL1        0.0618
     21 S         -31.2429   50.1885   -7.7845 S.3     1  UNL1       -0.1383
     22 H         -29.9827   50.4549   -8.3519 H       1  UNL1        0.1072
     23 C         -30.4291   51.6699   -5.0811 C.2     1  UNL1        0.3386
     24 O         -31.4262   52.1330   -4.4633 O.2     1  UNL1       -0.2451
     25 O         -29.5174   52.5544   -5.6492 O.3     1  UNL1       -0.4771
     26 H         -29.6551   53.5562   -5.5868 H       1  UNL1        0.2954
     27 C         -21.2126   53.3135   -8.9268 C.2     1  UNL1        0.2839
     28 O         -20.5902   52.2269   -8.7836 O.2     1  UNL1       -0.2665
     29 N         -22.5042   53.3232   -9.5529 N.am    1  UNL1       -0.2766
     30 H         -22.7641   54.1612  -10.1197 H       1  UNL1        0.1553
     31 C         -21.8837   56.3128   -9.9345 C.3     1  UNL1        0.0345
     32 C         -20.8374   55.8655   -8.9587 C.ar    1  UNL1        0.0202
     33 C         -20.5541   54.5666   -8.5176 C.ar    1  UNL1        0.1946
     34 O         -19.5768   54.5947   -7.6285 O.2     1  UNL1       -0.4492
     35 C         -19.1966   55.8410   -7.4868 C.ar    1  UNL1        0.1452
     36 C         -18.1909   56.3294   -6.6600 C.ar    1  UNL1        0.0375
     37 C         -17.9445   57.7135   -6.6677 C.ar    1  UNL1        0.0031
     38 C         -18.7026   58.5843   -7.4969 C.ar    1  UNL1        0.0002
     39 C         -19.7187   58.0455   -8.3221 C.ar    1  UNL1        0.0028
     40 C         -19.9357   56.6679   -8.2884 C.ar    1  UNL1        0.0337
     41 C         -18.4326   60.0445   -7.4978 C.ar    1  UNL1        0.0000
     42 C         -17.1642   60.5379   -7.8587 C.ar    1  UNL1        0.0000
     43 C         -16.9134   61.9135   -7.8597 C.ar    1  UNL1        0.0000
     44 C         -17.9219   62.8103   -7.5008 C.ar    1  UNL1        0.0000
     45 C         -19.1842   62.3335   -7.1405 C.ar    1  UNL1        0.0000
     46 C         -19.4411   60.9591   -7.1387 C.ar    1  UNL1        0.0000
@<TRIPOS>BOND
     1    31    32    1
     2    32    33   ar
     3    33    27    1
     4    27    28    2
     5    27    29   am
     6    29     1    1
     7     1     2   ar
     8     2     3   ar
     9     3     4   ar
    10     4     7    1
    11     7     8    1
    12     8     9    1
    13     9    10    1
    14    10    13    1
    15    13    14    1
    16    14    15    1
    17    15    16   ar
    18    16    17   ar
    19    17    18   ar
    20    18    19   ar
    21    19    23    1
    22    23    24    2
    23    23    25    1
    24    19    20   ar
    25    20    21    1
    26    10    11    1
    27    11    12    1
    28     4     5   ar
    29     5     6   ar
    30    33    34   ar
    31    34    35   ar
    32    35    36   ar
    33    36    37   ar
    34    37    38   ar
    35    38    41    1
    36    41    42   ar
    37    42    43   ar
    38    43    44   ar
    39    44    45   ar
    40    45    46   ar
    41    38    39   ar
    42    39    40   ar
    43    40    32   ar
    44     6     1   ar
    45    40    35   ar
    46    12     7    1
    47    46    41   ar
    48    20    15   ar
    49    29    30    1
    50    25    26    1
    51    21    22    1
@<TRIPOS>MOLECULE
*****
 46 51 0 0 0
SMALL
GASTEIGER

@<TRIPOS>ATOM
      1 C         -23.6222   52.1650   -9.5232 C.ar    1  UNL1        0.0702
      2 C         -24.2986   51.8129  -10.6976 C.ar    1  UNL1        0.0191
      3 C         -25.1802   50.7311  -10.7049 C.ar    1  UNL1        0.0356
      4 C         -25.3882   49.9996   -9.5249 C.ar    1  UNL1        0.1318
      5 N         -24.7502   50.3841   -8.3846 N.ar    1  UNL1       -0.2279
      6 C         -23.8854   51.4323   -8.3544 C.ar    1  UNL1        0.1149
      7 N         -26.3068   48.8909   -9.4875 N.pl3   1  UNL1       -0.2932
      8 C         -27.5634   48.9088  -10.2497 C.3     1  UNL1        0.0923
      9 C         -28.7501   48.5076   -9.3569 C.3     1  UNL1        0.0252
     10 C         -28.3740   47.4823   -8.2534 C.3     1  UNL1        0.0472
     11 C         -27.0987   46.6981   -8.6203 C.3     1  UNL1        0.0252
     12 C         -25.9141   47.6630   -8.7801 C.3     1  UNL1        0.0923
     13 C         -29.5507   46.5287   -7.9692 C.3     1  UNL1        0.2054
     14 O         -29.9615   46.6068   -6.6031 O.3     1  UNL1       -0.4750
     15 C         -29.1876   46.2392   -5.4874 C.ar    1  UNL1        0.1440
     16 C         -28.7670   44.9136   -5.2756 C.ar    1  UNL1        0.0374
     17 C         -28.0126   44.5850   -4.1525 C.ar    1  UNL1        0.0034
     18 C         -27.6551   45.5696   -3.2341 C.ar    1  UNL1        0.0071
     19 C         -28.0414   46.9078   -3.4261 C.ar    1  UNL1        0.0838
     20 C         -28.8256   47.2381   -4.5622 C.ar    1  UNL1        0.0618
     21 S         -29.4533   48.9052   -4.8326 S.3     1  UNL1       -0.1383
     22 H         -28.3268   49.2631   -5.5967 H       1  UNL1        0.1072
     23 C         -27.6087   47.9172   -2.4271 C.2     1  UNL1        0.3386
     24 O         -28.1706   47.9673   -1.2992 O.2     1  UNL1       -0.2451
     25 O         -26.5589   48.7899   -2.6968 O.3     1  UNL1       -0.4771
     26 H         -26.2565   49.4696   -2.0091 H       1  UNL1        0.2954
     27 C         -21.3996   53.2638   -8.9981 C.2     1  UNL1        0.2839
     28 O         -20.7676   52.1742   -8.9518 O.2     1  UNL1       -0.2665
     29 N         -22.7350   53.2968   -9.5234 N.am    1  UNL1       -0.2766
     30 H         -23.0375   54.1585  -10.0303 H       1  UNL1        0.1553
     31 C         -22.0387   56.2882   -9.9497 C.3     1  UNL1        0.0345
     32 C         -20.9820   55.8094   -9.0005 C.ar    1  UNL1        0.0202
     33 C         -20.7125   54.4997   -8.5836 C.ar    1  UNL1        0.1946
     34 O         -19.7183   54.4985   -7.7129 O.2     1  UNL1       -0.4492
     35 C         -19.3145   55.7361   -7.5607 C.ar    1  UNL1        0.1452
     36 C         -18.2854   56.1956   -6.7463 C.ar    1  UNL1        0.0375
     37 C         -18.0158   57.5754   -6.7388 C.ar    1  UNL1        0.0031
     38 C         -18.7745   58.4707   -7.5409 C.ar    1  UNL1        0.0002
     39 C         -19.8149   57.9609   -8.3542 C.ar    1  UNL1        0.0028
     40 C         -20.0544   56.5868   -8.3361 C.ar    1  UNL1        0.0337
     41 C         -18.4800   59.9261   -7.5261 C.ar    1  UNL1        0.0000
     42 C         -19.4738   60.8540   -7.1604 C.ar    1  UNL1        0.0000
     43 C         -19.1930   62.2237   -7.1463 C.ar    1  UNL1        0.0000
     44 C         -17.9214   62.6824   -7.4966 C.ar    1  UNL1        0.0000
     45 C         -16.9270   61.7721   -7.8614 C.ar    1  UNL1        0.0000
     46 C         -17.2017   60.4012   -7.8764 C.ar    1  UNL1        0.0000
@<TRIPOS>BOND
     1    31    32    1
     2    32    33   ar
     3    33    27    1
     4    27    28    2
     5    27    29   am
     6    29     1    1
     7     1     2   ar
     8     2     3   ar
     9     3     4   ar
    10     4     7    1
    11     7     8    1
    12     8     9    1
    13     9    10    1
    14    10    13    1
    15    13    14    1
    16    14    15    1
    17    15    16   ar
    18    16    17   ar
    19    17    18   ar
    20    18    19   ar
    21    19    23    1
    22    23    24    2
    23    23    25    1
    24    19    20   ar
    25    20    21    1
    26    10    11    1
    27    11    12    1
    28     4     5   ar
    29     5     6   ar
    30    33    34   ar
    31    34    35   ar
    32    35    36   ar
    33    36    37   ar
    34    37    38   ar
    35    38    41    1
    36    41    42   ar
    37    42    43   ar
    38    43    44   ar
    39    44    45   ar
    40    45    46   ar
    41    38    39   ar
    42    39    40   ar
    43    40    32   ar
    44     6     1   ar
    45    40    35   ar
    46    12     7    1
    47    46    41   ar
    48    20    15   ar
    49    29    30    1
    50    25    26    1
    51    21    22    1
@<TRIPOS>MOLECULE
*****
 46 51 0 0 0
SMALL
GASTEIGER

@<TRIPOS>ATOM
      1 C         -23.5561   52.1790   -9.5860 C.ar    1  UNL1        0.0702
      2 C         -24.2159   51.8281  -10.7701 C.ar    1  UNL1        0.0191
      3 C         -25.0957   50.7451  -10.7914 C.ar    1  UNL1        0.0356
      4 C         -25.3188   50.0112   -9.6157 C.ar    1  UNL1        0.1318
      5 N         -24.6970   50.3946   -8.4660 N.ar    1  UNL1       -0.2279
      6 C         -23.8342   51.4439   -8.4222 C.ar    1  UNL1        0.1149
      7 N         -26.2363   48.9012   -9.5927 N.pl3   1  UNL1       -0.2932
      8 C         -27.4486   48.8896  -10.4237 C.3     1  UNL1        0.0923
      9 C         -28.6824   48.5139   -9.5854 C.3     1  UNL1        0.0252
     10 C         -28.3666   47.5267   -8.4295 C.3     1  UNL1        0.0472
     11 C         -27.0716   46.7353   -8.6990 C.3     1  UNL1        0.0252
     12 C         -25.8815   47.6985   -8.8245 C.3     1  UNL1        0.0923
     13 C         -29.5557   46.5790   -8.1798 C.3     1  UNL1        0.2054
     14 O         -29.7982   46.4104   -6.7819 O.3     1  UNL1       -0.4750
     15 C         -29.7457   47.4242   -5.8082 C.ar    1  UNL1        0.1440
     16 C         -30.6063   48.5365   -5.8425 C.ar    1  UNL1        0.0374
     17 C         -30.5163   49.5270   -4.8682 C.ar    1  UNL1        0.0034
     18 C         -29.5813   49.4188   -3.8412 C.ar    1  UNL1        0.0071
     19 C         -28.7199   48.3101   -3.7655 C.ar    1  UNL1        0.0838
     20 C         -28.8008   47.3100   -4.7695 C.ar    1  UNL1        0.0618
     21 S         -27.6675   45.9100   -4.8109 S.3     1  UNL1       -0.1383
     22 H         -28.5406   45.1119   -4.0482 H       1  UNL1        0.1072
     23 C         -27.7621   48.2370   -2.6335 C.2     1  UNL1        0.3386
     24 O         -26.5618   48.5856   -2.8014 O.2     1  UNL1       -0.2451
     25 O         -28.1747   47.8273   -1.3693 O.3     1  UNL1       -0.4771
     26 H         -27.5226   47.7902   -0.5949 H       1  UNL1        0.2954
     27 C         -21.3447   53.2817   -9.0230 C.2     1  UNL1        0.2839
     28 O         -20.7122   52.1931   -8.9638 O.2     1  UNL1       -0.2665
     29 N         -22.6706   53.3121   -9.5721 N.am    1  UNL1       -0.2766
     30 H         -22.9651   54.1725  -10.0857 H       1  UNL1        0.1553
     31 C         -21.9719   56.3040   -9.9894 C.3     1  UNL1        0.0345
     32 C         -20.9311   55.8280   -9.0214 C.ar    1  UNL1        0.0202
     33 C         -20.6668   54.5192   -8.5981 C.ar    1  UNL1        0.1946
     34 O         -19.6879   54.5207   -7.7104 O.2     1  UNL1       -0.4492
     35 C         -19.2887   55.7591   -7.5527 C.ar    1  UNL1        0.1452
     36 C         -18.2746   56.2212   -6.7212 C.ar    1  UNL1        0.0375
     37 C         -18.0072   57.6014   -6.7108 C.ar    1  UNL1        0.0031
     38 C         -18.7533   58.4945   -7.5271 C.ar    1  UNL1        0.0002
     39 C         -19.7787   57.9821   -8.3577 C.ar    1  UNL1        0.0028
     40 C         -20.0164   56.6076   -8.3420 C.ar    1  UNL1        0.0337
     41 C         -18.4613   59.9504   -7.5089 C.ar    1  UNL1        0.0000
     42 C         -17.1844   60.4289   -7.8595 C.ar    1  UNL1        0.0000
     43 C         -16.9129   61.8004   -7.8426 C.ar    1  UNL1        0.0000
     44 C         -17.9090   62.7080   -7.4759 C.ar    1  UNL1        0.0000
     45 C         -19.1796   62.2459   -7.1258 C.ar    1  UNL1        0.0000
     46 C         -19.4572   60.8756   -7.1418 C.ar    1  UNL1        0.0000
@<TRIPOS>BOND
     1    31    32    1
     2    32    33   ar
     3    33    27    1
     4    27    28    2
     5    27    29   am
     6    29     1    1
     7     1     2   ar
     8     2     3   ar
     9     3     4   ar
    10     4     7    1
    11     7     8    1
    12     8     9    1
    13     9    10    1
    14    10    13    1
    15    13    14    1
    16    14    15    1
    17    15    16   ar
    18    16    17   ar
    19    17    18   ar
    20    18    19   ar
    21    19    23    1
    22    23    24    2
    23    23    25    1
    24    19    20   ar
    25    20    21    1
    26    10    11    1
    27    11    12    1
    28     4     5   ar
    29     5     6   ar
    30    33    34   ar
    31    34    35   ar
    32    35    36   ar
    33    36    37   ar
    34    37    38   ar
    35    38    41    1
    36    41    42   ar
    37    42    43   ar
    38    43    44   ar
    39    44    45   ar
    40    45    46   ar
    41    38    39   ar
    42    39    40   ar
    43    40    32   ar
    44     6     1   ar
    45    40    35   ar
    46    12     7    1
    47    46    41   ar
    48    20    15   ar
    49    29    30    1
    50    25    26    1
    51    21    22    1
@<TRIPOS>MOLECULE
*****
 46 51 0 0 0
SMALL
GASTEIGER

@<TRIPOS>ATOM
      1 C         -30.7492   54.0581  -12.1911 C.ar    1  UNL1        0.0702
      2 C         -31.5838   52.9608  -12.4364 C.ar    1  UNL1        0.0191
      3 C         -31.1814   51.6750  -12.0728 C.ar    1  UNL1        0.0356
      4 C         -29.9349   51.4886  -11.4548 C.ar    1  UNL1        0.1318
      5 N         -29.1565   52.5744  -11.1897 N.ar    1  UNL1       -0.2279
      6 C         -29.5265   53.8354  -11.5372 C.ar    1  UNL1        0.1149
      7 N         -29.4944   50.1799  -11.0450 N.pl3   1  UNL1       -0.2932
      8 C         -30.0680   48.9590  -11.6286 C.3     1  UNL1        0.0923
      9 C         -30.4789   47.9672  -10.5268 C.3     1  UNL1        0.0252
     10 C         -29.5712   48.0305   -9.2689 C.3     1  UNL1        0.0472
     11 C         -28.1910   48.6337   -9.5966 C.3     1  UNL1        0.0252
     12 C         -28.3539   50.0674  -10.1236 C.3     1  UNL1        0.0923
     13 C         -29.4305   46.6372   -8.6256 C.3     1  UNL1        0.2054
     14 O         -29.4202   46.7245   -7.1996 O.3     1  UNL1       -0.4750
     15 C         -28.2899   46.5875   -6.3737 C.ar    1  UNL1        0.1440
     16 C         -26.9923   46.8819   -6.8305 C.ar    1  UNL1        0.0374
     17 C         -25.8957   46.7218   -5.9877 C.ar    1  UNL1        0.0034
     18 C         -26.0747   46.2811   -4.6783 C.ar    1  UNL1        0.0071
     19 C         -27.3599   45.9976   -4.1835 C.ar    1  UNL1        0.0838
     20 C         -28.4751   46.1442   -5.0493 C.ar    1  UNL1        0.0618
     21 S         -30.1442   45.7035   -4.5334 S.3     1  UNL1       -0.1383
     22 H         -30.4099   47.0121   -4.0886 H       1  UNL1        0.1072
     23 C         -27.4908   45.5564   -2.7719 C.2     1  UNL1        0.3386
     24 O         -28.0168   46.3225   -1.9194 O.2     1  UNL1       -0.2451
     25 O         -27.0791   44.2877   -2.3753 O.3     1  UNL1       -0.4771
     26 H         -27.1809   43.9836   -1.4143 H       1  UNL1        0.2954
     27 C         -31.3421   55.8303  -13.9030 C.2     1  UNL1        0.2839
     28 O         -31.5718   54.9975  -14.8209 O.2     1  UNL1       -0.2665
     29 N         -31.1864   55.3805  -12.5488 N.am    1  UNL1       -0.2766
     30 H         -31.5128   56.0138  -11.7850 H       1  UNL1        0.1553
     31 C         -31.5839   57.1751  -16.8346 C.3     1  UNL1        0.0345
     32 C         -31.4177   57.8497  -15.5064 C.ar    1  UNL1        0.0202
     33 C         -31.3215   57.2653  -14.2371 C.ar    1  UNL1        0.1946
     34 O         -31.2157   58.2052  -13.3141 O.2     1  UNL1       -0.4492
     35 C         -31.2157   59.3672  -13.9204 C.ar    1  UNL1        0.1452
     36 C         -31.1140   60.6253  -13.3369 C.ar    1  UNL1        0.0375
     37 C         -31.1303   61.7482  -14.1827 C.ar    1  UNL1        0.0031
     38 C         -31.2475   61.5980  -15.5914 C.ar    1  UNL1        0.0002
     39 C         -31.3506   60.2988  -16.1438 C.ar    1  UNL1        0.0028
     40 C         -31.3314   59.2080  -15.2745 C.ar    1  UNL1        0.0337
     41 C         -31.2624   62.7912  -16.4752 C.ar    1  UNL1        0.0000
     42 C         -31.2089   64.0877  -15.9287 C.ar    1  UNL1        0.0000
     43 C         -31.2219   65.2092  -16.7637 C.ar    1  UNL1        0.0000
     44 C         -31.2891   65.0509  -18.1496 C.ar    1  UNL1        0.0000
     45 C         -31.3428   63.7702  -18.7040 C.ar    1  UNL1        0.0000
     46 C         -31.3292   62.6450  -17.8740 C.ar    1  UNL1        0.0000
@<TRIPOS>BOND
     1    31    32    1
     2    32    33   ar
     3    33    27    1
     4    27    28    2
     5    27    29   am
     6    29     1    1
     7     1     2   ar
     8     2     3   ar
     9     3     4   ar
    10     4     7    1
    11     7     8    1
    12     8     9    1
    13     9    10    1
    14    10    13    1
    15    13    14    1
    16    14    15    1
    17    15    16   ar
    18    16    17   ar
    19    17    18   ar
    20    18    19   ar
    21    19    23    1
    22    23    24    2
    23    23    25    1
    24    19    20   ar
    25    20    21    1
    26    10    11    1
    27    11    12    1
    28     4     5   ar
    29     5     6   ar
    30    33    34   ar
    31    34    35   ar
    32    35    36   ar
    33    36    37   ar
    34    37    38   ar
    35    38    41    1
    36    41    42   ar
    37    42    43   ar
    38    43    44   ar
    39    44    45   ar
    40    45    46   ar
    41    38    39   ar
    42    39    40   ar
    43    40    32   ar
    44     6     1   ar
    45    40    35   ar
    46    12     7    1
    47    46    41   ar
    48    20    15   ar
    49    29    30    1
    50    25    26    1
    51    21    22    1
@<TRIPOS>MOLECULE
*****
 46 51 0 0 0
SMALL
GASTEIGER

@<TRIPOS>ATOM
      1 C         -25.3188   50.1978   -8.1522 C.ar    1  UNL1        0.0702
      2 C         -24.0905   50.2450   -7.4817 C.ar    1  UNL1        0.0191
      3 C         -23.0230   50.9665   -8.0178 C.ar    1  UNL1        0.0356
      4 C         -23.1897   51.6491   -9.2331 C.ar    1  UNL1        0.1318
      5 N         -24.4047   51.6224   -9.8480 N.ar    1  UNL1       -0.2279
      6 C         -25.4575   50.9243   -9.3460 C.ar    1  UNL1        0.1149
      7 N         -22.1185   52.4225   -9.8066 N.pl3   1  UNL1       -0.2932
      8 C         -20.7509   52.3545   -9.2723 C.3     1  UNL1        0.0923
      9 C         -20.1827   53.7655   -9.0431 C.3     1  UNL1        0.0252
     10 C         -20.7075   54.8154  -10.0594 C.3     1  UNL1        0.0472
     11 C         -21.2127   54.1472  -11.3534 C.3     1  UNL1        0.0252
     12 C         -22.3715   53.1903  -11.0348 C.3     1  UNL1        0.0923
     13 C         -19.6258   55.8698  -10.3638 C.3     1  UNL1        0.2054
     14 O         -20.0174   57.1622   -9.8973 O.3     1  UNL1       -0.4750
     15 C         -19.4640   57.8445   -8.7988 C.ar    1  UNL1        0.1440
     16 C         -18.7831   57.1709   -7.7684 C.ar    1  UNL1        0.0374
     17 C         -18.2597   57.8788   -6.6899 C.ar    1  UNL1        0.0034
     18 C         -18.3935   59.2640   -6.6276 C.ar    1  UNL1        0.0071
     19 C         -19.0503   59.9706   -7.6506 C.ar    1  UNL1        0.0838
     20 C         -19.5990   59.2457   -8.7406 C.ar    1  UNL1        0.0618
     21 S         -20.5470   60.0560  -10.0410 S.3     1  UNL1       -0.1383
     22 H         -19.4002   60.2410  -10.8357 H       1  UNL1        0.1072
     23 C         -19.1392   61.4486   -7.5422 C.2     1  UNL1        0.3386
     24 O         -18.0946   62.1299   -7.3553 O.2     1  UNL1       -0.2451
     25 O         -20.3569   62.1069   -7.6852 O.3     1  UNL1       -0.4771
     26 H         -20.4138   63.1165   -7.6237 H       1  UNL1        0.2954
     27 C         -27.5007   50.0909   -6.8674 C.2     1  UNL1        0.2839
     28 O         -27.8086   51.2888   -7.1102 O.2     1  UNL1       -0.2665
     29 N         -26.4178   49.4706   -7.5767 N.am    1  UNL1       -0.2766
     30 H         -26.4902   48.4483   -7.7781 H       1  UNL1        0.1553
     31 C         -26.6693   49.1053   -3.9012 C.3     1  UNL1        0.0345
     32 C         -27.9619   48.8929   -4.6299 C.ar    1  UNL1        0.0202
     33 C         -28.3225   49.3279   -5.9115 C.ar    1  UNL1        0.1946
     34 O         -29.5647   48.9646   -6.1788 O.2     1  UNL1       -0.4492
     35 C         -30.0205   48.2976   -5.1466 C.ar    1  UNL1        0.1452
     36 C         -31.2779   47.7224   -4.9999 C.ar    1  UNL1        0.0375
     37 C         -31.5567   47.0428   -3.8012 C.ar    1  UNL1        0.0031
     38 C         -30.5803   46.9486   -2.7725 C.ar    1  UNL1        0.0002
     39 C         -29.3132   47.5505   -2.9623 C.ar    1  UNL1        0.0028
     40 C         -29.0718   48.2168   -4.1639 C.ar    1  UNL1        0.0337
     41 C         -30.8855   46.2271   -1.5110 C.ar    1  UNL1        0.0000
     42 C         -31.2915   44.8793   -1.5374 C.ar    1  UNL1        0.0000
     43 C         -31.5771   44.2023   -0.3477 C.ar    1  UNL1        0.0000
     44 C         -31.4621   44.8604    0.8786 C.ar    1  UNL1        0.0000
     45 C         -31.0605   46.1975    0.9182 C.ar    1  UNL1        0.0000
     46 C         -30.7727   46.8793   -0.2682 C.ar    1  UNL1        0.0000
@<TRIPOS>BOND
     1    31    32    1
     2    32    33   ar
     3    33    27    1
     4    27    28    2
     5    27    29   am
     6    29     1    1
     7     1     2   ar
     8     2     3   ar
     9     3     4   ar
    10     4     7    1
    11     7     8    1
    12     8     9    1
    13     9    10    1
    14    10    13    1
    15    13    14    1
    16    14    15    1
    17    15    16   ar
    18    16    17   ar
    19    17    18   ar
    20    18    19   ar
    21    19    23    1
    22    23    24    2
    23    23    25    1
    24    19    20   ar
    25    20    21    1
    26    10    11    1
    27    11    12    1
    28     4     5   ar
    29     5     6   ar
    30    33    34   ar
    31    34    35   ar
    32    35    36   ar
    33    36    37   ar
    34    37    38   ar
    35    38    41    1
    36    41    42   ar
    37    42    43   ar
    38    43    44   ar
    39    44    45   ar
    40    45    46   ar
    41    38    39   ar
    42    39    40   ar
    43    40    32   ar
    44     6     1   ar
    45    40    35   ar
    46    12     7    1
    47    46    41   ar
    48    20    15   ar
    49    29    30    1
    50    25    26    1
    51    21    22    1
@<TRIPOS>MOLECULE
*****
 46 51 0 0 0
SMALL
GASTEIGER

@<TRIPOS>ATOM
      1 C         -23.4731   51.2315   -8.7763 C.ar    1  UNL1        0.0702
      2 C         -22.3573   51.2937   -7.9327 C.ar    1  UNL1        0.0191
      3 C         -21.4093   52.3053   -8.0925 C.ar    1  UNL1        0.0356
      4 C         -21.5837   53.2640   -9.1030 C.ar    1  UNL1        0.1318
      5 N         -22.6965   53.2078   -9.8863 N.ar    1  UNL1       -0.2279
      6 C         -23.6314   52.2304   -9.7507 C.ar    1  UNL1        0.1149
      7 N         -20.6388   54.3357   -9.2846 N.pl3   1  UNL1       -0.2932
      8 C         -19.5458   54.5660   -8.3292 C.3     1  UNL1        0.0923
      9 C         -19.4849   56.0460   -7.9144 C.3     1  UNL1        0.0252
     10 C         -19.9262   57.0213   -9.0389 C.3     1  UNL1        0.0472
     11 C         -19.7953   56.3752  -10.4322 C.3     1  UNL1        0.0252
     12 C         -20.6894   55.1292  -10.5216 C.3     1  UNL1        0.0923
     13 C         -19.1330   58.3402   -8.9609 C.3     1  UNL1        0.2054
     14 O         -19.1601   58.8827   -7.6394 O.3     1  UNL1       -0.4750
     15 C         -18.8651   60.2125   -7.2883 C.ar    1  UNL1        0.1440
     16 C         -17.8972   60.9681   -7.9749 C.ar    1  UNL1        0.0374
     17 C         -17.6232   62.2778   -7.5902 C.ar    1  UNL1        0.0034
     18 C         -18.3153   62.8577   -6.5294 C.ar    1  UNL1        0.0071
     19 C         -19.3033   62.1375   -5.8349 C.ar    1  UNL1        0.0838
     20 C         -19.5691   60.7965   -6.2167 C.ar    1  UNL1        0.0618
     21 S         -20.7415   59.7659   -5.3169 S.3     1  UNL1       -0.1383
     22 H         -21.8020   60.1403   -6.1632 H       1  UNL1        0.1072
     23 C         -20.0257   62.8169   -4.7300 C.2     1  UNL1        0.3386
     24 O         -19.4901   62.9113   -3.5923 O.2     1  UNL1       -0.2451
     25 O         -21.2754   63.3930   -4.9369 O.3     1  UNL1       -0.4771
     26 H         -21.7614   63.8674   -4.1851 H       1  UNL1        0.2954
     27 C         -25.8277   50.4536   -8.2533 C.2     1  UNL1        0.2839
     28 O         -26.3596   51.5505   -8.5734 O.2     1  UNL1       -0.2665
     29 N         -24.4547   50.1982   -8.5852 N.am    1  UNL1       -0.2766
     30 H         -24.1822   49.2143   -8.8060 H       1  UNL1        0.1553
     31 C         -26.7348   50.2947   -5.1528 C.3     1  UNL1        0.0345
     32 C         -27.0496   49.3459   -6.2697 C.ar    1  UNL1        0.0202
     33 C         -26.6623   49.4212   -7.6137 C.ar    1  UNL1        0.1946
     34 O         -27.1717   48.4053   -8.2881 O.2     1  UNL1       -0.4492
     35 C         -27.8502   47.6632   -7.4473 C.ar    1  UNL1        0.1452
     36 C         -28.5430   46.4898   -7.7240 C.ar    1  UNL1        0.0375
     37 C         -29.2034   45.8473   -6.6621 C.ar    1  UNL1        0.0031
     38 C         -29.1618   46.3841   -5.3465 C.ar    1  UNL1        0.0002
     39 C         -28.4463   47.5822   -5.1089 C.ar    1  UNL1        0.0028
     40 C         -27.8037   48.1924   -6.1863 C.ar    1  UNL1        0.0337
     41 C         -29.8620   45.6962   -4.2323 C.ar    1  UNL1        0.0000
     42 C         -29.4773   45.9223   -2.8969 C.ar    1  UNL1        0.0000
     43 C         -30.1393   45.2739   -1.8497 C.ar    1  UNL1        0.0000
     44 C         -31.1893   44.3942   -2.1219 C.ar    1  UNL1        0.0000
     45 C         -31.5802   44.1612   -3.4423 C.ar    1  UNL1        0.0000
     46 C         -30.9225   44.8075   -4.4934 C.ar    1  UNL1        0.0000
@<TRIPOS>BOND
     1    31    32    1
     2    32    33   ar
     3    33    27    1
     4    27    28    2
     5    27    29   am
     6    29     1    1
     7     1     2   ar
     8     2     3   ar
     9     3     4   ar
    10     4     7    1
    11     7     8    1
    12     8     9    1
    13     9    10    1
    14    10    13    1
    15    13    14    1
    16    14    15    1
    17    15    16   ar
    18    16    17   ar
    19    17    18   ar
    20    18    19   ar
    21    19    23    1
    22    23    24    2
    23    23    25    1
    24    19    20   ar
    25    20    21    1
    26    10    11    1
    27    11    12    1
    28     4     5   ar
    29     5     6   ar
    30    33    34   ar
    31    34    35   ar
    32    35    36   ar
    33    36    37   ar
    34    37    38   ar
    35    38    41    1
    36    41    42   ar
    37    42    43   ar
    38    43    44   ar
    39    44    45   ar
    40    45    46   ar
    41    38    39   ar
    42    39    40   ar
    43    40    32   ar
    44     6     1   ar
    45    40    35   ar
    46    12     7    1
    47    46    41   ar
    48    20    15   ar
    49    29    30    1
    50    25    26    1
    51    21    22    1
