@<TRIPOS>MOLECULE
*****
 47 52 0 0 0
SMALL
GASTEIGER

@<TRIPOS>ATOM
      1 O           5.9702   74.4521   30.6794 O.2     1  UNL1       -0.2701
      2 C           6.3902   75.3786   29.9363 C.2     1  UNL1        0.2483
      3 N           7.2323   76.4027   30.4968 N.am    1  UNL1       -0.2945
      4 H           7.5133   76.2945   31.4983 H       1  UNL1        0.1501
      5 C           5.9473   75.4198   28.5312 C.ar    1  UNL1        0.0808
      6 C           4.9622   76.3390   28.1488 C.ar    1  UNL1        0.0080
      7 C           4.6213   76.4887   26.8027 C.ar    1  UNL1        0.0148
      8 C           5.2589   75.7170   25.8162 C.ar    1  UNL1        0.0502
      9 C           6.1966   74.7466   26.2131 C.ar    1  UNL1        0.0443
     10 C           6.5318   74.5909   27.5612 C.ar    1  UNL1        0.1457
     11 F           7.4246   73.6326   27.9177 F       1  UNL1       -0.2040
     12 N           4.9706   75.9303   24.4183 N.pl3   1  UNL1       -0.3040
     13 C           5.5553   75.0393   23.4032 C.3     1  UNL1        0.1122
     14 C           5.9147   75.8228   22.1357 C.3     1  UNL1        0.1123
     15 N           4.8357   76.7350   21.7421 N.pl3   1  UNL1       -0.3034
     16 C           3.6195   76.8520   22.5480 C.3     1  UNL1        0.1123
     17 C           3.9941   76.9616   24.0276 C.3     1  UNL1        0.1122
     18 C           4.9373   77.4417   20.5005 C.ar    1  UNL1        0.0595
     19 C           3.8811   77.3784   19.5824 C.ar    1  UNL1        0.0154
     20 C           3.9660   78.0580   18.3658 C.ar    1  UNL1        0.0022
     21 C           5.1046   78.8066   18.0604 C.ar    1  UNL1        0.0123
     22 C           6.1643   78.8828   18.9716 C.ar    1  UNL1        0.0694
     23 CL          7.5769   79.8422   18.5506 Cl      1  UNL1       -0.0813
     24 C           6.0842   78.2005   20.1995 C.ar    1  UNL1        0.0815
     25 CL          7.3998   78.3084   21.3683 Cl      1  UNL1       -0.0801
     26 C           7.6768   77.5924   29.7561 C.3     1  UNL1        0.1535
     27 C           7.8992   78.7488   30.7007 C.2     1  UNL1        0.2443
     28 O           7.0961   78.9351   31.6546 O.2     1  UNL1       -0.2730
     29 N           9.0582   79.5849   30.5411 N.am    1  UNL1       -0.2825
     30 H           9.8358   79.2177   29.9464 H       1  UNL1        0.1549
     31 C           9.2527   80.8646   31.1712 C.ar    1  UNL1        0.0535
     32 C           8.8703   81.1078   32.5027 C.ar    1  UNL1        0.0353
     33 C           9.0383   82.3834   33.0472 C.ar    1  UNL1        0.1002
     34 N           9.5622   83.3845   32.2929 N.ar    1  UNL1       -0.2422
     35 C           9.9291   83.1835   31.0004 C.ar    1  UNL1        0.1002
     36 C           9.7716   81.9255   30.4150 C.ar    1  UNL1        0.0353
     37 C           8.9574   77.2873   28.9561 C.3     1  UNL1        0.0569
     38 C           8.7464   77.4977   27.4831 C.ar    1  UNL1       -0.0017
     39 C           7.8556   78.3895   26.8930 C.ar    1  UNL1        0.0681
     40 N           7.8478   78.2297   25.5499 N.ar    1  UNL1       -0.3523
     41 C           8.7151   77.2362   25.2888 C.ar    1  UNL1        0.0563
     42 C           9.0243   76.6899   24.0439 C.ar    1  UNL1        0.0170
     43 C           9.9433   75.6254   24.0030 C.ar    1  UNL1        0.0015
     44 C          10.5227   75.1336   25.1940 C.ar    1  UNL1        0.0001
     45 C          10.1894   75.7027   26.4366 C.ar    1  UNL1        0.0012
     46 C           9.2805   76.7609   26.4442 C.ar    1  UNL1        0.0131
     47 H           7.2663   78.7571   24.8613 H       1  UNL1        0.1660
@<TRIPOS>BOND
     1     1     2    2
     2     2     3   am
     3     3    26    1
     4    26    37    1
     5    37    38    1
     6    38    39   ar
     7    39    40   ar
     8    40    41   ar
     9    41    42   ar
    10    42    43   ar
    11    43    44   ar
    12    44    45   ar
    13    45    46   ar
    14    26    27    1
    15    27    28    2
    16    27    29   am
    17    29    31    1
    18    31    32   ar
    19    32    33   ar
    20    33    34   ar
    21    34    35   ar
    22    35    36   ar
    23     2     5    1
    24     5     6   ar
    25     6     7   ar
    26     7     8   ar
    27     8    12    1
    28    12    13    1
    29    13    14    1
    30    14    15    1
    31    15    18    1
    32    18    19   ar
    33    19    20   ar
    34    20    21   ar
    35    21    22   ar
    36    22    23    1
    37    22    24   ar
    38    24    25    1
    39    15    16    1
    40    16    17    1
    41     8     9   ar
    42     9    10   ar
    43    10    11    1
    44    46    38   ar
    45    36    31   ar
    46    10     5   ar
    47    46    41   ar
    48    17    12    1
    49    24    18   ar
    50     3     4    1
    51    40    47    1
    52    29    30    1
@<TRIPOS>MOLECULE
*****
 47 52 0 0 0
SMALL
GASTEIGER

@<TRIPOS>ATOM
      1 O           5.8210   75.2629   30.8144 O.2     1  UNL1       -0.2701
      2 C           6.4227   75.9350   29.9350 C.2     1  UNL1        0.2483
      3 N           7.5023   76.8019   30.3287 N.am    1  UNL1       -0.2945
      4 H           7.7843   76.7861   31.3356 H       1  UNL1        0.1501
      5 C           5.9538   75.8626   28.5397 C.ar    1  UNL1        0.0808
      6 C           4.9870   76.7720   28.0925 C.ar    1  UNL1        0.0080
      7 C           4.6242   76.8099   26.7442 C.ar    1  UNL1        0.0148
      8 C           5.2210   75.9345   25.8210 C.ar    1  UNL1        0.0502
      9 C           6.1394   74.9768   26.2880 C.ar    1  UNL1        0.0443
     10 C           6.4964   74.9332   27.6388 C.ar    1  UNL1        0.1457
     11 F           7.3693   73.9852   28.0653 F       1  UNL1       -0.2040
     12 N           4.9115   76.0295   24.4146 N.pl3   1  UNL1       -0.3040
     13 C           5.5261   75.0909   23.4619 C.3     1  UNL1        0.1122
     14 C           5.8396   75.7919   22.1352 C.3     1  UNL1        0.1123
     15 N           4.7182   76.6243   21.6876 N.pl3   1  UNL1       -0.3034
     16 C           3.5050   76.7489   22.4969 C.3     1  UNL1        0.1123
     17 C           3.8873   76.9854   23.9596 C.3     1  UNL1        0.1122
     18 C           4.7778   77.2396   20.3956 C.ar    1  UNL1        0.0595
     19 C           3.7826   76.9577   19.4507 C.ar    1  UNL1        0.0154
     20 C           3.8283   77.5457   18.1854 C.ar    1  UNL1        0.0022
     21 C           4.8663   78.4205   17.8573 C.ar    1  UNL1        0.0123
     22 C           5.8634   78.7151   18.7943 C.ar    1  UNL1        0.0694
     23 CL          7.1488   79.8273   18.3428 Cl      1  UNL1       -0.0813
     24 C           5.8223   78.1259   20.0713 C.ar    1  UNL1        0.0815
     25 CL          7.0568   78.5078   21.2709 Cl      1  UNL1       -0.0801
     26 C           8.1903   77.7207   29.4099 C.3     1  UNL1        0.1535
     27 C           8.0919   79.1407   29.9129 C.2     1  UNL1        0.2443
     28 O           7.2324   79.9177   29.4159 O.2     1  UNL1       -0.2730
     29 N           8.9342   79.5716   30.9958 N.am    1  UNL1       -0.2825
     30 H           9.3989   78.8289   31.5663 H       1  UNL1        0.1549
     31 C           9.1512   80.9403   31.3857 C.ar    1  UNL1        0.0535
     32 C           9.7651   81.8727   30.5301 C.ar    1  UNL1        0.0353
     33 C           9.9945   83.1754   30.9796 C.ar    1  UNL1        0.1002
     34 N           9.6322   83.5377   32.2378 N.ar    1  UNL1       -0.2422
     35 C           9.0490   82.6562   33.0913 C.ar    1  UNL1        0.1002
     36 C           8.8081   81.3422   32.6847 C.ar    1  UNL1        0.0353
     37 C           9.6629   77.3067   29.2290 C.3     1  UNL1        0.0569
     38 C           9.8549   76.4976   27.9772 C.ar    1  UNL1       -0.0017
     39 C          10.6673   75.3769   27.8318 C.ar    1  UNL1        0.0681
     40 N          10.6881   74.9731   26.5411 N.ar    1  UNL1       -0.3523
     41 C           9.9074   75.8369   25.8689 C.ar    1  UNL1        0.0563
     42 C           9.6448   75.8492   24.4997 C.ar    1  UNL1        0.0170
     43 C           8.8185   76.8714   23.9979 C.ar    1  UNL1        0.0015
     44 C           8.2831   77.8497   24.8651 C.ar    1  UNL1        0.0001
     45 C           8.5677   77.8139   26.2423 C.ar    1  UNL1        0.0012
     46 C           9.3844   76.7845   26.7109 C.ar    1  UNL1        0.0131
     47 H          11.2229   74.1675   26.1469 H       1  UNL1        0.1660
@<TRIPOS>BOND
     1     1     2    2
     2     2     3   am
     3     3    26    1
     4    26    37    1
     5    37    38    1
     6    38    39   ar
     7    39    40   ar
     8    40    41   ar
     9    41    42   ar
    10    42    43   ar
    11    43    44   ar
    12    44    45   ar
    13    45    46   ar
    14    26    27    1
    15    27    28    2
    16    27    29   am
    17    29    31    1
    18    31    32   ar
    19    32    33   ar
    20    33    34   ar
    21    34    35   ar
    22    35    36   ar
    23     2     5    1
    24     5     6   ar
    25     6     7   ar
    26     7     8   ar
    27     8    12    1
    28    12    13    1
    29    13    14    1
    30    14    15    1
    31    15    18    1
    32    18    19   ar
    33    19    20   ar
    34    20    21   ar
    35    21    22   ar
    36    22    23    1
    37    22    24   ar
    38    24    25    1
    39    15    16    1
    40    16    17    1
    41     8     9   ar
    42     9    10   ar
    43    10    11    1
    44    46    38   ar
    45    36    31   ar
    46    10     5   ar
    47    46    41   ar
    48    17    12    1
    49    24    18   ar
    50     3     4    1
    51    40    47    1
    52    29    30    1
@<TRIPOS>MOLECULE
*****
 47 52 0 0 0
SMALL
GASTEIGER

@<TRIPOS>ATOM
      1 O           4.6862   72.6851   20.6474 O.2     1  UNL1       -0.2701
      2 C           4.8814   73.7968   21.2069 C.2     1  UNL1        0.2483
      3 N           3.7968   74.7389   21.2972 N.am    1  UNL1       -0.2945
      4 H           2.8630   74.4271   20.9443 H       1  UNL1        0.1501
      5 C           6.2354   74.1225   21.6892 C.ar    1  UNL1        0.0808
      6 C           7.1395   74.7514   20.8238 C.ar    1  UNL1        0.0080
      7 C           8.3794   75.1888   21.2950 C.ar    1  UNL1        0.0148
      8 C           8.7368   75.0003   22.6410 C.ar    1  UNL1        0.0502
      9 C           7.8541   74.3060   23.4879 C.ar    1  UNL1        0.0443
     10 C           6.6166   73.8608   23.0143 C.ar    1  UNL1        0.1457
     11 F           5.7933   73.1753   23.8480 F       1  UNL1       -0.2040
     12 N           9.9801   75.5273   23.1503 N.pl3   1  UNL1       -0.3040
     13 C          10.2958   75.4101   24.5830 C.3     1  UNL1        0.1122
     14 C          11.0419   76.6543   25.0779 C.3     1  UNL1        0.1123
     15 N          12.1041   77.0511   24.1475 N.pl3   1  UNL1       -0.3034
     16 C          12.3220   76.3182   22.8994 C.3     1  UNL1        0.1123
     17 C          10.9784   76.0675   22.2115 C.3     1  UNL1        0.1122
     18 C          12.9985   78.1065   24.5184 C.ar    1  UNL1        0.0595
     19 C          14.3293   77.8037   24.8345 C.ar    1  UNL1        0.0154
     20 C          15.2129   78.8202   25.2020 C.ar    1  UNL1        0.0022
     21 C          14.7735   80.1447   25.2535 C.ar    1  UNL1        0.0123
     22 C          13.4479   80.4613   24.9342 C.ar    1  UNL1        0.0694
     23 CL         12.9375   82.1428   25.0049 Cl      1  UNL1       -0.0813
     24 C          12.5530   79.4412   24.5625 C.ar    1  UNL1        0.0815
     25 CL         10.8874   79.8277   24.1324 Cl      1  UNL1       -0.0801
     26 C           3.9425   76.1070   21.8156 C.3     1  UNL1        0.1535
     27 C           4.5971   76.9944   20.7845 C.2     1  UNL1        0.2443
     28 O           4.1068   77.0658   19.6252 O.2     1  UNL1       -0.2730
     29 N           5.7320   77.7964   21.1538 N.am    1  UNL1       -0.2825
     30 H           5.9082   77.9362   22.1748 H       1  UNL1        0.1549
     31 C           6.6163   78.4595   20.2313 C.ar    1  UNL1        0.0535
     32 C           6.1375   79.1601   19.1097 C.ar    1  UNL1        0.0353
     33 C           7.0444   79.7431   18.2212 C.ar    1  UNL1        0.1002
     34 N           8.3810   79.6287   18.4361 N.ar    1  UNL1       -0.2422
     35 C           8.8736   78.9477   19.5034 C.ar    1  UNL1        0.1002
     36 C           8.0021   78.3438   20.4121 C.ar    1  UNL1        0.0353
     37 C           2.5749   76.6770   22.2368 C.3     1  UNL1        0.0569
     38 C           2.5763   77.0944   23.6805 C.ar    1  UNL1       -0.0017
     39 C           1.7106   78.0041   24.2805 C.ar    1  UNL1        0.0681
     40 N           2.0742   78.2256   25.5644 N.ar    1  UNL1       -0.3523
     41 C           3.1691   77.4746   25.7754 C.ar    1  UNL1        0.0563
     42 C           3.9260   77.3937   26.9434 C.ar    1  UNL1        0.0170
     43 C           5.0614   76.5629   26.9348 C.ar    1  UNL1        0.0015
     44 C           5.4132   75.8433   25.7711 C.ar    1  UNL1        0.0001
     45 C           4.6321   75.9467   24.6057 C.ar    1  UNL1        0.0012
     46 C           3.5088   76.7730   24.6472 C.ar    1  UNL1        0.0131
     47 H           1.6097   78.8690   26.2432 H       1  UNL1        0.1660
@<TRIPOS>BOND
     1     1     2    2
     2     2     3   am
     3     3    26    1
     4    26    37    1
     5    37    38    1
     6    38    39   ar
     7    39    40   ar
     8    40    41   ar
     9    41    42   ar
    10    42    43   ar
    11    43    44   ar
    12    44    45   ar
    13    45    46   ar
    14    26    27    1
    15    27    28    2
    16    27    29   am
    17    29    31    1
    18    31    32   ar
    19    32    33   ar
    20    33    34   ar
    21    34    35   ar
    22    35    36   ar
    23     2     5    1
    24     5     6   ar
    25     6     7   ar
    26     7     8   ar
    27     8    12    1
    28    12    13    1
    29    13    14    1
    30    14    15    1
    31    15    18    1
    32    18    19   ar
    33    19    20   ar
    34    20    21   ar
    35    21    22   ar
    36    22    23    1
    37    22    24   ar
    38    24    25    1
    39    15    16    1
    40    16    17    1
    41     8     9   ar
    42     9    10   ar
    43    10    11    1
    44    46    38   ar
    45    36    31   ar
    46    10     5   ar
    47    46    41   ar
    48    17    12    1
    49    24    18   ar
    50     3     4    1
    51    40    47    1
    52    29    30    1
@<TRIPOS>MOLECULE
*****
 47 52 0 0 0
SMALL
GASTEIGER

@<TRIPOS>ATOM
      1 O           6.4598   75.1351   30.4630 O.2     1  UNL1       -0.2701
      2 C           7.0254   75.9642   29.7015 C.2     1  UNL1        0.2483
      3 N           7.9589   76.9078   30.2586 N.am    1  UNL1       -0.2945
      4 H           8.1763   76.8192   31.2778 H       1  UNL1        0.1501
      5 C           6.6587   75.9846   28.2742 C.ar    1  UNL1        0.0808
      6 C           7.0399   74.9165   27.4524 C.ar    1  UNL1        0.0080
      7 C           6.5923   74.8483   26.1311 C.ar    1  UNL1        0.0148
      8 C           5.7580   75.8514   25.6088 C.ar    1  UNL1        0.0502
      9 C           5.4361   76.9567   26.4170 C.ar    1  UNL1        0.0443
     10 C           5.8908   77.0293   27.7368 C.ar    1  UNL1        0.1457
     11 F           5.5821   78.1174   28.4874 F       1  UNL1       -0.2040
     12 N           5.2247   75.7395   24.2725 N.pl3   1  UNL1       -0.3040
     13 C           5.7800   74.7446   23.3407 C.3     1  UNL1        0.1122
     14 C           5.8062   75.2959   21.9106 C.3     1  UNL1        0.1123
     15 N           4.5463   75.9636   21.5674 N.pl3   1  UNL1       -0.3034
     16 C           3.4678   76.0837   22.5497 C.3     1  UNL1        0.1123
     17 C           4.0459   76.5366   23.8921 C.3     1  UNL1        0.1122
     18 C           4.3377   76.4124   20.2234 C.ar    1  UNL1        0.0595
     19 C           3.5328   75.6569   19.3609 C.ar    1  UNL1        0.0154
     20 C           3.3229   76.0782   18.0466 C.ar    1  UNL1        0.0022
     21 C           3.9132   77.2573   17.5869 C.ar    1  UNL1        0.0123
     22 C           4.7147   78.0244   18.4403 C.ar    1  UNL1        0.0694
     23 CL          5.4335   79.5063   17.8235 Cl      1  UNL1       -0.0813
     24 C           4.9294   77.6052   19.7662 C.ar    1  UNL1        0.0815
     25 CL          5.9151   78.5745   20.8604 Cl      1  UNL1       -0.0801
     26 C           8.5809   77.9950   29.4887 C.3     1  UNL1        0.1535
     27 C           9.1404   79.0454   30.4175 C.2     1  UNL1        0.2443
     28 O           9.8553   78.6934   31.3946 O.2     1  UNL1       -0.2730
     29 N           8.9061   80.4369   30.1411 N.am    1  UNL1       -0.2825
     30 H           8.5807   80.6863   29.1794 H       1  UNL1        0.1549
     31 C           9.1279   81.5167   31.0670 C.ar    1  UNL1        0.0535
     32 C           9.8086   82.6906   30.6969 C.ar    1  UNL1        0.0353
     33 C          10.0380   83.6854   31.6506 C.ar    1  UNL1        0.1002
     34 N           9.6115   83.5171   32.9295 N.ar    1  UNL1       -0.2422
     35 C           8.9627   82.3892   33.3199 C.ar    1  UNL1        0.1002
     36 C           8.7191   81.3671   32.4001 C.ar    1  UNL1        0.0353
     37 C           9.6813   77.4440   28.5621 C.3     1  UNL1        0.0569
     38 C           9.4014   77.7737   27.1229 C.ar    1  UNL1       -0.0017
     39 C           8.7677   78.9161   26.6429 C.ar    1  UNL1        0.0681
     40 N           8.5817   78.8265   25.3062 N.ar    1  UNL1       -0.3523
     41 C           9.0798   77.6324   24.9409 C.ar    1  UNL1        0.0563
     42 C           9.0876   77.0753   23.6629 C.ar    1  UNL1        0.0170
     43 C           9.6348   75.7882   23.5101 C.ar    1  UNL1        0.0015
     44 C          10.1519   75.0930   24.6260 C.ar    1  UNL1        0.0001
     45 C          10.1279   75.6790   25.9046 C.ar    1  UNL1        0.0012
     46 C           9.5852   76.9587   26.0231 C.ar    1  UNL1        0.0131
     47 H           8.1221   79.5337   24.6905 H       1  UNL1        0.1660
@<TRIPOS>BOND
     1     1     2    2
     2     2     3   am
     3     3    26    1
     4    26    37    1
     5    37    38    1
     6    38    39   ar
     7    39    40   ar
     8    40    41   ar
     9    41    42   ar
    10    42    43   ar
    11    43    44   ar
    12    44    45   ar
    13    45    46   ar
    14    26    27    1
    15    27    28    2
    16    27    29   am
    17    29    31    1
    18    31    32   ar
    19    32    33   ar
    20    33    34   ar
    21    34    35   ar
    22    35    36   ar
    23     2     5    1
    24     5     6   ar
    25     6     7   ar
    26     7     8   ar
    27     8    12    1
    28    12    13    1
    29    13    14    1
    30    14    15    1
    31    15    18    1
    32    18    19   ar
    33    19    20   ar
    34    20    21   ar
    35    21    22   ar
    36    22    23    1
    37    22    24   ar
    38    24    25    1
    39    15    16    1
    40    16    17    1
    41     8     9   ar
    42     9    10   ar
    43    10    11    1
    44    46    38   ar
    45    36    31   ar
    46    10     5   ar
    47    46    41   ar
    48    17    12    1
    49    24    18   ar
    50     3     4    1
    51    40    47    1
    52    29    30    1
@<TRIPOS>MOLECULE
*****
 47 52 0 0 0
SMALL
GASTEIGER

@<TRIPOS>ATOM
      1 O           6.2857   75.3811   30.7987 O.2     1  UNL1       -0.2701
      2 C           6.8154   76.0795   29.8939 C.2     1  UNL1        0.2483
      3 N           7.9036   76.9595   30.2310 N.am    1  UNL1       -0.2945
      4 H           8.2523   76.9316   31.2165 H       1  UNL1        0.1501
      5 C           6.2557   76.0226   28.5317 C.ar    1  UNL1        0.0808
      6 C           5.5833   77.1391   28.0188 C.ar    1  UNL1        0.0080
      7 C           5.1610   77.1583   26.6876 C.ar    1  UNL1        0.0148
      8 C           5.4016   76.0574   25.8479 C.ar    1  UNL1        0.0502
      9 C           6.0146   74.9121   26.3875 C.ar    1  UNL1        0.0443
     10 C           6.4298   74.8895   27.7221 C.ar    1  UNL1        0.1457
     11 F           6.9999   73.7636   28.2219 F       1  UNL1       -0.2040
     12 N           5.0435   76.1086   24.4508 N.pl3   1  UNL1       -0.3040
     13 C           5.6373   75.1505   23.5045 C.3     1  UNL1        0.1122
     14 C           5.8968   75.8169   22.1486 C.3     1  UNL1        0.1123
     15 N           4.7504   76.6231   21.7164 N.pl3   1  UNL1       -0.3034
     16 C           3.5639   76.7566   22.5629 C.3     1  UNL1        0.1123
     17 C           3.9925   77.0391   24.0044 C.3     1  UNL1        0.1122
     18 C           4.7585   77.2019   20.4063 C.ar    1  UNL1        0.0595
     19 C           3.7585   76.8499   19.4905 C.ar    1  UNL1        0.0154
     20 C           3.7544   77.4018   18.2081 C.ar    1  UNL1        0.0022
     21 C           4.7470   78.3100   17.8339 C.ar    1  UNL1        0.0123
     22 C           5.7483   78.6745   18.7414 C.ar    1  UNL1        0.0694
     23 CL          6.9754   79.8268   18.2320 Cl      1  UNL1       -0.0813
     24 C           5.7573   78.1221   20.0354 C.ar    1  UNL1        0.0815
     25 CL          6.9969   78.5916   21.1980 Cl      1  UNL1       -0.0801
     26 C           8.5124   77.9069   29.2857 C.3     1  UNL1        0.1535
     27 C           9.2035   79.0236   30.0303 C.2     1  UNL1        0.2443
     28 O          10.3644   78.8405   30.4868 O.2     1  UNL1       -0.2730
     29 N           8.5575   80.3023   30.1544 N.am    1  UNL1       -0.2825
     30 H           7.7549   80.4979   29.5137 H       1  UNL1        0.1549
     31 C           8.9565   81.3506   31.0568 C.ar    1  UNL1        0.0535
     32 C           8.6301   81.3237   32.4246 C.ar    1  UNL1        0.0353
     33 C           9.0014   82.3926   33.2440 C.ar    1  UNL1        0.1002
     34 N           9.6685   83.4545   32.7214 N.ar    1  UNL1       -0.2422
     35 C           9.9866   83.5148   31.4020 C.ar    1  UNL1        0.1002
     36 C           9.6279   82.4710   30.5465 C.ar    1  UNL1        0.0353
     37 C           9.4987   77.1828   28.3500 C.3     1  UNL1        0.0569
     38 C           9.2844   77.5781   26.9161 C.ar    1  UNL1       -0.0017
     39 C           8.8005   76.7642   25.8960 C.ar    1  UNL1        0.0681
     40 N           8.8474   77.4144   24.7109 N.ar    1  UNL1       -0.3523
     41 C           9.3689   78.6257   24.9719 C.ar    1  UNL1        0.0563
     42 C           9.6423   79.6427   24.0583 C.ar    1  UNL1        0.0170
     43 C          10.2234   80.8270   24.5473 C.ar    1  UNL1        0.0015
     44 C          10.5190   80.9650   25.9219 C.ar    1  UNL1        0.0001
     45 C          10.2348   79.9205   26.8203 C.ar    1  UNL1        0.0012
     46 C           9.6527   78.7614   26.3066 C.ar    1  UNL1        0.0131
     47 H           8.5583   77.0389   23.7803 H       1  UNL1        0.1660
@<TRIPOS>BOND
     1     1     2    2
     2     2     3   am
     3     3    26    1
     4    26    37    1
     5    37    38    1
     6    38    39   ar
     7    39    40   ar
     8    40    41   ar
     9    41    42   ar
    10    42    43   ar
    11    43    44   ar
    12    44    45   ar
    13    45    46   ar
    14    26    27    1
    15    27    28    2
    16    27    29   am
    17    29    31    1
    18    31    32   ar
    19    32    33   ar
    20    33    34   ar
    21    34    35   ar
    22    35    36   ar
    23     2     5    1
    24     5     6   ar
    25     6     7   ar
    26     7     8   ar
    27     8    12    1
    28    12    13    1
    29    13    14    1
    30    14    15    1
    31    15    18    1
    32    18    19   ar
    33    19    20   ar
    34    20    21   ar
    35    21    22   ar
    36    22    23    1
    37    22    24   ar
    38    24    25    1
    39    15    16    1
    40    16    17    1
    41     8     9   ar
    42     9    10   ar
    43    10    11    1
    44    46    38   ar
    45    36    31   ar
    46    10     5   ar
    47    46    41   ar
    48    17    12    1
    49    24    18   ar
    50     3     4    1
    51    40    47    1
    52    29    30    1
@<TRIPOS>MOLECULE
*****
 47 52 0 0 0
SMALL
GASTEIGER

@<TRIPOS>ATOM
      1 O          10.7370   74.9334   28.6763 O.2     1  UNL1       -0.2701
      2 C          10.1999   75.8844   28.0486 C.2     1  UNL1        0.2483
      3 N          10.4971   77.2389   28.4348 N.am    1  UNL1       -0.2945
      4 H          11.2065   77.3749   29.1911 H       1  UNL1        0.1501
      5 C           9.2299   75.5756   26.9828 C.ar    1  UNL1        0.0808
      6 C           7.8663   75.8005   27.2096 C.ar    1  UNL1        0.0080
      7 C           6.9431   75.6418   26.1735 C.ar    1  UNL1        0.0148
      8 C           7.3698   75.2512   24.8928 C.ar    1  UNL1        0.0502
      9 C           8.7306   74.9590   24.6894 C.ar    1  UNL1        0.0443
     10 C           9.6535   75.1097   25.7285 C.ar    1  UNL1        0.1457
     11 F          10.9570   74.8008   25.5097 F       1  UNL1       -0.2040
     12 N           6.4306   75.1701   23.8000 N.pl3   1  UNL1       -0.3040
     13 C           6.5629   74.1028   22.7952 C.3     1  UNL1        0.1122
     14 C           6.1848   74.6191   21.4023 C.3     1  UNL1        0.1123
     15 N           4.9507   75.4109   21.4379 N.pl3   1  UNL1       -0.3034
     16 C           4.2578   75.6657   22.7018 C.3     1  UNL1        0.1123
     17 C           5.2736   76.0811   23.7680 C.3     1  UNL1        0.1122
     18 C           4.3687   75.8523   20.2059 C.ar    1  UNL1        0.0595
     19 C           3.3888   75.0666   19.5855 C.ar    1  UNL1        0.0154
     20 C           2.8146   75.4804   18.3821 C.ar    1  UNL1        0.0022
     21 C           3.2136   76.6819   17.7929 C.ar    1  UNL1        0.0123
     22 C           4.1874   77.4790   18.4057 C.ar    1  UNL1        0.0694
     23 CL          4.6562   78.9882   17.6338 Cl      1  UNL1       -0.0813
     24 C           4.7693   77.0675   19.6189 C.ar    1  UNL1        0.0815
     25 CL          5.9781   78.0736   20.4158 Cl      1  UNL1       -0.0801
     26 C           9.8361   78.4182   27.8567 C.3     1  UNL1        0.1535
     27 C           9.2845   79.3018   28.9495 C.2     1  UNL1        0.2443
     28 O           8.0379   79.4619   29.0490 O.2     1  UNL1       -0.2730
     29 N          10.1811   79.8981   29.9025 N.am    1  UNL1       -0.2825
     30 H          11.1459   79.5007   29.9666 H       1  UNL1        0.1549
     31 C           9.8423   80.9660   30.8066 C.ar    1  UNL1        0.0535
     32 C           9.1781   80.7321   32.0241 C.ar    1  UNL1        0.0353
     33 C           8.8308   81.8120   32.8395 C.ar    1  UNL1        0.1002
     34 N           9.1274   83.0811   32.4558 N.ar    1  UNL1       -0.2422
     35 C           9.7569   83.3393   31.2799 C.ar    1  UNL1        0.1002
     36 C          10.1155   82.2895   30.4318 C.ar    1  UNL1        0.0353
     37 C          10.8124   79.2036   26.9607 C.3     1  UNL1        0.0569
     38 C          11.1726   78.4237   25.7276 C.ar    1  UNL1       -0.0017
     39 C          12.4168   77.8769   25.4275 C.ar    1  UNL1        0.0681
     40 N          12.4107   77.3437   24.1845 N.ar    1  UNL1       -0.3523
     41 C          11.1785   77.5613   23.6928 C.ar    1  UNL1        0.0563
     42 C          10.7007   77.2196   22.4284 C.ar    1  UNL1        0.0170
     43 C           9.3774   77.5740   22.1077 C.ar    1  UNL1        0.0015
     44 C           8.5721   78.2581   23.0454 C.ar    1  UNL1        0.0001
     45 C           9.0822   78.5927   24.3130 C.ar    1  UNL1        0.0012
     46 C          10.3952   78.2221   24.6041 C.ar    1  UNL1        0.0131
     47 H          13.2106   76.8793   23.6998 H       1  UNL1        0.1660
@<TRIPOS>BOND
     1     1     2    2
     2     2     3   am
     3     3    26    1
     4    26    37    1
     5    37    38    1
     6    38    39   ar
     7    39    40   ar
     8    40    41   ar
     9    41    42   ar
    10    42    43   ar
    11    43    44   ar
    12    44    45   ar
    13    45    46   ar
    14    26    27    1
    15    27    28    2
    16    27    29   am
    17    29    31    1
    18    31    32   ar
    19    32    33   ar
    20    33    34   ar
    21    34    35   ar
    22    35    36   ar
    23     2     5    1
    24     5     6   ar
    25     6     7   ar
    26     7     8   ar
    27     8    12    1
    28    12    13    1
    29    13    14    1
    30    14    15    1
    31    15    18    1
    32    18    19   ar
    33    19    20   ar
    34    20    21   ar
    35    21    22   ar
    36    22    23    1
    37    22    24   ar
    38    24    25    1
    39    15    16    1
    40    16    17    1
    41     8     9   ar
    42     9    10   ar
    43    10    11    1
    44    46    38   ar
    45    36    31   ar
    46    10     5   ar
    47    46    41   ar
    48    17    12    1
    49    24    18   ar
    50     3     4    1
    51    40    47    1
    52    29    30    1
@<TRIPOS>MOLECULE
*****
 47 52 0 0 0
SMALL
GASTEIGER

@<TRIPOS>ATOM
      1 O           6.5680   73.2917   19.3292 O.2     1  UNL1       -0.2701
      2 C           5.7674   74.0399   19.9507 C.2     1  UNL1        0.2483
      3 N           4.4576   74.2777   19.4030 N.am    1  UNL1       -0.2945
      4 H           4.2034   73.7590   18.5311 H       1  UNL1        0.1501
      5 C           6.2254   74.7027   21.1848 C.ar    1  UNL1        0.0808
      6 C           6.3603   73.9504   22.3584 C.ar    1  UNL1        0.0080
      7 C           6.9171   74.5238   23.5039 C.ar    1  UNL1        0.0148
      8 C           7.3450   75.8623   23.4946 C.ar    1  UNL1        0.0502
      9 C           7.1426   76.6326   22.3352 C.ar    1  UNL1        0.0443
     10 C           6.5777   76.0613   21.1913 C.ar    1  UNL1        0.1457
     11 F           6.3750   76.8335   20.0935 F       1  UNL1       -0.2040
     12 N           7.9987   76.4312   24.6486 N.pl3   1  UNL1       -0.3040
     13 C           8.9368   75.6166   25.4377 C.3     1  UNL1        0.1122
     14 C           8.8215   75.9487   26.9297 C.3     1  UNL1        0.1123
     15 N           8.7746   77.3968   27.1573 N.pl3   1  UNL1       -0.3034
     16 C           8.7928   78.3348   26.0339 C.3     1  UNL1        0.1123
     17 C           7.8170   77.8605   24.9549 C.3     1  UNL1        0.1122
     18 C           8.8125   77.8939   28.5000 C.ar    1  UNL1        0.0595
     19 C           9.9433   78.5903   28.9460 C.ar    1  UNL1        0.0154
     20 C           9.9979   79.0778   30.2531 C.ar    1  UNL1        0.0022
     21 C           8.9230   78.8749   31.1212 C.ar    1  UNL1        0.0123
     22 C           7.7850   78.1859   30.6860 C.ar    1  UNL1        0.0694
     23 CL          6.4508   77.9584   31.8091 Cl      1  UNL1       -0.0813
     24 C           7.7239   77.6929   29.3697 C.ar    1  UNL1        0.0815
     25 CL          6.2865   76.8460   28.7993 Cl      1  UNL1       -0.0801
     26 C           3.4910   75.2258   19.9761 C.3     1  UNL1        0.1535
     27 C           2.1912   75.1812   19.2096 C.2     1  UNL1        0.2443
     28 O           1.9868   76.0127   18.2842 O.2     1  UNL1       -0.2730
     29 N           1.2294   74.1523   19.4996 N.am    1  UNL1       -0.2825
     30 H           1.5630   73.3239   20.0432 H       1  UNL1        0.1549
     31 C          -0.1420   74.1496   19.0617 C.ar    1  UNL1        0.0535
     32 C          -1.0413   75.1717   19.4151 C.ar    1  UNL1        0.0353
     33 C          -2.3735   75.0922   19.0023 C.ar    1  UNL1        0.1002
     34 N          -2.7994   74.0308   18.2689 N.ar    1  UNL1       -0.2422
     35 C          -1.9575   73.0222   17.9230 C.ar    1  UNL1        0.1002
     36 C          -0.6195   73.0588   18.3211 C.ar    1  UNL1        0.0353
     37 C           3.2550   74.9258   21.4684 C.3     1  UNL1        0.0569
     38 C           2.6865   76.1188   22.1839 C.ar    1  UNL1       -0.0017
     39 C           1.8509   77.0900   21.6402 C.ar    1  UNL1        0.0681
     40 N           1.6285   78.0776   22.5373 N.ar    1  UNL1       -0.3523
     41 C           2.3271   77.7450   23.6368 C.ar    1  UNL1        0.0563
     42 C           2.4361   78.4729   24.8209 C.ar    1  UNL1        0.0170
     43 C           3.2531   77.9510   25.8405 C.ar    1  UNL1        0.0015
     44 C           3.9385   76.7297   25.6543 C.ar    1  UNL1        0.0001
     45 C           3.8120   76.0183   24.4473 C.ar    1  UNL1        0.0012
     46 C           2.9896   76.5578   23.4578 C.ar    1  UNL1        0.0131
     47 H           1.0501   78.9348   22.3925 H       1  UNL1        0.1660
@<TRIPOS>BOND
     1     1     2    2
     2     2     3   am
     3     3    26    1
     4    26    37    1
     5    37    38    1
     6    38    39   ar
     7    39    40   ar
     8    40    41   ar
     9    41    42   ar
    10    42    43   ar
    11    43    44   ar
    12    44    45   ar
    13    45    46   ar
    14    26    27    1
    15    27    28    2
    16    27    29   am
    17    29    31    1
    18    31    32   ar
    19    32    33   ar
    20    33    34   ar
    21    34    35   ar
    22    35    36   ar
    23     2     5    1
    24     5     6   ar
    25     6     7   ar
    26     7     8   ar
    27     8    12    1
    28    12    13    1
    29    13    14    1
    30    14    15    1
    31    15    18    1
    32    18    19   ar
    33    19    20   ar
    34    20    21   ar
    35    21    22   ar
    36    22    23    1
    37    22    24   ar
    38    24    25    1
    39    15    16    1
    40    16    17    1
    41     8     9   ar
    42     9    10   ar
    43    10    11    1
    44    46    38   ar
    45    36    31   ar
    46    10     5   ar
    47    46    41   ar
    48    17    12    1
    49    24    18   ar
    50     3     4    1
    51    40    47    1
    52    29    30    1
@<TRIPOS>MOLECULE
*****
 47 52 0 0 0
SMALL
GASTEIGER

@<TRIPOS>ATOM
      1 O           4.7520   73.2933   28.0151 O.2     1  UNL1       -0.2701
      2 C           5.0684   74.4816   27.7413 C.2     1  UNL1        0.2483
      3 N           4.0566   75.5049   27.7770 N.am    1  UNL1       -0.2945
      4 H           3.1017   75.2211   28.0956 H       1  UNL1        0.1501
      5 C           6.4522   74.7717   27.3255 C.ar    1  UNL1        0.0808
      6 C           6.7406   74.9321   25.9643 C.ar    1  UNL1        0.0080
      7 C           8.0133   75.3371   25.5557 C.ar    1  UNL1        0.0148
      8 C           9.0207   75.5849   26.5037 C.ar    1  UNL1        0.0502
      9 C           8.7456   75.3544   27.8638 C.ar    1  UNL1        0.0443
     10 C           7.4743   74.9410   28.2723 C.ar    1  UNL1        0.1457
     11 F           7.2429   74.7063   29.5891 F       1  UNL1       -0.2040
     12 N          10.3094   76.0859   26.0904 N.pl3   1  UNL1       -0.3040
     13 C          11.4450   76.0532   27.0261 C.3     1  UNL1        0.1122
     14 C          12.3306   77.2917   26.8480 C.3     1  UNL1        0.1123
     15 N          12.5866   77.5717   25.4313 N.pl3   1  UNL1       -0.3034
     16 C          11.9890   76.7445   24.3820 C.3     1  UNL1        0.1123
     17 C          10.5093   76.5113   24.6944 C.3     1  UNL1        0.1122
     18 C          13.5129   78.6063   25.0806 C.ar    1  UNL1        0.0595
     19 C          14.8356   78.2698   24.7645 C.ar    1  UNL1        0.0154
     20 C          15.7521   79.2666   24.4247 C.ar    1  UNL1        0.0022
     21 C          15.3525   80.6044   24.3960 C.ar    1  UNL1        0.0123
     22 C          14.0324   80.9532   24.7038 C.ar    1  UNL1        0.0694
     23 CL         13.5690   82.6489   24.6489 Cl      1  UNL1       -0.0813
     24 C          13.1041   79.9530   25.0465 C.ar    1  UNL1        0.0815
     25 CL         11.4314   80.3745   25.4112 Cl      1  UNL1       -0.0801
     26 C           4.2845   76.8957   27.3582 C.3     1  UNL1        0.1535
     27 C           3.3291   77.2765   26.2530 C.2     1  UNL1        0.2443
     28 O           2.1260   77.5304   26.5319 O.2     1  UNL1       -0.2730
     29 N           3.8155   77.4083   24.9063 N.am    1  UNL1       -0.2825
     30 H           4.8497   77.4889   24.7760 H       1  UNL1        0.1549
     31 C           2.9908   77.4849   23.7288 C.ar    1  UNL1        0.0535
     32 C           2.0400   78.5053   23.5474 C.ar    1  UNL1        0.0353
     33 C           1.2329   78.5020   22.4071 C.ar    1  UNL1        0.1002
     34 N           1.3616   77.5156   21.4818 N.ar    1  UNL1       -0.2422
     35 C           2.2619   76.5099   21.6354 C.ar    1  UNL1        0.1002
     36 C           3.0834   76.4713   22.7640 C.ar    1  UNL1        0.0353
     37 C           4.1432   77.8539   28.5559 C.3     1  UNL1        0.0569
     38 C           5.3496   77.7951   29.4500 C.ar    1  UNL1       -0.0017
     39 C           5.3644   77.4559   30.7998 C.ar    1  UNL1        0.0681
     40 N           6.6045   77.6203   31.3143 N.ar    1  UNL1       -0.3523
     41 C           7.3686   78.0730   30.3050 C.ar    1  UNL1        0.0563
     42 C           8.7178   78.4203   30.3567 C.ar    1  UNL1        0.0170
     43 C           9.3170   78.9065   29.1802 C.ar    1  UNL1        0.0015
     44 C           8.5619   79.0375   27.9934 C.ar    1  UNL1        0.0001
     45 C           7.2010   78.6820   27.9717 C.ar    1  UNL1        0.0012
     46 C           6.6369   78.1968   29.1518 C.ar    1  UNL1        0.0131
     47 H           6.8987   77.4515   32.3019 H       1  UNL1        0.1660
@<TRIPOS>BOND
     1     1     2    2
     2     2     3   am
     3     3    26    1
     4    26    37    1
     5    37    38    1
     6    38    39   ar
     7    39    40   ar
     8    40    41   ar
     9    41    42   ar
    10    42    43   ar
    11    43    44   ar
    12    44    45   ar
    13    45    46   ar
    14    26    27    1
    15    27    28    2
    16    27    29   am
    17    29    31    1
    18    31    32   ar
    19    32    33   ar
    20    33    34   ar
    21    34    35   ar
    22    35    36   ar
    23     2     5    1
    24     5     6   ar
    25     6     7   ar
    26     7     8   ar
    27     8    12    1
    28    12    13    1
    29    13    14    1
    30    14    15    1
    31    15    18    1
    32    18    19   ar
    33    19    20   ar
    34    20    21   ar
    35    21    22   ar
    36    22    23    1
    37    22    24   ar
    38    24    25    1
    39    15    16    1
    40    16    17    1
    41     8     9   ar
    42     9    10   ar
    43    10    11    1
    44    46    38   ar
    45    36    31   ar
    46    10     5   ar
    47    46    41   ar
    48    17    12    1
    49    24    18   ar
    50     3     4    1
    51    40    47    1
    52    29    30    1
@<TRIPOS>MOLECULE
*****
 47 52 0 0 0
SMALL
GASTEIGER

@<TRIPOS>ATOM
      1 O           8.1316   72.2687   21.5393 O.2     1  UNL1       -0.2701
      2 C           7.2471   73.1289   21.7937 C.2     1  UNL1        0.2483
      3 N           6.1999   73.3657   20.8349 N.am    1  UNL1       -0.2945
      4 H           6.1852   72.7577   19.9841 H       1  UNL1        0.1501
      5 C           7.3545   73.9138   23.0365 C.ar    1  UNL1        0.0808
      6 C           6.6800   73.4780   24.1840 C.ar    1  UNL1        0.0080
      7 C           6.8718   74.1286   25.4049 C.ar    1  UNL1        0.0148
      8 C           7.7399   75.2299   25.4967 C.ar    1  UNL1        0.0502
      9 C           8.3598   75.7061   24.3273 C.ar    1  UNL1        0.0443
     10 C           8.1615   75.0601   23.1036 C.ar    1  UNL1        0.1457
     11 F           8.7558   75.5536   21.9875 F       1  UNL1       -0.2040
     12 N           8.0059   75.8497   26.7726 N.pl3   1  UNL1       -0.3040
     13 C           6.8892   76.2152   27.6589 C.3     1  UNL1        0.1122
     14 C           7.1899   77.5233   28.3994 C.3     1  UNL1        0.1123
     15 N           8.5551   77.5373   28.9355 N.pl3   1  UNL1       -0.3034
     16 C           9.4654   76.4151   28.7022 C.3     1  UNL1        0.1123
     17 C           9.3977   75.9980   27.2315 C.3     1  UNL1        0.1122
     18 C           8.9621   78.6199   29.7803 C.ar    1  UNL1        0.0595
     19 C           8.7059   78.5552   31.1561 C.ar    1  UNL1        0.0154
     20 C           9.0923   79.6038   31.9928 C.ar    1  UNL1        0.0022
     21 C           9.7390   80.7215   31.4610 C.ar    1  UNL1        0.0123
     22 C          10.0062   80.7957   30.0891 C.ar    1  UNL1        0.0694
     23 CL         10.8288   82.2179   29.4615 Cl      1  UNL1       -0.0813
     24 C           9.6196   79.7417   29.2410 C.ar    1  UNL1        0.0815
     25 CL          9.9728   79.8093   27.5149 Cl      1  UNL1       -0.0801
     26 C           5.1911   74.4268   20.9705 C.3     1  UNL1        0.1535
     27 C           5.5199   75.5859   20.0609 C.2     1  UNL1        0.2443
     28 O           5.4318   75.4397   18.8117 O.2     1  UNL1       -0.2730
     29 N           5.8668   76.8602   20.6296 N.am    1  UNL1       -0.2825
     30 H           5.6328   77.0152   21.6367 H       1  UNL1        0.1549
     31 C           6.4671   77.9545   19.9122 C.ar    1  UNL1        0.0535
     32 C           5.7403   78.7356   18.9958 C.ar    1  UNL1        0.0353
     33 C           6.3871   79.7542   18.2916 C.ar    1  UNL1        0.1002
     34 N           7.7117   79.9848   18.4864 N.ar    1  UNL1       -0.2422
     35 C           8.4429   79.2391   19.3553 C.ar    1  UNL1        0.1002
     36 C           7.8371   78.2066   20.0742 C.ar    1  UNL1        0.0353
     37 C           3.7830   73.8795   20.6696 C.3     1  UNL1        0.0569
     38 C           2.7496   74.9694   20.7183 C.ar    1  UNL1       -0.0017
     39 C           1.8468   75.3003   19.7119 C.ar    1  UNL1        0.0681
     40 N           1.1448   76.4053   20.0521 N.ar    1  UNL1       -0.3523
     41 C           1.6060   76.7822   21.2573 C.ar    1  UNL1        0.0563
     42 C           1.2098   77.8903   22.0050 C.ar    1  UNL1        0.0170
     43 C           1.8527   78.1169   23.2358 C.ar    1  UNL1        0.0015
     44 C           2.8685   77.2436   23.6844 C.ar    1  UNL1        0.0001
     45 C           3.2498   76.1348   22.9072 C.ar    1  UNL1        0.0012
     46 C           2.5896   75.9327   21.6949 C.ar    1  UNL1        0.0131
     47 H           0.4111   76.8800   19.4804 H       1  UNL1        0.1660
@<TRIPOS>BOND
     1     1     2    2
     2     2     3   am
     3     3    26    1
     4    26    37    1
     5    37    38    1
     6    38    39   ar
     7    39    40   ar
     8    40    41   ar
     9    41    42   ar
    10    42    43   ar
    11    43    44   ar
    12    44    45   ar
    13    45    46   ar
    14    26    27    1
    15    27    28    2
    16    27    29   am
    17    29    31    1
    18    31    32   ar
    19    32    33   ar
    20    33    34   ar
    21    34    35   ar
    22    35    36   ar
    23     2     5    1
    24     5     6   ar
    25     6     7   ar
    26     7     8   ar
    27     8    12    1
    28    12    13    1
    29    13    14    1
    30    14    15    1
    31    15    18    1
    32    18    19   ar
    33    19    20   ar
    34    20    21   ar
    35    21    22   ar
    36    22    23    1
    37    22    24   ar
    38    24    25    1
    39    15    16    1
    40    16    17    1
    41     8     9   ar
    42     9    10   ar
    43    10    11    1
    44    46    38   ar
    45    36    31   ar
    46    10     5   ar
    47    46    41   ar
    48    17    12    1
    49    24    18   ar
    50     3     4    1
    51    40    47    1
    52    29    30    1
