@<TRIPOS>MOLECULE
*****
 51 56 0 0 0
SMALL
GASTEIGER

@<TRIPOS>ATOM
      1 O          59.3575   86.5330   12.3347 O.2     1  UNL1       -0.2701
      2 C          59.9773   86.0224   11.3615 C.2     1  UNL1        0.2483
      3 N          60.6960   84.7906   11.5388 N.am    1  UNL1       -0.2945
      4 H          60.9545   84.2511   10.6832 H       1  UNL1        0.1501
      5 C          59.9141   86.6818   10.0373 C.ar    1  UNL1        0.0808
      6 C          60.5726   87.9076    9.8412 C.ar    1  UNL1        0.0080
      7 C          60.5179   88.5536    8.6036 C.ar    1  UNL1        0.0148
      8 C          59.8132   87.9824    7.5344 C.ar    1  UNL1        0.0502
      9 C          59.1670   86.7504    7.7219 C.ar    1  UNL1        0.0443
     10 C          59.2192   86.1004    8.9589 C.ar    1  UNL1        0.1457
     11 F          58.6346   84.8826    9.0793 F       1  UNL1       -0.2040
     12 N          59.7567   88.6558    6.2626 N.pl3   1  UNL1       -0.3040
     13 C          58.4838   89.1715    5.7472 C.3     1  UNL1        0.1123
     14 C          58.7022   90.5109    5.0385 C.3     1  UNL1        0.1136
     15 N          59.8467   90.4275    4.1196 N.pl3   1  UNL1       -0.2897
     16 C          61.1127   89.8979    4.6432 C.3     1  UNL1        0.1136
     17 C          60.8788   88.5510    5.3239 C.3     1  UNL1        0.1123
     18 C          59.8297   91.0993    2.8436 C.ar    1  UNL1        0.1318
     19 C          61.0129   91.5669    2.2486 C.ar    1  UNL1        0.0343
     20 C          60.9553   92.2100    1.0114 C.ar    1  UNL1        0.0083
     21 C          59.7219   92.4029    0.3716 C.ar    1  UNL1        0.0906
     22 C          58.5670   91.8906    0.9828 C.ar    1  UNL1        0.1041
     23 N          58.6480   91.2664    2.1875 N.ar    1  UNL1       -0.2292
     24 C          59.6518   93.0501   -0.9880 C.3     1  UNL1        0.4200
     25 F          59.6107   92.0898   -1.9841 F       1  UNL1       -0.1658
     26 F          58.5173   93.8356   -1.0965 F       1  UNL1       -0.1658
     27 F          60.7687   93.8434   -1.1726 F       1  UNL1       -0.1658
     28 C          60.7763   84.1171   12.8408 C.3     1  UNL1        0.1535
     29 C          60.5660   82.6306   12.6881 C.2     1  UNL1        0.2443
     30 O          61.4760   81.8278   13.0342 O.2     1  UNL1       -0.2730
     31 N          59.3285   82.1387   12.1497 N.am    1  UNL1       -0.2821
     32 H          58.6697   82.8347   11.7342 H       1  UNL1        0.1549
     33 C          58.9885   80.7424   12.0731 C.ar    1  UNL1        0.0589
     34 C          59.1817   79.8955   13.1776 C.ar    1  UNL1        0.0358
     35 C          58.8167   78.5510   13.0918 C.ar    1  UNL1        0.1002
     36 N          58.2682   78.0647   11.9486 N.ar    1  UNL1       -0.2417
     37 C          58.0569   78.8581   10.8662 C.ar    1  UNL1        0.1059
     38 C          58.4057   80.2127   10.9049 C.ar    1  UNL1        0.0542
     39 S          58.1315   81.2231    9.4469 S.3     1  UNL1       -0.1387
     40 H          59.4113   80.9318    8.9391 H       1  UNL1        0.1072
     41 C          62.1063   84.4362   13.5545 C.3     1  UNL1        0.0569
     42 C          61.9891   85.5276   14.5847 C.ar    1  UNL1       -0.0017
     43 C          61.3211   85.4462   15.8033 C.ar    1  UNL1        0.0681
     44 N          61.4535   86.6013   16.4939 N.ar    1  UNL1       -0.3523
     45 C          62.1969   87.4125   15.7216 C.ar    1  UNL1        0.0563
     46 C          62.6026   88.7147   16.0106 C.ar    1  UNL1        0.0170
     47 C          63.3825   89.3883   15.0528 C.ar    1  UNL1        0.0015
     48 C          63.7322   88.7539   13.8402 C.ar    1  UNL1        0.0001
     49 C          63.3065   87.4399   13.5749 C.ar    1  UNL1        0.0012
     50 C          62.5406   86.7943   14.5464 C.ar    1  UNL1        0.0131
     51 H          61.0573   86.8151   17.4361 H       1  UNL1        0.1660
@<TRIPOS>BOND
     1     1     2    2
     2     2     3   am
     3     3    28    1
     4    28    41    1
     5    41    42    1
     6    42    43   ar
     7    43    44   ar
     8    44    45   ar
     9    45    46   ar
    10    46    47   ar
    11    47    48   ar
    12    48    49   ar
    13    49    50   ar
    14    28    29    1
    15    29    30    2
    16    29    31   am
    17    31    33    1
    18    33    34   ar
    19    34    35   ar
    20    35    36   ar
    21    36    37   ar
    22    37    38   ar
    23    38    39    1
    24     2     5    1
    25     5     6   ar
    26     6     7   ar
    27     7     8   ar
    28     8    12    1
    29    12    13    1
    30    13    14    1
    31    14    15    1
    32    15    18    1
    33    18    19   ar
    34    19    20   ar
    35    20    21   ar
    36    21    24    1
    37    24    25    1
    38    24    26    1
    39    24    27    1
    40    21    22   ar
    41    22    23   ar
    42    15    16    1
    43    16    17    1
    44     8     9   ar
    45     9    10   ar
    46    10    11    1
    47    50    42   ar
    48    38    33   ar
    49    10     5   ar
    50    50    45   ar
    51    17    12    1
    52    23    18   ar
    53     3     4    1
    54    44    51    1
    55    31    32    1
    56    39    40    1
@<TRIPOS>MOLECULE
*****
 51 56 0 0 0
SMALL
GASTEIGER

@<TRIPOS>ATOM
      1 O          58.8644   86.1194   12.0609 O.2     1  UNL1       -0.2701
      2 C          59.5896   85.6691   11.1317 C.2     1  UNL1        0.2483
      3 N          60.3363   84.4574   11.3309 N.am    1  UNL1       -0.2945
      4 H          60.6923   83.9611   10.4844 H       1  UNL1        0.1501
      5 C          59.6220   86.3769    9.8316 C.ar    1  UNL1        0.0808
      6 C          60.3830   87.5509    9.7002 C.ar    1  UNL1        0.0080
      7 C          60.4201   88.2416    8.4863 C.ar    1  UNL1        0.0148
      8 C          59.7059   87.7672    7.3767 C.ar    1  UNL1        0.0502
      9 C          58.9568   86.5864    7.4997 C.ar    1  UNL1        0.0443
     10 C          58.9171   85.8919    8.7127 C.ar    1  UNL1        0.1457
     11 F          58.2327   84.7226    8.7710 F       1  UNL1       -0.2040
     12 N          59.7444   88.4866    6.1297 N.pl3   1  UNL1       -0.3040
     13 C          58.5708   89.2318    5.6617 C.3     1  UNL1        0.1123
     14 C          59.0046   90.5390    4.9929 C.3     1  UNL1        0.1136
     15 N          60.1015   90.2941    4.0452 N.pl3   1  UNL1       -0.2897
     16 C          61.2660   89.5360    4.5212 C.3     1  UNL1        0.1136
     17 C          60.8152   88.2252    5.1621 C.3     1  UNL1        0.1123
     18 C          60.1786   91.0052    2.7930 C.ar    1  UNL1        0.1318
     19 C          59.6278   92.2889    2.6470 C.ar    1  UNL1        0.0343
     20 C          59.7251   92.9457    1.4195 C.ar    1  UNL1        0.0083
     21 C          60.3554   92.3224    0.3322 C.ar    1  UNL1        0.0906
     22 C          60.9228   91.0540    0.5287 C.ar    1  UNL1        0.1041
     23 N          60.8168   90.4344    1.7339 N.ar    1  UNL1       -0.2292
     24 C          60.5120   93.0414   -0.9834 C.3     1  UNL1        0.4200
     25 F          59.4143   93.8469   -1.2330 F       1  UNL1       -0.1658
     26 F          61.6419   93.8408   -0.9710 F       1  UNL1       -0.1658
     27 F          60.6289   92.1114   -1.9994 F       1  UNL1       -0.1658
     28 C          60.3235   83.7370   12.6100 C.3     1  UNL1        0.1535
     29 C          60.8247   84.6200   13.7264 C.2     1  UNL1        0.2443
     30 O          60.6158   84.2948   14.9276 O.2     1  UNL1       -0.2730
     31 N          61.5386   85.8266   13.4134 N.am    1  UNL1       -0.2821
     32 H          61.5537   86.1362   12.4159 H       1  UNL1        0.1549
     33 C          62.1543   86.6711   14.4027 C.ar    1  UNL1        0.0589
     34 C          62.1641   86.2989   15.7577 C.ar    1  UNL1        0.0358
     35 C          62.7935   87.1180   16.6965 C.ar    1  UNL1        0.1002
     36 N          63.4024   88.2657   16.3011 N.ar    1  UNL1       -0.2417
     37 C          63.4217   88.6495   14.9981 C.ar    1  UNL1        0.1059
     38 C          62.8050   87.8608   14.0205 C.ar    1  UNL1        0.0542
     39 S          62.8327   88.4131   12.3128 S.3     1  UNL1       -0.1387
     40 H          61.6275   89.1233   12.4673 H       1  UNL1        0.1072
     41 C          58.9233   83.1665   12.9167 C.3     1  UNL1        0.0569
     42 C          58.4867   82.0946   11.9543 C.ar    1  UNL1       -0.0017
     43 C          57.9706   82.2909   10.6764 C.ar    1  UNL1        0.0681
     44 N          57.7222   81.1037   10.0785 N.ar    1  UNL1       -0.3523
     45 C          58.0742   80.1593   10.9679 C.ar    1  UNL1        0.0563
     46 C          58.0022   78.7765   10.8040 C.ar    1  UNL1        0.0170
     47 C          58.4261   77.9647   11.8720 C.ar    1  UNL1        0.0015
     48 C          58.9035   78.5464   13.0673 C.ar    1  UNL1        0.0001
     49 C          58.9627   79.9450   13.2052 C.ar    1  UNL1        0.0012
     50 C          58.5426   80.7244   12.1266 C.ar    1  UNL1        0.0131
     51 H          57.3356   80.9555    9.1199 H       1  UNL1        0.1660
@<TRIPOS>BOND
     1     1     2    2
     2     2     3   am
     3     3    28    1
     4    28    41    1
     5    41    42    1
     6    42    43   ar
     7    43    44   ar
     8    44    45   ar
     9    45    46   ar
    10    46    47   ar
    11    47    48   ar
    12    48    49   ar
    13    49    50   ar
    14    28    29    1
    15    29    30    2
    16    29    31   am
    17    31    33    1
    18    33    34   ar
    19    34    35   ar
    20    35    36   ar
    21    36    37   ar
    22    37    38   ar
    23    38    39    1
    24     2     5    1
    25     5     6   ar
    26     6     7   ar
    27     7     8   ar
    28     8    12    1
    29    12    13    1
    30    13    14    1
    31    14    15    1
    32    15    18    1
    33    18    19   ar
    34    19    20   ar
    35    20    21   ar
    36    21    24    1
    37    24    25    1
    38    24    26    1
    39    24    27    1
    40    21    22   ar
    41    22    23   ar
    42    15    16    1
    43    16    17    1
    44     8     9   ar
    45     9    10   ar
    46    10    11    1
    47    50    42   ar
    48    38    33   ar
    49    10     5   ar
    50    50    45   ar
    51    17    12    1
    52    23    18   ar
    53     3     4    1
    54    44    51    1
    55    31    32    1
    56    39    40    1
@<TRIPOS>MOLECULE
*****
 51 56 0 0 0
SMALL
GASTEIGER

@<TRIPOS>ATOM
      1 O          58.9111   84.8735   11.4241 O.2     1  UNL1       -0.2701
      2 C          59.4995   85.9843   11.3152 C.2     1  UNL1        0.2483
      3 N          60.1479   86.5649   12.4589 N.am    1  UNL1       -0.2945
      4 H          60.8511   87.3175   12.2891 H       1  UNL1        0.1501
      5 C          59.5500   86.6500    9.9935 C.ar    1  UNL1        0.0808
      6 C          60.0884   87.9437    9.8891 C.ar    1  UNL1        0.0080
      7 C          60.1365   88.5958    8.6545 C.ar    1  UNL1        0.0148
      8 C          59.6573   87.9641    7.4980 C.ar    1  UNL1        0.0502
      9 C          59.1329   86.6656    7.5957 C.ar    1  UNL1        0.0443
     10 C          59.0829   86.0093    8.8294 C.ar    1  UNL1        0.1457
     11 F          58.6269   84.7327    8.8693 F       1  UNL1       -0.2040
     12 N          59.7054   88.6437    6.2292 N.pl3   1  UNL1       -0.3040
     13 C          58.5186   89.3270    5.7034 C.3     1  UNL1        0.1123
     14 C          58.9221   90.6278    5.0038 C.3     1  UNL1        0.1136
     15 N          60.0551   90.3954    4.0964 N.pl3   1  UNL1       -0.2897
     16 C          61.2330   89.6991    4.6303 C.3     1  UNL1        0.1136
     17 C          60.8136   88.3931    5.3017 C.3     1  UNL1        0.1123
     18 C          60.1421   91.0681    2.8238 C.ar    1  UNL1        0.1318
     19 C          61.3752   91.2496    2.1765 C.ar    1  UNL1        0.0343
     20 C          61.4177   91.9037    0.9443 C.ar    1  UNL1        0.0083
     21 C          60.2384   92.3913    0.3617 C.ar    1  UNL1        0.0906
     22 C          59.0229   92.1594    1.0238 C.ar    1  UNL1        0.1041
     23 N          59.0062   91.5186    2.2224 N.ar    1  UNL1       -0.2292
     24 C          60.2645   93.0538   -0.9921 C.3     1  UNL1        0.4200
     25 F          60.2857   92.1048   -1.9995 F       1  UNL1       -0.1658
     26 F          59.1443   93.8476   -1.1683 F       1  UNL1       -0.1658
     27 F          61.3957   93.8420   -1.0915 F       1  UNL1       -0.1658
     28 C          60.1117   85.9273   13.7808 C.3     1  UNL1        0.1535
     29 C          61.1679   84.8548   13.8865 C.2     1  UNL1        0.2443
     30 O          61.2644   84.1690   14.9415 O.2     1  UNL1       -0.2730
     31 N          62.0573   84.6206   12.7832 N.am    1  UNL1       -0.2821
     32 H          62.0457   85.3081   11.9968 H       1  UNL1        0.1549
     33 C          63.0168   83.5488   12.7427 C.ar    1  UNL1        0.0589
     34 C          63.7464   83.1956   13.8906 C.ar    1  UNL1        0.0358
     35 C          64.6498   82.1330   13.8374 C.ar    1  UNL1        0.1002
     36 N          64.8166   81.4366   12.6835 N.ar    1  UNL1       -0.2417
     37 C          64.1192   81.7439   11.5588 C.ar    1  UNL1        0.1059
     38 C          63.2015   82.8002   11.5636 C.ar    1  UNL1        0.0542
     39 S          62.3159   83.1895   10.0516 S.3     1  UNL1       -0.1387
     40 H          63.3147   84.0895    9.6355 H       1  UNL1        0.1072
     41 C          60.2416   86.9713   14.9092 C.3     1  UNL1        0.0569
     42 C          61.6465   87.4760   15.1026 C.ar    1  UNL1       -0.0017
     43 C          62.4194   87.3500   16.2535 C.ar    1  UNL1        0.0681
     44 N          63.6464   87.8846   16.0607 N.ar    1  UNL1       -0.3523
     45 C          63.6550   88.3494   14.7995 C.ar    1  UNL1        0.0563
     46 C          64.7069   88.9851   14.1412 C.ar    1  UNL1        0.0170
     47 C          64.4989   89.3943   12.8112 C.ar    1  UNL1        0.0015
     48 C          63.2575   89.1647   12.1777 C.ar    1  UNL1        0.0001
     49 C          62.2133   88.5229   12.8676 C.ar    1  UNL1        0.0012
     50 C          62.4511   88.1218   14.1829 C.ar    1  UNL1        0.0131
     51 H          64.4263   87.9254   16.7540 H       1  UNL1        0.1660
@<TRIPOS>BOND
     1     1     2    2
     2     2     3   am
     3     3    28    1
     4    28    41    1
     5    41    42    1
     6    42    43   ar
     7    43    44   ar
     8    44    45   ar
     9    45    46   ar
    10    46    47   ar
    11    47    48   ar
    12    48    49   ar
    13    49    50   ar
    14    28    29    1
    15    29    30    2
    16    29    31   am
    17    31    33    1
    18    33    34   ar
    19    34    35   ar
    20    35    36   ar
    21    36    37   ar
    22    37    38   ar
    23    38    39    1
    24     2     5    1
    25     5     6   ar
    26     6     7   ar
    27     7     8   ar
    28     8    12    1
    29    12    13    1
    30    13    14    1
    31    14    15    1
    32    15    18    1
    33    18    19   ar
    34    19    20   ar
    35    20    21   ar
    36    21    24    1
    37    24    25    1
    38    24    26    1
    39    24    27    1
    40    21    22   ar
    41    22    23   ar
    42    15    16    1
    43    16    17    1
    44     8     9   ar
    45     9    10   ar
    46    10    11    1
    47    50    42   ar
    48    38    33   ar
    49    10     5   ar
    50    50    45   ar
    51    17    12    1
    52    23    18   ar
    53     3     4    1
    54    44    51    1
    55    31    32    1
    56    39    40    1
@<TRIPOS>MOLECULE
*****
 51 56 0 0 0
SMALL
GASTEIGER

@<TRIPOS>ATOM
      1 O          58.8906   86.6991   12.3270 O.2     1  UNL1       -0.2701
      2 C          59.5687   86.1658   11.4063 C.2     1  UNL1        0.2483
      3 N          60.2496   84.9234   11.6479 N.am    1  UNL1       -0.2945
      4 H          60.5585   84.3691   10.8190 H       1  UNL1        0.1501
      5 C          59.6131   86.8103   10.0740 C.ar    1  UNL1        0.0808
      6 C          60.2228   88.0684    9.9325 C.ar    1  UNL1        0.0080
      7 C          60.2670   88.7006    8.6874 C.ar    1  UNL1        0.0148
      8 C          59.7123   88.0835    7.5570 C.ar    1  UNL1        0.0502
      9 C          59.1160   86.8198    7.6914 C.ar    1  UNL1        0.0443
     10 C          59.0697   86.1835    8.9357 C.ar    1  UNL1        0.1457
     11 F          58.5410   84.9368    9.0097 F       1  UNL1       -0.2040
     12 N          59.7568   88.7428    6.2774 N.pl3   1  UNL1       -0.3040
     13 C          58.5580   89.3838    5.7261 C.3     1  UNL1        0.1123
     14 C          58.9338   90.6833    5.0090 C.3     1  UNL1        0.1136
     15 N          60.0837   90.4673    4.1190 N.pl3   1  UNL1       -0.2897
     16 C          61.2739   89.8133    4.6785 C.3     1  UNL1        0.1136
     17 C          60.8827   88.5076    5.3672 C.3     1  UNL1        0.1123
     18 C          60.1675   91.1207    2.8361 C.ar    1  UNL1        0.1318
     19 C          61.3865   91.2212    2.1460 C.ar    1  UNL1        0.0343
     20 C          61.4261   91.8591    0.9052 C.ar    1  UNL1        0.0083
     21 C          60.2589   92.4107    0.3563 C.ar    1  UNL1        0.0906
     22 C          59.0550   92.2590    1.0613 C.ar    1  UNL1        0.1041
     23 N          59.0407   91.6325    2.2675 N.ar    1  UNL1       -0.2292
     24 C          60.2785   93.0567   -1.0056 C.3     1  UNL1        0.4200
     25 F          60.2994   92.0955   -2.0013 F       1  UNL1       -0.1658
     26 F          59.1553   93.8448   -1.1878 F       1  UNL1       -0.1658
     27 F          61.4070   93.8471   -1.1183 F       1  UNL1       -0.1658
     28 C          60.2237   84.2642   12.9595 C.3     1  UNL1        0.1535
     29 C          59.4735   82.9570   12.8865 C.2     1  UNL1        0.2443
     30 O          58.2654   82.9042   13.2474 O.2     1  UNL1       -0.2730
     31 N          60.1405   81.7796   12.4048 N.am    1  UNL1       -0.2821
     32 H          61.1745   81.8309   12.2653 H       1  UNL1        0.1549
     33 C          59.4815   80.5185   12.1894 C.ar    1  UNL1        0.0589
     34 C          59.3972   79.5679   13.2209 C.ar    1  UNL1        0.0358
     35 C          58.7269   78.3637   12.9999 C.ar    1  UNL1        0.1002
     36 N          58.1501   78.1151   11.7959 N.ar    1  UNL1       -0.2417
     37 C          58.2026   79.0166   10.7810 C.ar    1  UNL1        0.1059
     38 C          58.8626   80.2382   10.9552 C.ar    1  UNL1        0.0542
     39 S          58.9296   81.3937    9.5833 S.3     1  UNL1       -0.1387
     40 H          60.1314   80.8388    9.1054 H       1  UNL1        0.1072
     41 C          61.6491   84.0753   13.5188 C.3     1  UNL1        0.0569
     42 C          62.5616   83.3143   12.5947 C.ar    1  UNL1       -0.0017
     43 C          63.3479   82.2152   12.9291 C.ar    1  UNL1        0.0681
     44 N          64.0112   81.7594   11.8425 N.ar    1  UNL1       -0.3523
     45 C          63.6533   82.5618   10.8253 C.ar    1  UNL1        0.0563
     46 C          64.0777   82.4846    9.4994 C.ar    1  UNL1        0.0170
     47 C          63.5740   83.4337    8.5913 C.ar    1  UNL1        0.0015
     48 C          62.6706   84.4294    9.0244 C.ar    1  UNL1        0.0001
     49 C          62.2617   84.4844   10.3692 C.ar    1  UNL1        0.0012
     50 C          62.7721   83.5255   11.2451 C.ar    1  UNL1        0.0131
     51 H          64.6672   80.9477   11.8058 H       1  UNL1        0.1660
@<TRIPOS>BOND
     1     1     2    2
     2     2     3   am
     3     3    28    1
     4    28    41    1
     5    41    42    1
     6    42    43   ar
     7    43    44   ar
     8    44    45   ar
     9    45    46   ar
    10    46    47   ar
    11    47    48   ar
    12    48    49   ar
    13    49    50   ar
    14    28    29    1
    15    29    30    2
    16    29    31   am
    17    31    33    1
    18    33    34   ar
    19    34    35   ar
    20    35    36   ar
    21    36    37   ar
    22    37    38   ar
    23    38    39    1
    24     2     5    1
    25     5     6   ar
    26     6     7   ar
    27     7     8   ar
    28     8    12    1
    29    12    13    1
    30    13    14    1
    31    14    15    1
    32    15    18    1
    33    18    19   ar
    34    19    20   ar
    35    20    21   ar
    36    21    24    1
    37    24    25    1
    38    24    26    1
    39    24    27    1
    40    21    22   ar
    41    22    23   ar
    42    15    16    1
    43    16    17    1
    44     8     9   ar
    45     9    10   ar
    46    10    11    1
    47    50    42   ar
    48    38    33   ar
    49    10     5   ar
    50    50    45   ar
    51    17    12    1
    52    23    18   ar
    53     3     4    1
    54    44    51    1
    55    31    32    1
    56    39    40    1
@<TRIPOS>MOLECULE
*****
 51 56 0 0 0
SMALL
GASTEIGER

@<TRIPOS>ATOM
      1 O          59.6156   86.6711   12.3877 O.2     1  UNL1       -0.2701
      2 C          60.0786   86.0578   11.3870 C.2     1  UNL1        0.2483
      3 N          60.6002   84.7277   11.5421 N.am    1  UNL1       -0.2945
      4 H          60.7106   84.1455   10.6827 H       1  UNL1        0.1501
      5 C          60.0338   86.7063   10.0565 C.ar    1  UNL1        0.0808
      6 C          60.6274   87.9676    9.8799 C.ar    1  UNL1        0.0080
      7 C          60.5881   88.6035    8.6365 C.ar    1  UNL1        0.0148
      8 C          59.9641   87.9871    7.5425 C.ar    1  UNL1        0.0502
      9 C          59.3834   86.7203    7.7111 C.ar    1  UNL1        0.0443
     10 C          59.4206   86.0802    8.9538 C.ar    1  UNL1        0.1457
     11 F          58.9034   84.8309    9.0580 F       1  UNL1       -0.2040
     12 N          59.9228   88.6502    6.2646 N.pl3   1  UNL1       -0.3040
     13 C          58.6647   89.2028    5.7511 C.3     1  UNL1        0.1123
     14 C          58.9232   90.5276    5.0285 C.3     1  UNL1        0.1136
     15 N          60.0593   90.3980    4.1045 N.pl3   1  UNL1       -0.2897
     16 C          61.3100   89.8318    4.6266 C.3     1  UNL1        0.1136
     17 C          61.0357   88.4997    5.3212 C.3     1  UNL1        0.1123
     18 C          60.0574   91.0581    2.8224 C.ar    1  UNL1        0.1318
     19 C          61.0912   90.8533    1.8940 C.ar    1  UNL1        0.0343
     20 C          61.0521   91.5087    0.6625 C.ar    1  UNL1        0.0083
     21 C          59.9949   92.3791    0.3581 C.ar    1  UNL1        0.0906
     22 C          58.9643   92.5300    1.2986 C.ar    1  UNL1        0.1041
     23 N          59.0234   91.8801    2.4910 N.ar    1  UNL1       -0.2292
     24 C          59.9147   93.0529   -0.9880 C.3     1  UNL1        0.4200
     25 F          61.0304   93.8427   -1.2057 F       1  UNL1       -0.1658
     26 F          59.8456   92.1122   -2.0010 F       1  UNL1       -0.1658
     27 F          58.7844   93.8474   -1.0328 F       1  UNL1       -0.1658
     28 C          60.6582   84.0623   12.8495 C.3     1  UNL1        0.1535
     29 C          60.4401   82.5763   12.7036 C.2     1  UNL1        0.2443
     30 O          61.2953   81.7675   13.1586 O.2     1  UNL1       -0.2730
     31 N          59.2578   82.0915   12.0475 N.am    1  UNL1       -0.2821
     32 H          58.6580   82.7885   11.5520 H       1  UNL1        0.1549
     33 C          58.9044   80.6991   11.9620 C.ar    1  UNL1        0.0589
     34 C          59.0767   79.8463   13.0655 C.ar    1  UNL1        0.0358
     35 C          58.6989   78.5060   12.9707 C.ar    1  UNL1        0.1002
     36 N          58.1581   78.0295   11.8197 N.ar    1  UNL1       -0.2417
     37 C          57.9669   78.8289   10.7380 C.ar    1  UNL1        0.1059
     38 C          58.3291   80.1796   10.7855 C.ar    1  UNL1        0.0542
     39 S          58.0814   81.1981    9.3283 S.3     1  UNL1       -0.1387
     40 H          59.3637   80.8954    8.8336 H       1  UNL1        0.1072
     41 C          61.9803   84.3775   13.5793 C.3     1  UNL1        0.0569
     42 C          62.4279   85.8061   13.4226 C.ar    1  UNL1       -0.0017
     43 C          62.7398   86.4487   12.2277 C.ar    1  UNL1        0.0681
     44 N          63.0662   87.7409   12.4562 N.ar    1  UNL1       -0.3523
     45 C          62.9660   87.9199   13.7846 C.ar    1  UNL1        0.0563
     46 C          63.2029   89.0939   14.4985 C.ar    1  UNL1        0.0170
     47 C          63.0376   89.0589   15.8953 C.ar    1  UNL1        0.0015
     48 C          62.6472   87.8643   16.5400 C.ar    1  UNL1        0.0001
     49 C          62.4173   86.6943   15.7939 C.ar    1  UNL1        0.0012
     50 C          62.5819   86.7611   14.4098 C.ar    1  UNL1        0.0131
     51 H          63.3397   88.4520   11.7421 H       1  UNL1        0.1660
@<TRIPOS>BOND
     1     1     2    2
     2     2     3   am
     3     3    28    1
     4    28    41    1
     5    41    42    1
     6    42    43   ar
     7    43    44   ar
     8    44    45   ar
     9    45    46   ar
    10    46    47   ar
    11    47    48   ar
    12    48    49   ar
    13    49    50   ar
    14    28    29    1
    15    29    30    2
    16    29    31   am
    17    31    33    1
    18    33    34   ar
    19    34    35   ar
    20    35    36   ar
    21    36    37   ar
    22    37    38   ar
    23    38    39    1
    24     2     5    1
    25     5     6   ar
    26     6     7   ar
    27     7     8   ar
    28     8    12    1
    29    12    13    1
    30    13    14    1
    31    14    15    1
    32    15    18    1
    33    18    19   ar
    34    19    20   ar
    35    20    21   ar
    36    21    24    1
    37    24    25    1
    38    24    26    1
    39    24    27    1
    40    21    22   ar
    41    22    23   ar
    42    15    16    1
    43    16    17    1
    44     8     9   ar
    45     9    10   ar
    46    10    11    1
    47    50    42   ar
    48    38    33   ar
    49    10     5   ar
    50    50    45   ar
    51    17    12    1
    52    23    18   ar
    53     3     4    1
    54    44    51    1
    55    31    32    1
    56    39    40    1
