@<TRIPOS>MOLECULE
*****
 42 46 0 0 0
SMALL
GASTEIGER

@<TRIPOS>ATOM
      1 C          -7.1114  -20.2781   21.2331 C.3     1  UNL1        0.1333
      2 N          -6.6342  -18.9986   21.7581 N.ar    1  UNL1       -0.2950
      3 C          -5.4717  -18.3556   21.4688 C.ar    1  UNL1        0.2018
      4 N          -5.3036  -17.2014   22.1637 N.ar    1  UNL1       -0.2136
      5 C          -6.4165  -17.1300   22.9185 C.ar    1  UNL1        0.1016
      6 C          -6.7442  -16.1408   23.8569 C.ar    1  UNL1        0.0337
      7 C          -7.9544  -16.3096   24.5883 C.ar    1  UNL1        0.0905
      8 C          -8.7716  -17.4436   24.3515 C.ar    1  UNL1        0.1780
      9 C          -8.3916  -18.4206   23.4116 C.ar    1  UNL1        0.1896
     10 C          -7.2142  -18.2173   22.6896 C.ar    1  UNL1        0.1171
     11 O          -9.1904  -19.5556   23.2427 O.3     1  UNL1       -0.4669
     12 C         -10.2267  -19.8739   24.1737 C.3     1  UNL1        0.2527
     13 C         -10.9356  -18.5946   24.6338 C.3     1  UNL1        0.2526
     14 O          -9.9755  -17.6192   25.0462 O.3     1  UNL1       -0.4682
     15 C          -8.3806  -15.3285   25.6004 C.2     1  UNL1        0.2524
     16 O          -9.4028  -14.6251   25.3799 O.2     1  UNL1       -0.2697
     17 N          -7.6368  -15.1853   26.8209 N.am    1  UNL1       -0.2803
     18 H          -6.8989  -15.8953   27.0310 H       1  UNL1        0.1552
     19 C          -7.9130  -14.1887   27.8186 C.ar    1  UNL1        0.0506
     20 C          -9.1652  -14.1775   28.4466 C.ar    1  UNL1        0.0170
     21 C          -9.4493  -13.2386   29.4391 C.ar    1  UNL1        0.0309
     22 C          -8.4830  -12.3060   29.8237 C.ar    1  UNL1        0.1441
     23 F          -8.7801  -11.4139   30.8027 F       1  UNL1       -0.2042
     24 C          -7.2144  -12.3052   29.2140 C.ar    1  UNL1        0.1000
     25 C          -6.9316  -13.2663   28.2242 C.ar    1  UNL1        0.0208
     26 C          -6.1639  -11.3195   29.6681 C.3     1  UNL1        0.4207
     27 F          -5.5600  -11.7225   30.8469 F       1  UNL1       -0.1658
     28 F          -6.7525  -10.0848   29.8709 F       1  UNL1       -0.1658
     29 F          -5.1840  -11.1993   28.6990 F       1  UNL1       -0.1658
     30 C          -5.7811  -15.0111   24.1412 C.3     1  UNL1        0.1654
     31 O          -5.3164  -14.4610   22.9394 O.3     1  UNL1       -0.3772
     32 H          -6.0624  -13.9203   22.5690 H       1  UNL1        0.2109
     33 N          -4.4706  -18.8766   20.5808 N.pl3   1  UNL1       -0.2814
     34 H          -4.7161  -19.6836   19.9665 H       1  UNL1        0.1551
     35 C          -3.0964  -18.4607   20.6404 C.ar    1  UNL1        0.0889
     36 C          -2.1275  -19.2764   21.2579 C.ar    1  UNL1        0.1543
     37 F          -2.4779  -20.4556   21.8305 F       1  UNL1       -0.2028
     38 C          -0.7949  -18.8591   21.3247 C.ar    1  UNL1        0.0310
     39 C          -0.4176  -17.6266   20.7891 C.ar    1  UNL1        0.0033
     40 C          -1.3726  -16.8029   20.1902 C.ar    1  UNL1        0.0128
     41 C          -2.7102  -17.2096   20.1180 C.ar    1  UNL1        0.0733
     42 CL         -3.8735  -16.1496   19.3322 Cl      1  UNL1       -0.0809
@<TRIPOS>BOND
     1     1     2    1
     2     2     3   ar
     3     3    33    1
     4    33    35    1
     5    35    36   ar
     6    36    37    1
     7    36    38   ar
     8    38    39   ar
     9    39    40   ar
    10    40    41   ar
    11    41    42    1
    12     3     4   ar
    13     4     5   ar
    14     5     6   ar
    15     6    30    1
    16    30    31    1
    17     6     7   ar
    18     7    15    1
    19    15    16    2
    20    15    17   am
    21    17    19    1
    22    19    20   ar
    23    20    21   ar
    24    21    22   ar
    25    22    23    1
    26    22    24   ar
    27    24    26    1
    28    26    27    1
    29    26    28    1
    30    26    29    1
    31    24    25   ar
    32     7     8   ar
    33     8     9   ar
    34     9    10   ar
    35     9    11    1
    36    11    12    1
    37    12    13    1
    38    13    14    1
    39    10     2   ar
    40    41    35   ar
    41    10     5   ar
    42    25    19   ar
    43    14     8    1
    44    33    34    1
    45    31    32    1
    46    17    18    1
@<TRIPOS>MOLECULE
*****
 42 46 0 0 0
SMALL
GASTEIGER

@<TRIPOS>ATOM
      1 C          -9.0505  -10.3451   33.0625 C.3     1  UNL1        0.1333
      2 N          -9.3105  -11.2674   31.9570 N.ar    1  UNL1       -0.2950
      3 C         -10.4237  -12.0156   31.7342 C.ar    1  UNL1        0.2018
      4 N         -10.3319  -12.8098   30.6369 N.ar    1  UNL1       -0.2136
      5 C          -9.1020  -12.5384   30.1607 C.ar    1  UNL1        0.1016
      6 C          -8.4769  -13.1143   29.0451 C.ar    1  UNL1        0.0337
      7 C          -7.1384  -12.7151   28.7679 C.ar    1  UNL1        0.0905
      8 C          -6.4940  -11.7707   29.6062 C.ar    1  UNL1        0.1780
      9 C          -7.1561  -11.2334   30.7265 C.ar    1  UNL1        0.1896
     10 C          -8.4765  -11.6216   30.9601 C.ar    1  UNL1        0.1171
     11 O          -6.4732  -10.3479   31.5659 O.3     1  UNL1       -0.4669
     12 C          -5.0573  -10.1818   31.4680 C.3     1  UNL1        0.2527
     13 C          -4.6215  -10.2126   29.9983 C.3     1  UNL1        0.2526
     14 O          -5.1844  -11.3500   29.3404 O.3     1  UNL1       -0.4682
     15 C          -6.3957  -13.2690   27.6234 C.2     1  UNL1        0.2524
     16 O          -5.4189  -12.6239   27.1562 O.2     1  UNL1       -0.2697
     17 N          -6.7846  -14.5302   27.0563 N.am    1  UNL1       -0.2803
     18 H          -7.4907  -15.1025   27.5726 H       1  UNL1        0.1552
     19 C          -6.1890  -15.1006   25.8795 C.ar    1  UNL1        0.0506
     20 C          -5.0332  -15.8817   26.0074 C.ar    1  UNL1        0.0170
     21 C          -4.4510  -16.4709   24.8843 C.ar    1  UNL1        0.0309
     22 C          -5.0218  -16.2956   23.6214 C.ar    1  UNL1        0.1441
     23 F          -4.4441  -16.8927   22.5478 F       1  UNL1       -0.2042
     24 C          -6.1890  -15.5237   23.4703 C.ar    1  UNL1        0.1000
     25 C          -6.7780  -14.9457   24.6116 C.ar    1  UNL1        0.0208
     26 C          -6.8205  -15.3766   22.1062 C.3     1  UNL1        0.4207
     27 F          -5.9654  -14.7567   21.2110 F       1  UNL1       -0.1658
     28 F          -7.9731  -14.6204   22.2149 F       1  UNL1       -0.1658
     29 F          -7.1441  -16.6239   21.6027 F       1  UNL1       -0.1658
     30 C          -9.1769  -14.1943   28.2525 C.3     1  UNL1        0.1654
     31 O          -8.7082  -15.4562   28.6404 O.3     1  UNL1       -0.3772
     32 H          -9.1125  -15.6477   29.5269 H       1  UNL1        0.2109
     33 N         -11.5599  -12.0375   32.6121 N.pl3   1  UNL1       -0.2814
     34 H         -11.8580  -11.1480   33.0689 H       1  UNL1        0.1551
     35 C         -12.1818  -13.2615   33.0364 C.ar    1  UNL1        0.0889
     36 C         -13.3346  -13.7425   32.3844 C.ar    1  UNL1        0.1543
     37 F         -13.8937  -13.0464   31.3627 F       1  UNL1       -0.2028
     38 C         -13.9426  -14.9268   32.8114 C.ar    1  UNL1        0.0310
     39 C         -13.4172  -15.6350   33.8934 C.ar    1  UNL1        0.0033
     40 C         -12.2853  -15.1583   34.5575 C.ar    1  UNL1        0.0128
     41 C         -11.6682  -13.9733   34.1396 C.ar    1  UNL1        0.0733
     42 CL        -10.2300  -13.4248   34.9910 Cl      1  UNL1       -0.0809
@<TRIPOS>BOND
     1     1     2    1
     2     2     3   ar
     3     3    33    1
     4    33    35    1
     5    35    36   ar
     6    36    37    1
     7    36    38   ar
     8    38    39   ar
     9    39    40   ar
    10    40    41   ar
    11    41    42    1
    12     3     4   ar
    13     4     5   ar
    14     5     6   ar
    15     6    30    1
    16    30    31    1
    17     6     7   ar
    18     7    15    1
    19    15    16    2
    20    15    17   am
    21    17    19    1
    22    19    20   ar
    23    20    21   ar
    24    21    22   ar
    25    22    23    1
    26    22    24   ar
    27    24    26    1
    28    26    27    1
    29    26    28    1
    30    26    29    1
    31    24    25   ar
    32     7     8   ar
    33     8     9   ar
    34     9    10   ar
    35     9    11    1
    36    11    12    1
    37    12    13    1
    38    13    14    1
    39    10     2   ar
    40    41    35   ar
    41    10     5   ar
    42    25    19   ar
    43    14     8    1
    44    33    34    1
    45    31    32    1
    46    17    18    1
@<TRIPOS>MOLECULE
*****
 42 46 0 0 0
SMALL
GASTEIGER

@<TRIPOS>ATOM
      1 C          -8.5205  -19.3137   20.9673 C.3     1  UNL1        0.1333
      2 N          -7.8127  -18.2396   21.6645 N.ar    1  UNL1       -0.2950
      3 C          -6.7117  -17.5566   21.2526 C.ar    1  UNL1        0.2018
      4 N          -6.2689  -16.6464   22.1575 N.ar    1  UNL1       -0.2136
      5 C          -7.1391  -16.7754   23.1770 C.ar    1  UNL1        0.1016
      6 C          -7.1252  -16.0855   24.3979 C.ar    1  UNL1        0.0337
      7 C          -8.1163  -16.4371   25.3581 C.ar    1  UNL1        0.0905
      8 C          -9.0641  -17.4480   25.0586 C.ar    1  UNL1        0.1780
      9 C          -9.0269  -18.1264   23.8254 C.ar    1  UNL1        0.1896
     10 C          -8.0619  -17.7439   22.8920 C.ar    1  UNL1        0.1171
     11 O          -9.9396  -19.1577   23.5835 O.3     1  UNL1       -0.4669
     12 C         -10.7252  -19.7111   24.6411 C.3     1  UNL1        0.2527
     13 C         -11.1756  -18.6034   25.6008 C.3     1  UNL1        0.2526
     14 O         -10.0592  -17.7959   25.9813 O.3     1  UNL1       -0.4682
     15 C          -8.1790  -15.7744   26.6716 C.2     1  UNL1        0.2524
     16 O          -8.6168  -16.4181   27.6628 O.2     1  UNL1       -0.2697
     17 N          -7.7412  -14.4135   26.8119 N.am    1  UNL1       -0.2803
     18 H          -7.2388  -13.9751   26.0068 H       1  UNL1        0.1552
     19 C          -7.8590  -13.6519   28.0248 C.ar    1  UNL1        0.0506
     20 C          -6.7272  -13.0080   28.5413 C.ar    1  UNL1        0.0170
     21 C          -6.8203  -12.2386   29.7018 C.ar    1  UNL1        0.0309
     22 C          -8.0468  -12.0946   30.3548 C.ar    1  UNL1        0.1441
     23 F          -8.1126  -11.3277   31.4730 F       1  UNL1       -0.2042
     24 C          -9.1994  -12.7237   29.8482 C.ar    1  UNL1        0.1000
     25 C          -9.0989  -13.4856   28.6679 C.ar    1  UNL1        0.0208
     26 C         -10.5278  -12.5259   30.5392 C.3     1  UNL1        0.4207
     27 F         -10.4063  -11.7237   31.6610 F       1  UNL1       -0.1658
     28 F         -11.0302  -13.7550   30.9252 F       1  UNL1       -0.1658
     29 F         -11.4221  -11.9244   29.6719 F       1  UNL1       -0.1658
     30 C          -6.0252  -15.0939   24.7004 C.3     1  UNL1        0.1654
     31 O          -5.6663  -14.4032   23.5356 O.3     1  UNL1       -0.3772
     32 H          -6.3958  -13.7539   23.3559 H       1  UNL1        0.2109
     33 N          -6.0232  -17.8201   20.0202 N.pl3   1  UNL1       -0.2814
     34 H          -6.5855  -17.9815   19.1562 H       1  UNL1        0.1551
     35 C          -4.6076  -18.0605   19.9651 C.ar    1  UNL1        0.0889
     36 C          -3.7091  -16.9986   19.7406 C.ar    1  UNL1        0.1543
     37 F          -4.1646  -15.7353   19.5459 F       1  UNL1       -0.2028
     38 C          -2.3340  -17.2418   19.6742 C.ar    1  UNL1        0.0310
     39 C          -1.8430  -18.5403   19.8196 C.ar    1  UNL1        0.0033
     40 C          -2.7257  -19.6024   20.0254 C.ar    1  UNL1        0.0128
     41 C          -4.1047  -19.3713   20.0930 C.ar    1  UNL1        0.0733
     42 CL         -5.1763  -20.7368   20.3784 Cl      1  UNL1       -0.0809
@<TRIPOS>BOND
     1     1     2    1
     2     2     3   ar
     3     3    33    1
     4    33    35    1
     5    35    36   ar
     6    36    37    1
     7    36    38   ar
     8    38    39   ar
     9    39    40   ar
    10    40    41   ar
    11    41    42    1
    12     3     4   ar
    13     4     5   ar
    14     5     6   ar
    15     6    30    1
    16    30    31    1
    17     6     7   ar
    18     7    15    1
    19    15    16    2
    20    15    17   am
    21    17    19    1
    22    19    20   ar
    23    20    21   ar
    24    21    22   ar
    25    22    23    1
    26    22    24   ar
    27    24    26    1
    28    26    27    1
    29    26    28    1
    30    26    29    1
    31    24    25   ar
    32     7     8   ar
    33     8     9   ar
    34     9    10   ar
    35     9    11    1
    36    11    12    1
    37    12    13    1
    38    13    14    1
    39    10     2   ar
    40    41    35   ar
    41    10     5   ar
    42    25    19   ar
    43    14     8    1
    44    33    34    1
    45    31    32    1
    46    17    18    1
@<TRIPOS>MOLECULE
*****
 42 46 0 0 0
SMALL
GASTEIGER

@<TRIPOS>ATOM
      1 C          -8.6580  -10.2713   31.5241 C.3     1  UNL1        0.1333
      2 N          -8.9970  -11.4709   30.7583 N.ar    1  UNL1       -0.2950
      3 C         -10.0816  -12.2781   30.9022 C.ar    1  UNL1        0.2018
      4 N         -10.0791  -13.3440   30.0614 N.ar    1  UNL1       -0.2136
      5 C          -8.9369  -13.1865   29.3658 C.ar    1  UNL1        0.1016
      6 C          -8.4219  -14.0350   28.3752 C.ar    1  UNL1        0.0337
      7 C          -7.1551  -13.6968   27.8194 C.ar    1  UNL1        0.0905
      8 C          -6.4700  -12.5411   28.2721 C.ar    1  UNL1        0.1780
      9 C          -7.0188  -11.7292   29.2829 C.ar    1  UNL1        0.1896
     10 C          -8.2737  -12.0686   29.7917 C.ar    1  UNL1        0.1171
     11 O          -6.2919  -10.6288   29.7475 O.3     1  UNL1       -0.4669
     12 C          -4.9119  -10.4626   29.4155 C.3     1  UNL1        0.2527
     13 C          -4.6616  -10.8909   27.9648 C.3     1  UNL1        0.2526
     14 O          -5.2318  -12.1797   27.7253 O.3     1  UNL1       -0.4682
     15 C          -6.5285  -14.5295   26.7790 C.2     1  UNL1        0.2524
     16 O          -5.5459  -15.2570   27.0854 O.2     1  UNL1       -0.2697
     17 N          -7.0398  -14.5087   25.4368 N.am    1  UNL1       -0.2803
     18 H          -7.9480  -14.0202   25.2662 H       1  UNL1        0.1552
     19 C          -6.4345  -15.2047   24.3349 C.ar    1  UNL1        0.0506
     20 C          -6.8553  -14.9177   23.0300 C.ar    1  UNL1        0.0170
     21 C          -6.2641  -15.5583   21.9402 C.ar    1  UNL1        0.0309
     22 C          -5.2385  -16.4856   22.1398 C.ar    1  UNL1        0.1441
     23 F          -4.6700  -17.0825   21.0613 F       1  UNL1       -0.2042
     24 C          -4.7922  -16.7818   23.4414 C.ar    1  UNL1        0.1000
     25 C          -5.3843  -16.1190   24.5339 C.ar    1  UNL1        0.0208
     26 C          -3.6540  -17.7543   23.6415 C.3     1  UNL1        0.4207
     27 F          -2.4957  -17.3210   23.0191 F       1  UNL1       -0.1658
     28 F          -4.0059  -18.9844   23.1170 F       1  UNL1       -0.1658
     29 F          -3.3920  -17.8973   24.9923 F       1  UNL1       -0.1658
     30 C          -9.1481  -15.3095   28.0105 C.3     1  UNL1        0.1654
     31 O          -8.2311  -16.2838   27.5950 O.3     1  UNL1       -0.3772
     32 H          -7.7754  -16.6108   28.4144 H       1  UNL1        0.2109
     33 N         -11.0961  -12.0820   31.8996 N.pl3   1  UNL1       -0.2814
     34 H         -11.4649  -11.1187   32.0572 H       1  UNL1        0.1551
     35 C         -11.4841  -13.1173   32.8174 C.ar    1  UNL1        0.0889
     36 C         -12.5974  -13.9366   32.5437 C.ar    1  UNL1        0.1543
     37 F         -13.3387  -13.7462   31.4233 F       1  UNL1       -0.2028
     38 C         -12.9777  -14.9328   33.4478 C.ar    1  UNL1        0.0310
     39 C         -12.2629  -15.1154   34.6327 C.ar    1  UNL1        0.0033
     40 C         -11.1686  -14.2980   34.9219 C.ar    1  UNL1        0.0128
     41 C         -10.7787  -13.2966   34.0247 C.ar    1  UNL1        0.0733
     42 CL         -9.3787  -12.3075   34.4199 Cl      1  UNL1       -0.0809
@<TRIPOS>BOND
     1     1     2    1
     2     2     3   ar
     3     3    33    1
     4    33    35    1
     5    35    36   ar
     6    36    37    1
     7    36    38   ar
     8    38    39   ar
     9    39    40   ar
    10    40    41   ar
    11    41    42    1
    12     3     4   ar
    13     4     5   ar
    14     5     6   ar
    15     6    30    1
    16    30    31    1
    17     6     7   ar
    18     7    15    1
    19    15    16    2
    20    15    17   am
    21    17    19    1
    22    19    20   ar
    23    20    21   ar
    24    21    22   ar
    25    22    23    1
    26    22    24   ar
    27    24    26    1
    28    26    27    1
    29    26    28    1
    30    26    29    1
    31    24    25   ar
    32     7     8   ar
    33     8     9   ar
    34     9    10   ar
    35     9    11    1
    36    11    12    1
    37    12    13    1
    38    13    14    1
    39    10     2   ar
    40    41    35   ar
    41    10     5   ar
    42    25    19   ar
    43    14     8    1
    44    33    34    1
    45    31    32    1
    46    17    18    1
@<TRIPOS>MOLECULE
*****
 42 46 0 0 0
SMALL
GASTEIGER

@<TRIPOS>ATOM
      1 C          -8.8043  -10.3047   31.5482 C.3     1  UNL1        0.1333
      2 N          -9.1377  -11.5173   30.8007 N.ar    1  UNL1       -0.2950
      3 C         -10.2229  -12.3224   30.9510 C.ar    1  UNL1        0.2018
      4 N         -10.2143  -13.4025   30.1285 N.ar    1  UNL1       -0.2136
      5 C          -9.0675  -13.2563   29.4381 C.ar    1  UNL1        0.1016
      6 C          -8.5454  -14.1214   28.4656 C.ar    1  UNL1        0.0337
      7 C          -7.2750  -13.7920   27.9128 C.ar    1  UNL1        0.0905
      8 C          -6.5933  -12.6285   28.3503 C.ar    1  UNL1        0.1780
      9 C          -7.1494  -11.7997   29.3434 C.ar    1  UNL1        0.1896
     10 C          -8.4076  -12.1310   29.8494 C.ar    1  UNL1        0.1171
     11 O          -6.4260  -10.6913   29.7942 O.3     1  UNL1       -0.4669
     12 C          -5.0439  -10.5301   29.4688 C.3     1  UNL1        0.2527
     13 C          -4.7835  -10.9830   28.0273 C.3     1  UNL1        0.2526
     14 O          -5.3516  -12.2759   27.8059 O.3     1  UNL1       -0.4682
     15 C          -6.6410  -14.6421   26.8911 C.2     1  UNL1        0.2524
     16 O          -5.6824  -15.3895   27.2241 O.2     1  UNL1       -0.2697
     17 N          -7.1183  -14.6153   25.5365 N.am    1  UNL1       -0.2803
     18 H          -8.0111  -14.1078   25.3417 H       1  UNL1        0.1552
     19 C          -6.5010  -15.3284   24.4522 C.ar    1  UNL1        0.0506
     20 C          -5.1964  -14.9935   24.0676 C.ar    1  UNL1        0.0170
     21 C          -4.5632  -15.6893   23.0368 C.ar    1  UNL1        0.0309
     22 C          -5.2215  -16.7347   22.3847 C.ar    1  UNL1        0.1441
     23 F          -4.5768  -17.4053   21.3960 F       1  UNL1       -0.2042
     24 C          -6.5287  -17.0957   22.7614 C.ar    1  UNL1        0.1000
     25 C          -7.1538  -16.3978   23.8129 C.ar    1  UNL1        0.0208
     26 C          -7.2139  -18.2550   22.0776 C.3     1  UNL1        0.4207
     27 F          -7.3033  -18.0616   20.7096 F       1  UNL1       -0.1658
     28 F          -8.4904  -18.3986   22.5896 F       1  UNL1       -0.1658
     29 F          -6.5025  -19.4196   22.3043 F       1  UNL1       -0.1658
     30 C          -9.2687  -15.4022   28.1178 C.3     1  UNL1        0.1654
     31 O          -8.3625  -16.3454   27.6158 O.3     1  UNL1       -0.3772
     32 H          -7.8454  -16.6824   28.3936 H       1  UNL1        0.2109
     33 N         -11.2442  -12.1098   31.9379 N.pl3   1  UNL1       -0.2814
     34 H         -11.6061  -11.1421   32.0848 H       1  UNL1        0.1551
     35 C         -11.6491  -13.1345   32.8603 C.ar    1  UNL1        0.0889
     36 C         -12.7999  -13.9084   32.6111 C.ar    1  UNL1        0.1543
     37 F         -13.5612  -13.6830   31.5107 F       1  UNL1       -0.2028
     38 C         -13.1959  -14.8943   33.5198 C.ar    1  UNL1        0.0310
     39 C         -12.4592  -15.1112   34.6853 C.ar    1  UNL1        0.0033
     40 C         -11.3269  -14.3385   34.9505 C.ar    1  UNL1        0.0128
     41 C         -10.9210  -13.3479   34.0485 C.ar    1  UNL1        0.0733
     42 CL         -9.4741  -12.4162   34.4128 Cl      1  UNL1       -0.0809
@<TRIPOS>BOND
     1     1     2    1
     2     2     3   ar
     3     3    33    1
     4    33    35    1
     5    35    36   ar
     6    36    37    1
     7    36    38   ar
     8    38    39   ar
     9    39    40   ar
    10    40    41   ar
    11    41    42    1
    12     3     4   ar
    13     4     5   ar
    14     5     6   ar
    15     6    30    1
    16    30    31    1
    17     6     7   ar
    18     7    15    1
    19    15    16    2
    20    15    17   am
    21    17    19    1
    22    19    20   ar
    23    20    21   ar
    24    21    22   ar
    25    22    23    1
    26    22    24   ar
    27    24    26    1
    28    26    27    1
    29    26    28    1
    30    26    29    1
    31    24    25   ar
    32     7     8   ar
    33     8     9   ar
    34     9    10   ar
    35     9    11    1
    36    11    12    1
    37    12    13    1
    38    13    14    1
    39    10     2   ar
    40    41    35   ar
    41    10     5   ar
    42    25    19   ar
    43    14     8    1
    44    33    34    1
    45    31    32    1
    46    17    18    1
@<TRIPOS>MOLECULE
*****
 42 46 0 0 0
SMALL
GASTEIGER

@<TRIPOS>ATOM
      1 C          -6.9888  -19.0263   20.7567 C.3     1  UNL1        0.1333
      2 N          -6.3377  -18.2724   21.8282 N.ar    1  UNL1       -0.2950
      3 C          -5.0177  -18.2480   22.1530 C.ar    1  UNL1        0.2018
      4 N          -4.7405  -17.4788   23.2368 N.ar    1  UNL1       -0.2136
      5 C          -5.9487  -17.0066   23.5980 C.ar    1  UNL1        0.1016
      6 C          -6.2448  -16.1770   24.6893 C.ar    1  UNL1        0.0337
      7 C          -7.6141  -15.8564   24.9133 C.ar    1  UNL1        0.0905
      8 C          -8.6119  -16.3716   24.0480 C.ar    1  UNL1        0.1780
      9 C          -8.2678  -17.2163   22.9755 C.ar    1  UNL1        0.1896
     10 C          -6.9162  -17.4932   22.7625 C.ar    1  UNL1        0.1171
     11 O          -9.2804  -17.7540   22.1752 O.3     1  UNL1       -0.4669
     12 C         -10.6512  -17.6831   22.5727 C.3     1  UNL1        0.2527
     13 C         -10.9408  -16.3306   23.2342 C.3     1  UNL1        0.2526
     14 O          -9.9627  -16.0531   24.2391 O.3     1  UNL1       -0.4682
     15 C          -8.0256  -14.9986   26.0373 C.2     1  UNL1        0.2524
     16 O          -9.2306  -14.6398   26.1255 O.2     1  UNL1       -0.2697
     17 N          -7.0600  -14.5847   27.0169 N.am    1  UNL1       -0.2803
     18 H          -6.1165  -15.0342   26.9950 H       1  UNL1        0.1552
     19 C          -7.3424  -13.6684   28.0873 C.ar    1  UNL1        0.0506
     20 C          -6.3318  -12.8091   28.5372 C.ar    1  UNL1        0.0170
     21 C          -6.5876  -11.8899   29.5556 C.ar    1  UNL1        0.0309
     22 C          -7.8585  -11.8109   30.1300 C.ar    1  UNL1        0.1441
     23 F          -8.0847  -10.8971   31.1081 F       1  UNL1       -0.2042
     24 C          -8.8922  -12.6571   29.6867 C.ar    1  UNL1        0.1000
     25 C          -8.6288  -13.5708   28.6479 C.ar    1  UNL1        0.0208
     26 C         -10.2730  -12.5330   30.2860 C.3     1  UNL1        0.4207
     27 F         -10.7961  -13.7690   30.6257 F       1  UNL1       -0.1658
     28 F         -11.1166  -11.9308   29.3707 F       1  UNL1       -0.1658
     29 F         -10.2193  -11.7567   31.4299 F       1  UNL1       -0.1658
     30 C          -5.1500  -15.7464   25.6383 C.3     1  UNL1        0.1654
     31 O          -4.8611  -14.3879   25.4548 O.3     1  UNL1       -0.3772
     32 H          -5.6103  -13.8816   25.8651 H       1  UNL1        0.2109
     33 N          -4.0147  -19.0223   21.4770 N.pl3   1  UNL1       -0.2814
     34 H          -4.1292  -20.0583   21.4284 H       1  UNL1        0.1551
     35 C          -2.7709  -18.4541   21.0355 C.ar    1  UNL1        0.0889
     36 C          -1.5570  -19.1387   21.2433 C.ar    1  UNL1        0.1543
     37 F          -1.5368  -20.3330   21.8871 F       1  UNL1       -0.2028
     38 C          -0.3491  -18.5737   20.8237 C.ar    1  UNL1        0.0310
     39 C          -0.3370  -17.3224   20.2051 C.ar    1  UNL1        0.0033
     40 C          -1.5322  -16.6277   20.0096 C.ar    1  UNL1        0.0128
     41 C          -2.7479  -17.1830   20.4263 C.ar    1  UNL1        0.0733
     42 CL         -4.2307  -16.2821   20.1366 Cl      1  UNL1       -0.0809
@<TRIPOS>BOND
     1     1     2    1
     2     2     3   ar
     3     3    33    1
     4    33    35    1
     5    35    36   ar
     6    36    37    1
     7    36    38   ar
     8    38    39   ar
     9    39    40   ar
    10    40    41   ar
    11    41    42    1
    12     3     4   ar
    13     4     5   ar
    14     5     6   ar
    15     6    30    1
    16    30    31    1
    17     6     7   ar
    18     7    15    1
    19    15    16    2
    20    15    17   am
    21    17    19    1
    22    19    20   ar
    23    20    21   ar
    24    21    22   ar
    25    22    23    1
    26    22    24   ar
    27    24    26    1
    28    26    27    1
    29    26    28    1
    30    26    29    1
    31    24    25   ar
    32     7     8   ar
    33     8     9   ar
    34     9    10   ar
    35     9    11    1
    36    11    12    1
    37    12    13    1
    38    13    14    1
    39    10     2   ar
    40    41    35   ar
    41    10     5   ar
    42    25    19   ar
    43    14     8    1
    44    33    34    1
    45    31    32    1
    46    17    18    1
@<TRIPOS>MOLECULE
*****
 42 46 0 0 0
SMALL
GASTEIGER

@<TRIPOS>ATOM
      1 C          -9.2629  -10.0149   34.4039 C.3     1  UNL1        0.1333
      2 N          -8.5072  -10.3156   33.1878 N.ar    1  UNL1       -0.2950
      3 C          -7.3417   -9.7568   32.7660 C.ar    1  UNL1        0.2018
      4 N          -6.9205  -10.2250   31.5632 N.ar    1  UNL1       -0.2136
      5 C          -7.8733  -11.1151   31.2270 C.ar    1  UNL1        0.1016
      6 C          -7.9490  -11.8746   30.0505 C.ar    1  UNL1        0.0337
      7 C          -9.0911  -12.7086   29.8838 C.ar    1  UNL1        0.0905
      8 C         -10.0920  -12.7462   30.8872 C.ar    1  UNL1        0.1780
      9 C          -9.9813  -11.9511   32.0438 C.ar    1  UNL1        0.1896
     10 C          -8.8391  -11.1627   32.1944 C.ar    1  UNL1        0.1171
     11 O         -11.0130  -11.9676   32.9874 O.3     1  UNL1       -0.4669
     12 C         -12.2788  -12.5586   32.6866 C.3     1  UNL1        0.2527
     13 C         -12.0838  -13.8328   31.8565 C.3     1  UNL1        0.2526
     14 O         -11.2141  -13.5741   30.7520 O.3     1  UNL1       -0.4682
     15 C          -9.2643  -13.5381   28.6795 C.2     1  UNL1        0.2524
     16 O         -10.3032  -13.3947   27.9805 O.2     1  UNL1       -0.2697
     17 N          -8.2553  -14.4924   28.3126 N.am    1  UNL1       -0.2803
     18 H          -7.3445  -14.4635   28.8247 H       1  UNL1        0.1552
     19 C          -8.3811  -15.4149   27.2179 C.ar    1  UNL1        0.0506
     20 C          -8.9067  -16.6914   27.4557 C.ar    1  UNL1        0.0170
     21 C          -9.0662  -17.5964   26.4054 C.ar    1  UNL1        0.0309
     22 C          -8.7123  -17.2341   25.1036 C.ar    1  UNL1        0.1441
     23 F          -8.8924  -18.1280   24.0980 F       1  UNL1       -0.2042
     24 C          -8.1921  -15.9532   24.8394 C.ar    1  UNL1        0.1000
     25 C          -8.0491  -15.0413   25.9031 C.ar    1  UNL1        0.0208
     26 C          -7.8529  -15.5584   23.4215 C.3     1  UNL1        0.4207
     27 F          -6.9092  -16.4059   22.8666 F       1  UNL1       -0.1658
     28 F          -7.3515  -14.2698   23.4130 F       1  UNL1       -0.1658
     29 F          -8.9914  -15.6055   22.6370 F       1  UNL1       -0.1658
     30 C          -6.9047  -11.7118   28.9699 C.3     1  UNL1        0.1654
     31 O          -6.6496  -10.3522   28.7483 O.3     1  UNL1       -0.3772
     32 H          -6.1064  -10.0374   29.5176 H       1  UNL1        0.2109
     33 N          -6.6559   -8.7113   33.4723 N.pl3   1  UNL1       -0.2814
     34 H          -6.9155   -8.5229   34.4652 H       1  UNL1        0.1551
     35 C          -5.7682   -7.7919   32.8153 C.ar    1  UNL1        0.0889
     36 C          -4.4972   -7.5134   33.3560 C.ar    1  UNL1        0.1543
     37 F          -4.0986   -8.0868   34.5194 F       1  UNL1       -0.2028
     38 C          -3.6441   -6.6073   32.7191 C.ar    1  UNL1        0.0310
     39 C          -4.0505   -5.9645   31.5486 C.ar    1  UNL1        0.0033
     40 C          -5.3146   -6.2201   31.0135 C.ar    1  UNL1        0.0128
     41 C          -6.1778   -7.1249   31.6428 C.ar    1  UNL1        0.0733
     42 CL         -7.7508   -7.4339   30.9185 Cl      1  UNL1       -0.0809
@<TRIPOS>BOND
     1     1     2    1
     2     2     3   ar
     3     3    33    1
     4    33    35    1
     5    35    36   ar
     6    36    37    1
     7    36    38   ar
     8    38    39   ar
     9    39    40   ar
    10    40    41   ar
    11    41    42    1
    12     3     4   ar
    13     4     5   ar
    14     5     6   ar
    15     6    30    1
    16    30    31    1
    17     6     7   ar
    18     7    15    1
    19    15    16    2
    20    15    17   am
    21    17    19    1
    22    19    20   ar
    23    20    21   ar
    24    21    22   ar
    25    22    23    1
    26    22    24   ar
    27    24    26    1
    28    26    27    1
    29    26    28    1
    30    26    29    1
    31    24    25   ar
    32     7     8   ar
    33     8     9   ar
    34     9    10   ar
    35     9    11    1
    36    11    12    1
    37    12    13    1
    38    13    14    1
    39    10     2   ar
    40    41    35   ar
    41    10     5   ar
    42    25    19   ar
    43    14     8    1
    44    33    34    1
    45    31    32    1
    46    17    18    1
@<TRIPOS>MOLECULE
*****
 42 46 0 0 0
SMALL
GASTEIGER

@<TRIPOS>ATOM
      1 C          -5.8712  -18.9368   20.6307 C.3     1  UNL1        0.1333
      2 N          -5.4451  -18.2362   21.8424 N.ar    1  UNL1       -0.2950
      3 C          -4.2195  -18.2496   22.4308 C.ar    1  UNL1        0.2018
      4 N          -4.1618  -17.5269   23.5787 N.ar    1  UNL1       -0.2136
      5 C          -5.4130  -17.0454   23.7042 C.ar    1  UNL1        0.1016
      6 C          -5.9172  -16.2517   24.7447 C.ar    1  UNL1        0.0337
      7 C          -7.2996  -15.9133   24.6970 C.ar    1  UNL1        0.0905
      8 C          -8.1046  -16.3764   23.6259 C.ar    1  UNL1        0.1780
      9 C          -7.5574  -17.1869   22.6129 C.ar    1  UNL1        0.1896
     10 C          -6.1941  -17.4816   22.6696 C.ar    1  UNL1        0.1171
     11 O          -8.3905  -17.6746   21.6014 O.3     1  UNL1       -0.4669
     12 C          -9.8128  -17.5922   21.7129 C.3     1  UNL1        0.2527
     13 C         -10.2166  -16.2600   22.3556 C.3     1  UNL1        0.2526
     14 O          -9.4623  -16.0393   23.5496 O.3     1  UNL1       -0.4682
     15 C          -7.9231  -15.0904   25.7470 C.2     1  UNL1        0.2524
     16 O          -9.1158  -14.7103   25.6007 O.2     1  UNL1       -0.2697
     17 N          -7.1749  -14.7341   26.9204 N.am    1  UNL1       -0.2803
     18 H          -6.2529  -15.2020   27.0741 H       1  UNL1        0.1552
     19 C          -7.6604  -13.8535   27.9469 C.ar    1  UNL1        0.0506
     20 C          -8.9777  -13.9937   28.4024 C.ar    1  UNL1        0.0170
     21 C          -9.4652  -13.1705   29.4182 C.ar    1  UNL1        0.0309
     22 C          -8.6401  -12.2041   29.9986 C.ar    1  UNL1        0.1441
     23 F          -9.1347  -11.4272   30.9958 F       1  UNL1       -0.2042
     24 C          -7.3099  -12.0523   29.5643 C.ar    1  UNL1        0.1000
     25 C          -6.8221  -12.8980   28.5492 C.ar    1  UNL1        0.0208
     26 C          -6.4150  -11.0329   30.2286 C.3     1  UNL1        0.4207
     27 F          -6.2618  -11.2906   31.5802 F       1  UNL1       -0.1658
     28 F          -6.9651   -9.7734   30.0768 F       1  UNL1       -0.1658
     29 F          -5.1635  -11.0535   29.6395 F       1  UNL1       -0.1658
     30 C          -5.0354  -15.8780   25.9141 C.3     1  UNL1        0.1654
     31 O          -5.2558  -16.7565   26.9829 O.3     1  UNL1       -0.3772
     32 H          -4.8140  -17.6123   26.7412 H       1  UNL1        0.2109
     33 N          -3.1081  -19.0172   21.9432 N.pl3   1  UNL1       -0.2814
     34 H          -3.0592  -20.0330   22.1767 H       1  UNL1        0.1551
     35 C          -1.9685  -18.4085   21.3142 C.ar    1  UNL1        0.0889
     36 C          -2.0401  -17.0887   20.8257 C.ar    1  UNL1        0.1543
     37 F          -3.1926  -16.3783   20.9160 F       1  UNL1       -0.2028
     38 C          -0.9319  -16.5076   20.2022 C.ar    1  UNL1        0.0310
     39 C           0.2496  -17.2350   20.0504 C.ar    1  UNL1        0.0033
     40 C           0.3260  -18.5493   20.5154 C.ar    1  UNL1        0.0128
     41 C          -0.7773  -19.1422   21.1407 C.ar    1  UNL1        0.0733
     42 CL         -0.6264  -20.7918   21.7326 Cl      1  UNL1       -0.0809
@<TRIPOS>BOND
     1     1     2    1
     2     2     3   ar
     3     3    33    1
     4    33    35    1
     5    35    36   ar
     6    36    37    1
     7    36    38   ar
     8    38    39   ar
     9    39    40   ar
    10    40    41   ar
    11    41    42    1
    12     3     4   ar
    13     4     5   ar
    14     5     6   ar
    15     6    30    1
    16    30    31    1
    17     6     7   ar
    18     7    15    1
    19    15    16    2
    20    15    17   am
    21    17    19    1
    22    19    20   ar
    23    20    21   ar
    24    21    22   ar
    25    22    23    1
    26    22    24   ar
    27    24    26    1
    28    26    27    1
    29    26    28    1
    30    26    29    1
    31    24    25   ar
    32     7     8   ar
    33     8     9   ar
    34     9    10   ar
    35     9    11    1
    36    11    12    1
    37    12    13    1
    38    13    14    1
    39    10     2   ar
    40    41    35   ar
    41    10     5   ar
    42    25    19   ar
    43    14     8    1
    44    33    34    1
    45    31    32    1
    46    17    18    1
@<TRIPOS>MOLECULE
*****
 42 46 0 0 0
SMALL
GASTEIGER

@<TRIPOS>ATOM
      1 C          -8.4854  -10.2410   32.5141 C.3     1  UNL1        0.1333
      2 N          -8.8744  -11.2813   31.5618 N.ar    1  UNL1       -0.2950
      3 C          -9.9933  -12.0535   31.5752 C.ar    1  UNL1        0.2018
      4 N         -10.0350  -12.9644   30.5693 N.ar    1  UNL1       -0.2136
      5 C          -8.8854  -12.7432   29.9040 C.ar    1  UNL1        0.1016
      6 C          -8.4053  -13.4372   28.7839 C.ar    1  UNL1        0.0337
      7 C          -7.1238  -13.0665   28.2858 C.ar    1  UNL1        0.0905
      8 C          -6.3902  -12.0325   28.9203 C.ar    1  UNL1        0.1780
      9 C          -6.9057  -11.3765   30.0544 C.ar    1  UNL1        0.1896
     10 C          -8.1754  -11.7410   30.5060 C.ar    1  UNL1        0.1171
     11 O          -6.1328  -10.4009   30.6914 O.3     1  UNL1       -0.4669
     12 C          -4.7462  -10.2416   30.3849 C.3     1  UNL1        0.2527
     13 C          -4.5113  -10.4339   28.8820 C.3     1  UNL1        0.2526
     14 O          -5.1362  -11.6393   28.4350 O.3     1  UNL1       -0.4682
     15 C          -6.5313  -13.7415   27.1187 C.2     1  UNL1        0.2524
     16 O          -5.3023  -13.5923   26.8827 O.2     1  UNL1       -0.2697
     17 N          -7.3508  -14.5599   26.2689 N.am    1  UNL1       -0.2803
     18 H          -8.3194  -14.7846   26.5914 H       1  UNL1        0.1552
     19 C          -6.8883  -15.1731   25.0544 C.ar    1  UNL1        0.0506
     20 C          -7.5661  -14.9147   23.8560 C.ar    1  UNL1        0.0170
     21 C          -7.1208  -15.4746   22.6578 C.ar    1  UNL1        0.0309
     22 C          -5.9874  -16.2910   22.6402 C.ar    1  UNL1        0.1441
     23 F          -5.5667  -16.8100   21.4585 F       1  UNL1       -0.2042
     24 C          -5.2843  -16.5559   23.8304 C.ar    1  UNL1        0.1000
     25 C          -5.7322  -15.9741   25.0322 C.ar    1  UNL1        0.0208
     26 C          -4.0361  -17.4054   23.7917 C.3     1  UNL1        0.4207
     27 F          -3.0247  -16.7957   23.0691 F       1  UNL1       -0.1658
     28 F          -4.3291  -18.6225   23.2044 F       1  UNL1       -0.1658
     29 F          -3.5776  -17.6234   25.0786 F       1  UNL1       -0.1658
     30 C          -9.1853  -14.6010   28.2166 C.3     1  UNL1        0.1654
     31 O          -8.4580  -15.7885   28.3709 O.3     1  UNL1       -0.3772
     32 H          -8.5177  -16.0337   29.3313 H       1  UNL1        0.2109
     33 N         -11.0007  -11.9818   32.5962 N.pl3   1  UNL1       -0.2814
     34 H         -11.1081  -11.0937   33.1332 H       1  UNL1        0.1551
     35 C         -11.7328  -13.1366   33.0381 C.ar    1  UNL1        0.0889
     36 C         -11.2691  -13.9064   34.1233 C.ar    1  UNL1        0.1543
     37 F         -10.1103  -13.5879   34.7534 F       1  UNL1       -0.2028
     38 C         -11.9790  -15.0368   34.5391 C.ar    1  UNL1        0.0310
     39 C         -13.1466  -15.4160   33.8748 C.ar    1  UNL1        0.0033
     40 C         -13.6058  -14.6702   32.7875 C.ar    1  UNL1        0.0128
     41 C         -12.9030  -13.5368   32.3615 C.ar    1  UNL1        0.0733
     42 CL        -13.5331  -12.6143   31.0027 Cl      1  UNL1       -0.0809
@<TRIPOS>BOND
     1     1     2    1
     2     2     3   ar
     3     3    33    1
     4    33    35    1
     5    35    36   ar
     6    36    37    1
     7    36    38   ar
     8    38    39   ar
     9    39    40   ar
    10    40    41   ar
    11    41    42    1
    12     3     4   ar
    13     4     5   ar
    14     5     6   ar
    15     6    30    1
    16    30    31    1
    17     6     7   ar
    18     7    15    1
    19    15    16    2
    20    15    17   am
    21    17    19    1
    22    19    20   ar
    23    20    21   ar
    24    21    22   ar
    25    22    23    1
    26    22    24   ar
    27    24    26    1
    28    26    27    1
    29    26    28    1
    30    26    29    1
    31    24    25   ar
    32     7     8   ar
    33     8     9   ar
    34     9    10   ar
    35     9    11    1
    36    11    12    1
    37    12    13    1
    38    13    14    1
    39    10     2   ar
    40    41    35   ar
    41    10     5   ar
    42    25    19   ar
    43    14     8    1
    44    33    34    1
    45    31    32    1
    46    17    18    1
