@<TRIPOS>MOLECULE
*****
 51 57 0 0 0
SMALL
GASTEIGER

@<TRIPOS>ATOM
      1 C          62.6701   84.8892   14.8874 C.ar    1  UNL1        0.0481
      2 C          63.3856   85.4943   13.8390 C.ar    1  UNL1        0.0176
      3 C          64.0003   84.7156   12.8562 C.ar    1  UNL1        0.0382
      4 C          63.9052   83.3129   12.8977 C.ar    1  UNL1        0.1388
      5 C          63.2445   82.7084   13.9724 C.ar    1  UNL1        0.0382
      6 C          62.6234   83.4867   14.9538 C.ar    1  UNL1        0.0176
      7 N          62.2784   88.2449   16.4022 N.pl3   1  UNL1       -0.3041
      8 C          62.9704   87.3329   17.3315 C.3     1  UNL1        0.1122
      9 C          62.4157   85.9032   17.2054 C.3     1  UNL1        0.1122
     10 N          61.9270   85.6859   15.8357 N.pl3   1  UNL1       -0.3041
     11 C          60.8370   86.5540   15.3546 C.3     1  UNL1        0.1122
     12 C          60.8866   87.9251   16.0513 C.3     1  UNL1        0.1122
     13 C          64.7981   90.9133   14.2276 C.ar    1  UNL1        0.0699
     14 C          64.3592   91.2405   15.5221 C.ar    1  UNL1        0.0190
     15 C          63.4947   90.3869   16.2145 C.ar    1  UNL1        0.0160
     16 C          63.0514   89.1895   15.6290 C.ar    1  UNL1        0.0480
     17 C          63.4554   88.8884   14.3169 C.ar    1  UNL1        0.0160
     18 C          64.3215   89.7385   13.6270 C.ar    1  UNL1        0.0190
     19 N          66.7949   93.0477   12.0780 N.ar    1  UNL1       -0.2024
     20 N          67.6244   92.8960   13.1003 N.ar    1  UNL1       -0.1442
     21 C          66.9943   92.0914   13.9830 C.ar    1  UNL1        0.2073
     22 N          65.7662   91.7317   13.5431 N.ar    1  UNL1       -0.2398
     23 C          65.6786   92.3476   12.3479 C.ar    1  UNL1        0.3522
     24 O          64.6910   92.2619   11.5692 O.2     1  UNL1       -0.2444
     25 C          67.0703   93.8728   10.8970 C.3     1  UNL1        0.1099
     26 C          65.9437   94.8911   10.7022 C.3     1  UNL1        0.0265
     27 C          68.6749   92.5313    9.4506 C.3     1  UNL1        0.0021
     28 C          67.2301   92.9895    9.6457 C.3     1  UNL1        0.0245
     29 O          64.4401   82.4885   11.8939 O.3     1  UNL1       -0.4727
     30 C          63.7689   82.1128   10.6881 C.3     1  UNL1        0.2374
     31 C          62.3000   82.5641   10.7210 C.3     1  UNL1        0.1909
     32 C          61.4281   81.7874    9.7681 C.3     1  UNL1        0.1783
     33 O          60.6043   82.7165    9.1309 O.3     1  UNL1       -0.3266
     34 C          60.9691   83.9891    9.6314 C.3     1  UNL1        0.2314
     35 O          62.1888   83.8940   10.3307 O.3     1  UNL1       -0.3254
     36 C          59.8633   84.5305   10.5438 C.ar    1  UNL1        0.0410
     37 C          60.2209   85.1055   11.7825 C.ar    1  UNL1        0.0022
     38 C          59.2466   85.5424   12.6811 C.ar    1  UNL1        0.0113
     39 C          57.8950   85.3987   12.3732 C.ar    1  UNL1        0.0585
     40 CL         56.6734   85.9348   13.5119 Cl      1  UNL1       -0.0822
     41 C          57.5151   84.8105   11.1667 C.ar    1  UNL1        0.0226
     42 C          58.4800   84.3656   10.2544 C.ar    1  UNL1        0.0591
     43 CL         57.8838   83.5803    8.7930 Cl      1  UNL1       -0.0824
     44 C          61.1412   84.9604    8.4456 C.3     1  UNL1        0.1893
     45 N          61.1057   86.3613    8.8777 N.ar    1  UNL1       -0.2313
     46 N          62.0557   86.9510    9.5807 N.ar    1  UNL1       -0.1532
     47 C          61.6724   88.2355    9.7068 C.ar    1  UNL1        0.1604
     48 C          62.4853   89.2698   10.4070 C.3     1  UNL1        0.0756
     49 N          60.5164   88.5046    9.0617 N.ar    1  UNL1       -0.2146
     50 C          60.1914   87.2986    8.5554 C.ar    1  UNL1        0.1381
     51 C          58.9938   87.0669    7.6927 C.3     1  UNL1        0.0734
@<TRIPOS>BOND
     1    27    28    1
     2    28    25    1
     3    25    26    1
     4    25    19    1
     5    19    20   ar
     6    20    21   ar
     7    21    22   ar
     8    22    13    1
     9    13    14   ar
    10    14    15   ar
    11    15    16   ar
    12    16     7    1
    13     7     8    1
    14     8     9    1
    15     9    10    1
    16    10     1    1
    17     1     2   ar
    18     2     3   ar
    19     3     4   ar
    20     4    29    1
    21    29    30    1
    22    30    31    1
    23    31    32    1
    24    32    33    1
    25    33    34    1
    26    34    44    1
    27    44    45    1
    28    45    46   ar
    29    46    47   ar
    30    47    48    1
    31    47    49   ar
    32    49    50   ar
    33    50    51    1
    34    34    36    1
    35    36    37   ar
    36    37    38   ar
    37    38    39   ar
    38    39    40    1
    39    39    41   ar
    40    41    42   ar
    41    42    43    1
    42    34    35    1
    43     4     5   ar
    44     5     6   ar
    45    10    11    1
    46    11    12    1
    47    16    17   ar
    48    17    18   ar
    49    22    23   ar
    50    23    24    2
    51    23    19   ar
    52    18    13   ar
    53    12     7    1
    54     6     1   ar
    55    35    31    1
    56    50    45   ar
    57    42    36   ar
@<TRIPOS>MOLECULE
*****
 51 57 0 0 0
SMALL
GASTEIGER

@<TRIPOS>ATOM
      1 C          62.6762   84.7861   15.2994 C.ar    1  UNL1        0.0481
      2 C          63.7846   85.1704   14.5243 C.ar    1  UNL1        0.0176
      3 C          64.4081   84.2553   13.6734 C.ar    1  UNL1        0.0382
      4 C          63.9296   82.9364   13.5742 C.ar    1  UNL1        0.1388
      5 C          62.8647   82.5371   14.3888 C.ar    1  UNL1        0.0382
      6 C          62.2358   83.4536   15.2367 C.ar    1  UNL1        0.0176
      7 N          62.2960   88.3761   16.1217 N.pl3   1  UNL1       -0.3041
      8 C          63.0129   87.6694   17.1991 C.3     1  UNL1        0.1122
      9 C          62.4644   86.2424   17.3732 C.3     1  UNL1        0.1122
     10 N          61.9483   85.7549   16.0855 N.pl3   1  UNL1       -0.3041
     11 C          60.8432   86.5075   15.4645 C.3     1  UNL1        0.1122
     12 C          60.8991   87.9903   15.8722 C.3     1  UNL1        0.1122
     13 C          64.2638   90.7684   13.1886 C.ar    1  UNL1        0.0699
     14 C          63.8134   89.4754   12.8710 C.ar    1  UNL1        0.0190
     15 C          63.2116   88.6747   13.8468 C.ar    1  UNL1        0.0160
     16 C          63.0468   89.1485   15.1588 C.ar    1  UNL1        0.0480
     17 C          63.5402   90.4239   15.4840 C.ar    1  UNL1        0.0160
     18 C          64.1375   91.2248   14.5091 C.ar    1  UNL1        0.0190
     19 N          66.1040   92.9818   10.9799 N.ar    1  UNL1       -0.2024
     20 N          65.0046   92.7916   10.2650 N.ar    1  UNL1       -0.1442
     21 C          64.2119   91.9804   10.9979 C.ar    1  UNL1        0.2073
     22 N          64.7933   91.6405   12.1715 N.ar    1  UNL1       -0.2398
     23 C          65.9743   92.2876   12.1247 C.ar    1  UNL1        0.3522
     24 O          66.8381   92.2680   13.0426 O.2     1  UNL1       -0.2444
     25 C          67.2518   93.7850   10.5455 C.3     1  UNL1        0.1099
     26 C          66.8886   94.5654    9.2793 C.3     1  UNL1        0.0265
     27 C          68.5233   92.3603    8.8662 C.3     1  UNL1        0.0021
     28 C          68.4784   92.8868   10.3001 C.3     1  UNL1        0.0245
     29 O          64.4725   82.0001   12.6787 O.3     1  UNL1       -0.4727
     30 C          64.9546   82.2959   11.3651 C.3     1  UNL1        0.2374
     31 C          63.7857   82.5870   10.4105 C.3     1  UNL1        0.1909
     32 C          63.7687   84.0137    9.9248 C.3     1  UNL1        0.1783
     33 O          62.4430   84.4449    9.9946 O.3     1  UNL1       -0.3266
     34 C          61.6953   83.3660   10.5237 C.3     1  UNL1        0.2314
     35 O          62.5689   82.3969   11.0562 O.3     1  UNL1       -0.3254
     36 C          60.8110   82.7552    9.4314 C.ar    1  UNL1        0.0410
     37 C          60.0917   83.6161    8.5745 C.ar    1  UNL1        0.0022
     38 C          59.2145   83.1084    7.6151 C.ar    1  UNL1        0.0113
     39 C          59.0207   81.7330    7.5013 C.ar    1  UNL1        0.0585
     40 CL         57.9056   81.0995    6.3049 Cl      1  UNL1       -0.0822
     41 C          59.7003   80.8620    8.3532 C.ar    1  UNL1        0.0226
     42 C          60.5831   81.3549    9.3221 C.ar    1  UNL1        0.0591
     43 CL         61.3358   80.1660   10.3841 Cl      1  UNL1       -0.0824
     44 C          60.7831   83.8962   11.6489 C.3     1  UNL1        0.1893
     45 N          59.8443   82.8724   12.1187 N.ar    1  UNL1       -0.2313
     46 N          60.1906   81.8010   12.8092 N.ar    1  UNL1       -0.1532
     47 C          59.0395   81.1644   13.0967 C.ar    1  UNL1        0.1604
     48 C          58.9728   79.9135   13.9039 C.3     1  UNL1        0.0756
     49 N          57.9486   81.8226   12.6478 N.ar    1  UNL1       -0.2146
     50 C          58.4985   82.8904   12.0362 C.ar    1  UNL1        0.1381
     51 C          57.6929   83.9799   11.4066 C.3     1  UNL1        0.0734
@<TRIPOS>BOND
     1    27    28    1
     2    28    25    1
     3    25    26    1
     4    25    19    1
     5    19    20   ar
     6    20    21   ar
     7    21    22   ar
     8    22    13    1
     9    13    14   ar
    10    14    15   ar
    11    15    16   ar
    12    16     7    1
    13     7     8    1
    14     8     9    1
    15     9    10    1
    16    10     1    1
    17     1     2   ar
    18     2     3   ar
    19     3     4   ar
    20     4    29    1
    21    29    30    1
    22    30    31    1
    23    31    32    1
    24    32    33    1
    25    33    34    1
    26    34    44    1
    27    44    45    1
    28    45    46   ar
    29    46    47   ar
    30    47    48    1
    31    47    49   ar
    32    49    50   ar
    33    50    51    1
    34    34    36    1
    35    36    37   ar
    36    37    38   ar
    37    38    39   ar
    38    39    40    1
    39    39    41   ar
    40    41    42   ar
    41    42    43    1
    42    34    35    1
    43     4     5   ar
    44     5     6   ar
    45    10    11    1
    46    11    12    1
    47    16    17   ar
    48    17    18   ar
    49    22    23   ar
    50    23    24    2
    51    23    19   ar
    52    18    13   ar
    53    12     7    1
    54     6     1   ar
    55    35    31    1
    56    50    45   ar
    57    42    36   ar
@<TRIPOS>MOLECULE
*****
 51 57 0 0 0
SMALL
GASTEIGER

@<TRIPOS>ATOM
      1 C          62.7022   89.1611   13.4886 C.ar    1  UNL1        0.0481
      2 C          63.6675   88.2675   12.9920 C.ar    1  UNL1        0.0176
      3 C          64.1337   87.2143   13.7816 C.ar    1  UNL1        0.0382
      4 C          63.6370   87.0283   15.0843 C.ar    1  UNL1        0.1388
      5 C          62.7211   87.9514   15.6003 C.ar    1  UNL1        0.0382
      6 C          62.2490   89.0027   14.8088 C.ar    1  UNL1        0.0176
      7 N          61.3503   89.9094   10.1239 N.pl3   1  UNL1       -0.3041
      8 C          62.7121   90.4555   10.2699 C.3     1  UNL1        0.1122
      9 C          62.9464   90.9575   11.7055 C.3     1  UNL1        0.1122
     10 N          62.1225   90.1753   12.6390 N.pl3   1  UNL1       -0.3041
     11 C          60.6599   90.2207   12.4607 C.3     1  UNL1        0.1122
     12 C          60.2999   90.4716   10.9858 C.3     1  UNL1        0.1122
     13 C          60.6693   86.1207    8.2854 C.ar    1  UNL1        0.0699
     14 C          61.8740   86.3808    8.9609 C.ar    1  UNL1        0.0190
     15 C          62.1152   87.6389    9.5215 C.ar    1  UNL1        0.0160
     16 C          61.1586   88.6624    9.4197 C.ar    1  UNL1        0.0480
     17 C          59.9751   88.4129    8.7036 C.ar    1  UNL1        0.0160
     18 C          59.7326   87.1558    8.1472 C.ar    1  UNL1        0.0190
     19 N          59.5408   82.7543    7.5388 N.ar    1  UNL1       -0.2024
     20 N          60.2721   83.0047    6.4625 N.ar    1  UNL1       -0.1442
     21 C          60.7733   84.2479    6.6261 C.ar    1  UNL1        0.2073
     22 N          60.3652   84.8020    7.7912 N.ar    1  UNL1       -0.2398
     23 C          59.5978   83.8370    8.3347 C.ar    1  UNL1        0.3522
     24 O          59.0258   83.9233    9.4548 O.2     1  UNL1       -0.2444
     25 C          58.7878   81.5159    7.7648 C.3     1  UNL1        0.1099
     26 C          57.9480   81.1870    6.5277 C.3     1  UNL1        0.0265
     27 C          57.9750   80.4090    9.9051 C.3     1  UNL1        0.0021
     28 C          57.8942   81.6466    9.0122 C.3     1  UNL1        0.0245
     29 O          64.0162   85.9423   15.8906 O.3     1  UNL1       -0.4727
     30 C          63.6444   84.5790   15.6692 C.3     1  UNL1        0.2374
     31 C          62.2404   84.4928   15.0498 C.3     1  UNL1        0.1909
     32 C          61.8109   83.0755   14.7698 C.3     1  UNL1        0.1783
     33 O          61.2239   83.0775   13.5035 O.3     1  UNL1       -0.3266
     34 C          61.3176   84.4035   13.0176 C.3     1  UNL1        0.2314
     35 O          62.2078   85.1434   13.8213 O.3     1  UNL1       -0.3254
     36 C          59.9313   85.0563   13.0039 C.ar    1  UNL1        0.0410
     37 C          59.8185   86.4261   13.3262 C.ar    1  UNL1        0.0022
     38 C          58.5710   87.0471   13.4024 C.ar    1  UNL1        0.0113
     39 C          57.4081   86.3127   13.1777 C.ar    1  UNL1        0.0585
     40 CL         55.8414   87.0932   13.2897 Cl      1  UNL1       -0.0822
     41 C          57.4910   84.9518   12.8825 C.ar    1  UNL1        0.0226
     42 C          58.7347   84.3129   12.8034 C.ar    1  UNL1        0.0591
     43 CL         58.7142   82.5786   12.4880 Cl      1  UNL1       -0.0824
     44 C          61.8535   84.3677   11.5716 C.3     1  UNL1        0.1893
     45 N          62.2627   83.0168   11.1743 N.ar    1  UNL1       -0.2313
     46 N          61.4549   82.1170   10.6429 N.ar    1  UNL1       -0.1532
     47 C          62.2286   81.0505   10.3657 C.ar    1  UNL1        0.1604
     48 C          61.7161   79.8114    9.7153 C.3     1  UNL1        0.0756
     49 N          63.5306   81.2544   10.6628 N.ar    1  UNL1       -0.2146
     50 C          63.5091   82.5024   11.1714 C.ar    1  UNL1        0.1381
     51 C          64.7376   83.2296   11.6121 C.3     1  UNL1        0.0734
@<TRIPOS>BOND
     1    27    28    1
     2    28    25    1
     3    25    26    1
     4    25    19    1
     5    19    20   ar
     6    20    21   ar
     7    21    22   ar
     8    22    13    1
     9    13    14   ar
    10    14    15   ar
    11    15    16   ar
    12    16     7    1
    13     7     8    1
    14     8     9    1
    15     9    10    1
    16    10     1    1
    17     1     2   ar
    18     2     3   ar
    19     3     4   ar
    20     4    29    1
    21    29    30    1
    22    30    31    1
    23    31    32    1
    24    32    33    1
    25    33    34    1
    26    34    44    1
    27    44    45    1
    28    45    46   ar
    29    46    47   ar
    30    47    48    1
    31    47    49   ar
    32    49    50   ar
    33    50    51    1
    34    34    36    1
    35    36    37   ar
    36    37    38   ar
    37    38    39   ar
    38    39    40    1
    39    39    41   ar
    40    41    42   ar
    41    42    43    1
    42    34    35    1
    43     4     5   ar
    44     5     6   ar
    45    10    11    1
    46    11    12    1
    47    16    17   ar
    48    17    18   ar
    49    22    23   ar
    50    23    24    2
    51    23    19   ar
    52    18    13   ar
    53    12     7    1
    54     6     1   ar
    55    35    31    1
    56    50    45   ar
    57    42    36   ar
@<TRIPOS>MOLECULE
*****
 51 57 0 0 0
SMALL
GASTEIGER

@<TRIPOS>ATOM
      1 C          61.1120   80.6578   11.9824 C.ar    1  UNL1        0.0481
      2 C          60.4401   81.0814   13.1427 C.ar    1  UNL1        0.0176
      3 C          61.1420   81.6780   14.1923 C.ar    1  UNL1        0.0382
      4 C          62.5321   81.8707   14.0993 C.ar    1  UNL1        0.1388
      5 C          63.2097   81.3959   12.9712 C.ar    1  UNL1        0.0382
      6 C          62.5076   80.8039   11.9171 C.ar    1  UNL1        0.0176
      7 N          59.0558   81.5666    9.0405 N.pl3   1  UNL1       -0.3041
      8 C          58.2057   81.0500   10.1289 C.3     1  UNL1        0.1122
      9 C          58.9284   79.9317   10.9002 C.3     1  UNL1        0.1122
     10 N          60.3805   80.1558   10.8425 N.pl3   1  UNL1       -0.3041
     11 C          61.0171   80.1651    9.5129 C.3     1  UNL1        0.1122
     12 C          60.0225   80.6369    8.4377 C.3     1  UNL1        0.1122
     13 C          59.5015   85.7937    8.6781 C.ar    1  UNL1        0.0699
     14 C          58.4112   85.2476    9.3770 C.ar    1  UNL1        0.0190
     15 C          58.2407   83.8617    9.4539 C.ar    1  UNL1        0.0160
     16 C          59.1553   82.9934    8.8353 C.ar    1  UNL1        0.0480
     17 C          60.2181   83.5439    8.0986 C.ar    1  UNL1        0.0160
     18 C          60.3906   84.9272    8.0249 C.ar    1  UNL1        0.0190
     19 N          60.3777   89.2722    9.2221 N.ar    1  UNL1       -0.2024
     20 N          59.8786   89.3410    7.9965 N.ar    1  UNL1       -0.1442
     21 C          59.4922   88.0878    7.6742 C.ar    1  UNL1        0.2073
     22 N          59.7453   87.2136    8.6755 N.ar    1  UNL1       -0.2398
     23 C          60.2973   87.9920    9.6268 C.ar    1  UNL1        0.3522
     24 O          60.6688   87.5829   10.7598 O.2     1  UNL1       -0.2444
     25 C          60.9423   90.4093    9.9568 C.3     1  UNL1        0.1099
     26 C          62.4671   90.4098    9.8189 C.3     1  UNL1        0.0265
     27 C          59.0682   90.7583   11.6398 C.3     1  UNL1        0.0021
     28 C          60.5283   90.3545   11.4391 C.3     1  UNL1        0.0245
     29 O          63.2721   82.5330   15.0928 O.3     1  UNL1       -0.4727
     30 C          64.2985   83.4996   14.8525 C.3     1  UNL1        0.2374
     31 C          63.8705   84.8845   15.3637 C.3     1  UNL1        0.1909
     32 C          62.6787   84.8253   16.2844 C.3     1  UNL1        0.1783
     33 O          61.8270   85.8638   15.9045 O.3     1  UNL1       -0.3266
     34 C          62.4364   86.5005   14.7971 C.3     1  UNL1        0.2314
     35 O          63.4850   85.6984   14.3042 O.3     1  UNL1       -0.3254
     36 C          62.9589   87.8812   15.2082 C.ar    1  UNL1        0.0410
     37 C          62.8302   88.2869   16.5542 C.ar    1  UNL1        0.0022
     38 C          63.2203   89.5634   16.9615 C.ar    1  UNL1        0.0113
     39 C          63.7296   90.4697   16.0334 C.ar    1  UNL1        0.0585
     40 CL         64.2043   92.0783   16.5463 Cl      1  UNL1       -0.0822
     41 C          63.8432   90.1021   14.6924 C.ar    1  UNL1        0.0226
     42 C          63.4552   88.8257   14.2667 C.ar    1  UNL1        0.0591
     43 CL         63.5830   88.4952   12.5398 Cl      1  UNL1       -0.0824
     44 C          61.3811   86.6895   13.6880 C.3     1  UNL1        0.1893
     45 N          61.5283   85.6962   12.6194 N.ar    1  UNL1       -0.2313
     46 N          62.6273   85.5209   11.9079 N.ar    1  UNL1       -0.1532
     47 C          62.3715   84.4812   11.0916 C.ar    1  UNL1        0.1604
     48 C          63.3696   83.9229   10.1361 C.3     1  UNL1        0.0756
     49 N          61.1465   83.9471   11.2889 N.ar    1  UNL1       -0.2146
     50 C          60.6475   84.7418   12.2564 C.ar    1  UNL1        0.1381
     51 C          59.3057   84.5322   12.8792 C.3     1  UNL1        0.0734
@<TRIPOS>BOND
     1    27    28    1
     2    28    25    1
     3    25    26    1
     4    25    19    1
     5    19    20   ar
     6    20    21   ar
     7    21    22   ar
     8    22    13    1
     9    13    14   ar
    10    14    15   ar
    11    15    16   ar
    12    16     7    1
    13     7     8    1
    14     8     9    1
    15     9    10    1
    16    10     1    1
    17     1     2   ar
    18     2     3   ar
    19     3     4   ar
    20     4    29    1
    21    29    30    1
    22    30    31    1
    23    31    32    1
    24    32    33    1
    25    33    34    1
    26    34    44    1
    27    44    45    1
    28    45    46   ar
    29    46    47   ar
    30    47    48    1
    31    47    49   ar
    32    49    50   ar
    33    50    51    1
    34    34    36    1
    35    36    37   ar
    36    37    38   ar
    37    38    39   ar
    38    39    40    1
    39    39    41   ar
    40    41    42   ar
    41    42    43    1
    42    34    35    1
    43     4     5   ar
    44     5     6   ar
    45    10    11    1
    46    11    12    1
    47    16    17   ar
    48    17    18   ar
    49    22    23   ar
    50    23    24    2
    51    23    19   ar
    52    18    13   ar
    53    12     7    1
    54     6     1   ar
    55    35    31    1
    56    50    45   ar
    57    42    36   ar
@<TRIPOS>MOLECULE
*****
 51 57 0 0 0
SMALL
GASTEIGER

@<TRIPOS>ATOM
      1 C          61.9832   89.3618   12.5651 C.ar    1  UNL1        0.0481
      2 C          62.7361   89.2318   11.3847 C.ar    1  UNL1        0.0176
      3 C          62.1342   89.4008   10.1359 C.ar    1  UNL1        0.0382
      4 C          60.7656   89.7116   10.0424 C.ar    1  UNL1        0.1388
      5 C          60.0036   89.7823   11.2135 C.ar    1  UNL1        0.0382
      6 C          60.6060   89.6194   12.4646 C.ar    1  UNL1        0.0176
      7 N          62.8689   87.2124   15.4469 N.pl3   1  UNL1       -0.3041
      8 C          61.7096   88.0640   15.7709 C.3     1  UNL1        0.1122
      9 C          61.8440   89.4436   15.1029 C.3     1  UNL1        0.1122
     10 N          62.6200   89.3136   13.8607 N.pl3   1  UNL1       -0.3041
     11 C          64.0028   88.8142   13.9693 C.3     1  UNL1        0.1122
     12 C          64.1507   87.8847   15.1868 C.3     1  UNL1        0.1122
     13 C          62.3072   83.2121   14.0756 C.ar    1  UNL1        0.0699
     14 C          61.2494   84.1366   14.0346 C.ar    1  UNL1        0.0190
     15 C          61.4215   85.4334   14.5288 C.ar    1  UNL1        0.0160
     16 C          62.6530   85.8335   15.0732 C.ar    1  UNL1        0.0480
     17 C          63.6939   84.8924   15.1548 C.ar    1  UNL1        0.0160
     18 C          63.5234   83.5991   14.6581 C.ar    1  UNL1        0.0190
     19 N          61.6353   80.2127   12.1480 N.ar    1  UNL1       -0.2024
     20 N          62.4587   79.7269   13.0656 N.ar    1  UNL1       -0.1442
     21 C          62.7779   80.7609   13.8734 C.ar    1  UNL1        0.2073
     22 N          62.1758   81.9070   13.4799 N.ar    1  UNL1       -0.2398
     23 C          61.4684   81.5235   12.3992 C.ar    1  UNL1        0.3522
     24 O          60.7256   82.2850   11.7227 O.2     1  UNL1       -0.2444
     25 C          61.0599   79.4318   11.0477 C.3     1  UNL1        0.1099
     26 C          62.0029   79.4625    9.8420 C.3     1  UNL1        0.0265
     27 C          58.5501   79.2552   11.4171 C.3     1  UNL1        0.0021
     28 C          59.6702   79.9758   10.6677 C.3     1  UNL1        0.0245
     29 O          60.1298   89.9659    8.8159 O.3     1  UNL1       -0.4727
     30 C          59.4407   88.9937    8.0250 C.3     1  UNL1        0.2374
     31 C          60.1008   87.6128    8.1654 C.3     1  UNL1        0.1909
     32 C          59.7677   86.6867    7.0239 C.3     1  UNL1        0.1783
     33 O          59.4815   85.4424    7.5879 O.3     1  UNL1       -0.3266
     34 C          59.5949   85.5994    8.9899 C.3     1  UNL1        0.2314
     35 O          59.6492   86.9700    9.3128 O.3     1  UNL1       -0.3254
     36 C          60.8447   84.8737    9.4995 C.ar    1  UNL1        0.0410
     37 C          61.6398   85.4948   10.4869 C.ar    1  UNL1        0.0022
     38 C          62.8278   84.9098   10.9272 C.ar    1  UNL1        0.0113
     39 C          63.2591   83.7028   10.3798 C.ar    1  UNL1        0.0585
     40 CL         64.7607   82.9786   10.9246 Cl      1  UNL1       -0.0822
     41 C          62.5046   83.0815    9.3844 C.ar    1  UNL1        0.0226
     42 C          61.3107   83.6557    8.9304 C.ar    1  UNL1        0.0591
     43 CL         60.4754   82.8154    7.6251 Cl      1  UNL1       -0.0824
     44 C          58.3580   84.9705    9.6635 C.3     1  UNL1        0.1893
     45 N          58.2142   85.4061   11.0563 N.ar    1  UNL1       -0.2313
     46 N          58.0926   86.6650   11.4371 N.ar    1  UNL1       -0.1532
     47 C          57.9189   86.6274   12.7717 C.ar    1  UNL1        0.1604
     48 C          57.7026   87.8433   13.6059 C.3     1  UNL1        0.0756
     49 N          57.8787   85.3690   13.2611 N.ar    1  UNL1       -0.2146
     50 C          58.0708   84.6306   12.1501 C.ar    1  UNL1        0.1381
     51 C          58.0586   83.1366   12.1459 C.3     1  UNL1        0.0734
@<TRIPOS>BOND
     1    27    28    1
     2    28    25    1
     3    25    26    1
     4    25    19    1
     5    19    20   ar
     6    20    21   ar
     7    21    22   ar
     8    22    13    1
     9    13    14   ar
    10    14    15   ar
    11    15    16   ar
    12    16     7    1
    13     7     8    1
    14     8     9    1
    15     9    10    1
    16    10     1    1
    17     1     2   ar
    18     2     3   ar
    19     3     4   ar
    20     4    29    1
    21    29    30    1
    22    30    31    1
    23    31    32    1
    24    32    33    1
    25    33    34    1
    26    34    44    1
    27    44    45    1
    28    45    46   ar
    29    46    47   ar
    30    47    48    1
    31    47    49   ar
    32    49    50   ar
    33    50    51    1
    34    34    36    1
    35    36    37   ar
    36    37    38   ar
    37    38    39   ar
    38    39    40    1
    39    39    41   ar
    40    41    42   ar
    41    42    43    1
    42    34    35    1
    43     4     5   ar
    44     5     6   ar
    45    10    11    1
    46    11    12    1
    47    16    17   ar
    48    17    18   ar
    49    22    23   ar
    50    23    24    2
    51    23    19   ar
    52    18    13   ar
    53    12     7    1
    54     6     1   ar
    55    35    31    1
    56    50    45   ar
    57    42    36   ar
@<TRIPOS>MOLECULE
*****
 51 57 0 0 0
SMALL
GASTEIGER

@<TRIPOS>ATOM
      1 C          61.4276   84.4163    9.1844 C.ar    1  UNL1        0.0481
      2 C          61.1761   83.0650    9.4807 C.ar    1  UNL1        0.0176
      3 C          62.1436   82.2855   10.1184 C.ar    1  UNL1        0.0382
      4 C          63.3821   82.8451   10.4806 C.ar    1  UNL1        0.1388
      5 C          63.6555   84.1723   10.1330 C.ar    1  UNL1        0.0382
      6 C          62.6858   84.9556    9.5000 C.ar    1  UNL1        0.0176
      7 N          59.8120   87.7438    9.3475 N.pl3   1  UNL1       -0.3041
      8 C          58.9786   86.7282   10.0169 C.3     1  UNL1        0.1122
      9 C          59.0755   85.3771    9.2870 C.3     1  UNL1        0.1122
     10 N          60.3910   85.2624    8.6403 N.pl3   1  UNL1       -0.3041
     11 C          60.7383   86.2658    7.6177 C.3     1  UNL1        0.1122
     12 C          60.0226   87.5987    7.8993 C.3     1  UNL1        0.1122
     13 C          62.3996   90.0892   11.7973 C.ar    1  UNL1        0.0699
     14 C          61.1843   89.5992   12.3058 C.ar    1  UNL1        0.0190
     15 C          60.3152   88.8713   11.4871 C.ar    1  UNL1        0.0160
     16 C          60.6419   88.6173   10.1448 C.ar    1  UNL1        0.0480
     17 C          61.8361   89.1483    9.6275 C.ar    1  UNL1        0.0160
     18 C          62.7056   89.8717   10.4456 C.ar    1  UNL1        0.0190
     19 N          65.0321   91.9782   13.4298 N.ar    1  UNL1       -0.2024
     20 N          64.3708   91.5286   14.4866 N.ar    1  UNL1       -0.1442
     21 C          63.3536   90.7812   14.0069 C.ar    1  UNL1        0.2073
     22 N          63.3490   90.7527   12.6540 N.ar    1  UNL1       -0.2398
     23 C          64.4146   91.5110   12.3301 C.ar    1  UNL1        0.3522
     24 O          64.8012   91.7360   11.1515 O.2     1  UNL1       -0.2444
     25 C          66.2037   92.8584   13.4927 C.3     1  UNL1        0.1099
     26 C          67.4091   92.1632   12.8541 C.3     1  UNL1        0.0265
     27 C          67.7090   92.4858   15.5082 C.3     1  UNL1        0.0021
     28 C          66.5084   93.2494   14.9508 C.3     1  UNL1        0.0245
     29 O          64.3584   82.1262   11.1901 O.3     1  UNL1       -0.4727
     30 C          64.1598   81.4908   12.4560 C.3     1  UNL1        0.2374
     31 C          63.6486   82.5003   13.4961 C.3     1  UNL1        0.1909
     32 C          62.5988   81.9193   14.4082 C.3     1  UNL1        0.1783
     33 O          61.5946   82.8813   14.5273 O.3     1  UNL1       -0.3266
     34 C          61.9818   83.9716   13.7123 C.3     1  UNL1        0.2314
     35 O          63.0418   83.5828   12.8688 O.3     1  UNL1       -0.3254
     36 C          62.3949   85.1599   14.5873 C.ar    1  UNL1        0.0410
     37 C          62.1838   85.0872   15.9812 C.ar    1  UNL1        0.0022
     38 C          62.4720   86.1722   16.8103 C.ar    1  UNL1        0.0113
     39 C          62.9588   87.3594   16.2663 C.ar    1  UNL1        0.0585
     40 CL         63.3051   88.7260   17.3097 Cl      1  UNL1       -0.0822
     41 C          63.1521   87.4655   14.8889 C.ar    1  UNL1        0.0226
     42 C          62.8668   86.3867   14.0427 C.ar    1  UNL1        0.0591
     43 CL         63.0880   86.6571   12.3147 Cl      1  UNL1       -0.0824
     44 C          60.7786   84.3990   12.8469 C.3     1  UNL1        0.1893
     45 N          59.8395   83.2931   12.6333 N.ar    1  UNL1       -0.2313
     46 N          60.1896   82.0231   12.5380 N.ar    1  UNL1       -0.1532
     47 C          59.0385   81.3356   12.4147 C.ar    1  UNL1        0.1604
     48 C          58.9762   79.8500   12.3154 C.3     1  UNL1        0.0756
     49 N          57.9450   82.1266   12.4741 N.ar    1  UNL1       -0.2146
     50 C          58.4926   83.3508   12.6095 C.ar    1  UNL1        0.1381
     51 C          57.6849   84.5967   12.7752 C.3     1  UNL1        0.0734
@<TRIPOS>BOND
     1    27    28    1
     2    28    25    1
     3    25    26    1
     4    25    19    1
     5    19    20   ar
     6    20    21   ar
     7    21    22   ar
     8    22    13    1
     9    13    14   ar
    10    14    15   ar
    11    15    16   ar
    12    16     7    1
    13     7     8    1
    14     8     9    1
    15     9    10    1
    16    10     1    1
    17     1     2   ar
    18     2     3   ar
    19     3     4   ar
    20     4    29    1
    21    29    30    1
    22    30    31    1
    23    31    32    1
    24    32    33    1
    25    33    34    1
    26    34    44    1
    27    44    45    1
    28    45    46   ar
    29    46    47   ar
    30    47    48    1
    31    47    49   ar
    32    49    50   ar
    33    50    51    1
    34    34    36    1
    35    36    37   ar
    36    37    38   ar
    37    38    39   ar
    38    39    40    1
    39    39    41   ar
    40    41    42   ar
    41    42    43    1
    42    34    35    1
    43     4     5   ar
    44     5     6   ar
    45    10    11    1
    46    11    12    1
    47    16    17   ar
    48    17    18   ar
    49    22    23   ar
    50    23    24    2
    51    23    19   ar
    52    18    13   ar
    53    12     7    1
    54     6     1   ar
    55    35    31    1
    56    50    45   ar
    57    42    36   ar
@<TRIPOS>MOLECULE
*****
 51 57 0 0 0
SMALL
GASTEIGER

@<TRIPOS>ATOM
      1 C          58.2717   82.4033    9.9929 C.ar    1  UNL1        0.0481
      2 C          58.1744   83.0254   11.2501 C.ar    1  UNL1        0.0176
      3 C          58.2363   82.2702   12.4232 C.ar    1  UNL1        0.0382
      4 C          58.4049   80.8751   12.3627 C.ar    1  UNL1        0.1388
      5 C          58.4419   80.2490   11.1122 C.ar    1  UNL1        0.0382
      6 C          58.3862   81.0043    9.9371 C.ar    1  UNL1        0.0176
      7 N          59.5312   85.5194    8.4397 N.pl3   1  UNL1       -0.3041
      8 C          58.0904   85.6305    8.7325 C.3     1  UNL1        0.1122
      9 C          57.3861   84.2788    8.5215 C.3     1  UNL1        0.1122
     10 N          58.3351   83.1858    8.7804 N.pl3   1  UNL1       -0.3041
     11 C          59.5413   83.1152    7.9358 C.3     1  UNL1        0.1122
     12 C          59.9444   84.5172    7.4461 C.3     1  UNL1        0.1122
     13 C          62.1683   87.5305   11.1230 C.ar    1  UNL1        0.0699
     14 C          62.2467   87.7593    9.7385 C.ar    1  UNL1        0.0190
     15 C          61.4140   87.0635    8.8565 C.ar    1  UNL1        0.0160
     16 C          60.4860   86.1258    9.3388 C.ar    1  UNL1        0.0480
     17 C          60.4426   85.8660   10.7195 C.ar    1  UNL1        0.0160
     18 C          61.2712   86.5633   11.6004 C.ar    1  UNL1        0.0190
     19 N          63.9197   89.9841   13.1418 N.ar    1  UNL1       -0.2024
     20 N          64.2283   88.8734   13.7955 N.ar    1  UNL1       -0.1442
     21 C          63.6385   87.8619   13.1229 C.ar    1  UNL1        0.2073
     22 N          62.9476   88.3111   12.0496 N.ar    1  UNL1       -0.2398
     23 C          63.1489   89.6427   12.0938 C.ar    1  UNL1        0.3522
     24 O          62.6963   90.4634   11.2507 O.2     1  UNL1       -0.2444
     25 C          64.3355   91.3314   13.5458 C.3     1  UNL1        0.1099
     26 C          65.2592   91.9298   12.4815 C.3     1  UNL1        0.0265
     27 C          66.4963   91.7325   14.8252 C.3     1  UNL1        0.0021
     28 C          65.0357   91.2927   14.9170 C.3     1  UNL1        0.0245
     29 O          58.5489   80.0801   13.5118 O.3     1  UNL1       -0.4727
     30 C          59.7731   79.8639   14.2191 C.3     1  UNL1        0.2374
     31 C          60.9370   80.5880   13.5241 C.3     1  UNL1        0.1909
     32 C          62.2870   80.1156   13.9995 C.3     1  UNL1        0.1783
     33 O          63.0688   81.2570   14.1839 O.3     1  UNL1       -0.3266
     34 C          62.2435   82.3651   13.8771 C.3     1  UNL1        0.2314
     35 O          60.8989   81.9504   13.7997 O.3     1  UNL1       -0.3254
     36 C          62.6900   83.0019   12.5567 C.ar    1  UNL1        0.0410
     37 C          61.9535   82.7290   11.3837 C.ar    1  UNL1        0.0022
     38 C          62.3643   83.2227   10.1448 C.ar    1  UNL1        0.0113
     39 C          63.5280   83.9831   10.0447 C.ar    1  UNL1        0.0585
     40 CL         64.0496   84.5887    8.4835 Cl      1  UNL1       -0.0822
     41 C          64.2876   84.2456   11.1851 C.ar    1  UNL1        0.0226
     42 C          63.8901   83.7567   12.4357 C.ar    1  UNL1        0.0591
     43 CL         64.9612   84.0960   13.7942 Cl      1  UNL1       -0.0824
     44 C          62.3840   83.4164   14.9970 C.3     1  UNL1        0.1893
     45 N          61.4503   84.5328   14.8181 N.ar    1  UNL1       -0.2313
     46 N          60.3409   84.4723   14.1038 N.ar    1  UNL1       -0.1532
     47 C          59.7465   85.6714   14.2508 C.ar    1  UNL1        0.1604
     48 C          58.4353   86.0188   13.6334 C.3     1  UNL1        0.0756
     49 N          60.4219   86.4944   15.0822 N.ar    1  UNL1       -0.2146
     50 C          61.4888   85.7412   15.4153 C.ar    1  UNL1        0.1381
     51 C          62.5390   86.1876   16.3797 C.3     1  UNL1        0.0734
@<TRIPOS>BOND
     1    27    28    1
     2    28    25    1
     3    25    26    1
     4    25    19    1
     5    19    20   ar
     6    20    21   ar
     7    21    22   ar
     8    22    13    1
     9    13    14   ar
    10    14    15   ar
    11    15    16   ar
    12    16     7    1
    13     7     8    1
    14     8     9    1
    15     9    10    1
    16    10     1    1
    17     1     2   ar
    18     2     3   ar
    19     3     4   ar
    20     4    29    1
    21    29    30    1
    22    30    31    1
    23    31    32    1
    24    32    33    1
    25    33    34    1
    26    34    44    1
    27    44    45    1
    28    45    46   ar
    29    46    47   ar
    30    47    48    1
    31    47    49   ar
    32    49    50   ar
    33    50    51    1
    34    34    36    1
    35    36    37   ar
    36    37    38   ar
    37    38    39   ar
    38    39    40    1
    39    39    41   ar
    40    41    42   ar
    41    42    43    1
    42    34    35    1
    43     4     5   ar
    44     5     6   ar
    45    10    11    1
    46    11    12    1
    47    16    17   ar
    48    17    18   ar
    49    22    23   ar
    50    23    24    2
    51    23    19   ar
    52    18    13   ar
    53    12     7    1
    54     6     1   ar
    55    35    31    1
    56    50    45   ar
    57    42    36   ar
@<TRIPOS>MOLECULE
*****
 51 57 0 0 0
SMALL
GASTEIGER

@<TRIPOS>ATOM
      1 C          58.9895   81.3113   10.5930 C.ar    1  UNL1        0.0481
      2 C          59.1663   81.2853    9.1983 C.ar    1  UNL1        0.0176
      3 C          58.6868   82.3273    8.4017 C.ar    1  UNL1        0.0382
      4 C          58.0261   83.4229    8.9861 C.ar    1  UNL1        0.1388
      5 C          57.7974   83.4209   10.3662 C.ar    1  UNL1        0.0382
      6 C          58.2821   82.3814   11.1656 C.ar    1  UNL1        0.0176
      7 N          61.3224   80.6808   13.3981 N.pl3   1  UNL1       -0.3041
      8 C          61.9526   80.3355   12.1107 C.3     1  UNL1        0.1122
      9 C          60.9166   79.7445   11.1385 C.3     1  UNL1        0.1122
     10 N          59.5898   80.3039   11.4363 N.pl3   1  UNL1       -0.3041
     11 C          59.0296   80.0549   12.7770 C.3     1  UNL1        0.1122
     12 C          60.1547   79.8894   13.8137 C.3     1  UNL1        0.1122
     13 C          62.4268   84.4653   15.0280 C.ar    1  UNL1        0.0699
     14 C          63.1624   83.3097   15.3426 C.ar    1  UNL1        0.0190
     15 C          62.7705   82.0626   14.8460 C.ar    1  UNL1        0.0160
     16 C          61.6369   81.9441   14.0249 C.ar    1  UNL1        0.0480
     17 C          60.8776   83.0946   13.7505 C.ar    1  UNL1        0.0160
     18 C          61.2708   84.3401   14.2431 C.ar    1  UNL1        0.0190
     19 N          63.6661   87.8440   15.4881 N.ar    1  UNL1       -0.2024
     20 N          63.3003   87.5534   16.7282 N.ar    1  UNL1       -0.1442
     21 C          62.8261   86.2894   16.6966 C.ar    1  UNL1        0.2073
     22 N          62.8752   85.7681   15.4489 N.ar    1  UNL1       -0.2398
     23 C          63.4081   86.7694   14.7215 C.ar    1  UNL1        0.3522
     24 O          63.6574   86.7036   13.4876 O.2     1  UNL1       -0.2444
     25 C          64.2162   89.1355   15.0628 C.3     1  UNL1        0.1099
     26 C          63.5994   90.2615   15.8968 C.3     1  UNL1        0.0265
     27 C          64.0658   90.8411   13.1826 C.3     1  UNL1        0.0021
     28 C          63.9594   89.3645   13.5617 C.3     1  UNL1        0.0245
     29 O          57.5925   84.5308    8.2392 O.3     1  UNL1       -0.4727
     30 C          58.4449   85.5262    7.6663 C.3     1  UNL1        0.2374
     31 C          58.9000   86.5321    8.7357 C.3     1  UNL1        0.1909
     32 C          59.0923   87.9224    8.1864 C.3     1  UNL1        0.1783
     33 O          60.2841   88.4060    8.7285 O.3     1  UNL1       -0.3266
     34 C          60.8124   87.3676    9.5320 C.3     1  UNL1        0.2314
     35 O          60.1338   86.1628    9.2599 O.3     1  UNL1       -0.3254
     36 C          60.6873   87.7360   11.0142 C.ar    1  UNL1        0.0410
     37 C          60.2258   86.7599   11.9236 C.ar    1  UNL1        0.0022
     38 C          60.0220   87.0691   13.2692 C.ar    1  UNL1        0.0113
     39 C          60.2555   88.3621   13.7338 C.ar    1  UNL1        0.0585
     40 CL         59.9832   88.7508   15.4223 Cl      1  UNL1       -0.0822
     41 C          60.6875   89.3514   12.8502 C.ar    1  UNL1        0.0226
     42 C          60.8958   89.0582   11.4967 C.ar    1  UNL1        0.0591
     43 CL         61.3792   90.4012   10.4620 Cl      1  UNL1       -0.0824
     44 C          62.3080   87.1911    9.1984 C.3     1  UNL1        0.1893
     45 N          62.7614   85.8166    9.4339 N.ar    1  UNL1       -0.2313
     46 N          63.1681   85.3535   10.6022 N.ar    1  UNL1       -0.1532
     47 C          63.4282   84.0471   10.4062 C.ar    1  UNL1        0.1604
     48 C          63.8817   83.1290   11.4890 C.3     1  UNL1        0.0756
     49 N          63.1556   83.6400    9.1473 N.ar    1  UNL1       -0.2146
     50 C          62.7409   84.7838    8.5673 C.ar    1  UNL1        0.1381
     51 C          62.2617   84.8600    7.1542 C.3     1  UNL1        0.0734
@<TRIPOS>BOND
     1    27    28    1
     2    28    25    1
     3    25    26    1
     4    25    19    1
     5    19    20   ar
     6    20    21   ar
     7    21    22   ar
     8    22    13    1
     9    13    14   ar
    10    14    15   ar
    11    15    16   ar
    12    16     7    1
    13     7     8    1
    14     8     9    1
    15     9    10    1
    16    10     1    1
    17     1     2   ar
    18     2     3   ar
    19     3     4   ar
    20     4    29    1
    21    29    30    1
    22    30    31    1
    23    31    32    1
    24    32    33    1
    25    33    34    1
    26    34    44    1
    27    44    45    1
    28    45    46   ar
    29    46    47   ar
    30    47    48    1
    31    47    49   ar
    32    49    50   ar
    33    50    51    1
    34    34    36    1
    35    36    37   ar
    36    37    38   ar
    37    38    39   ar
    38    39    40    1
    39    39    41   ar
    40    41    42   ar
    41    42    43    1
    42    34    35    1
    43     4     5   ar
    44     5     6   ar
    45    10    11    1
    46    11    12    1
    47    16    17   ar
    48    17    18   ar
    49    22    23   ar
    50    23    24    2
    51    23    19   ar
    52    18    13   ar
    53    12     7    1
    54     6     1   ar
    55    35    31    1
    56    50    45   ar
    57    42    36   ar
@<TRIPOS>MOLECULE
*****
 51 57 0 0 0
SMALL
GASTEIGER

@<TRIPOS>ATOM
      1 C          61.3277   82.1933   12.2913 C.ar    1  UNL1        0.0481
      2 C          61.2810   82.7700   11.0098 C.ar    1  UNL1        0.0176
      3 C          60.0643   83.1757   10.4573 C.ar    1  UNL1        0.0382
      4 C          58.8678   83.0197   11.1802 C.ar    1  UNL1        0.1388
      5 C          58.9062   82.3920   12.4298 C.ar    1  UNL1        0.0382
      6 C          60.1241   81.9908   12.9868 C.ar    1  UNL1        0.0176
      7 N          64.4182   83.6008   13.7668 N.pl3   1  UNL1       -0.3041
      8 C          64.6808   83.0751   12.4144 C.3     1  UNL1        0.1122
      9 C          63.8383   81.8157   12.1467 C.3     1  UNL1        0.1122
     10 N          62.5907   81.8865   12.9216 N.pl3   1  UNL1       -0.3041
     11 C          62.7026   81.9567   14.3899 C.3     1  UNL1        0.1122
     12 C          64.0206   82.6355   14.8024 C.3     1  UNL1        0.1122
     13 C          64.1146   87.8368   14.1691 C.ar    1  UNL1        0.0699
     14 C          64.7847   87.0731   15.1403 C.ar    1  UNL1        0.0190
     15 C          64.8418   85.6801   15.0315 C.ar    1  UNL1        0.0160
     16 C          64.2318   85.0216   13.9511 C.ar    1  UNL1        0.0480
     17 C          63.5233   85.7848   13.0070 C.ar    1  UNL1        0.0160
     18 C          63.4694   87.1756   13.1134 C.ar    1  UNL1        0.0190
     19 N          64.7688   91.3993   14.3805 N.ar    1  UNL1       -0.2024
     20 N          63.4803   91.4114   14.0709 N.ar    1  UNL1       -0.1442
     21 C          63.1012   90.1188   13.9770 C.ar    1  UNL1        0.2073
     22 N          64.1335   89.2767   14.2142 N.ar    1  UNL1       -0.2398
     23 C          65.1585   90.1147   14.4646 C.ar    1  UNL1        0.3522
     24 O          66.3267   89.7473   14.7636 O.2     1  UNL1       -0.2444
     25 C          65.5952   92.5985   14.5547 C.3     1  UNL1        0.1099
     26 C          66.6468   92.6690   13.4442 C.3     1  UNL1        0.0265
     27 C          67.7846   92.7244   15.8421 C.3     1  UNL1        0.0021
     28 C          66.2650   92.5967   15.9414 C.3     1  UNL1        0.0245
     29 O          57.6297   83.4797   10.7019 O.3     1  UNL1       -0.4727
     30 C          57.0587   84.7603   10.9840 C.3     1  UNL1        0.2374
     31 C          57.7107   85.3833   12.2286 C.3     1  UNL1        0.1909
     32 C          56.8382   86.4196   12.8891 C.3     1  UNL1        0.1783
     33 O          57.6667   87.4965   13.2083 O.3     1  UNL1       -0.3266
     34 C          58.9605   87.1620   12.7422 C.3     1  UNL1        0.2314
     35 O          58.8842   86.0457   11.8854 O.3     1  UNL1       -0.3254
     36 C          59.8864   86.8712   13.9281 C.ar    1  UNL1        0.0410
     37 C          60.3670   85.5567   14.1127 C.ar    1  UNL1        0.0022
     38 C          61.1497   85.2254   15.2196 C.ar    1  UNL1        0.0113
     39 C          61.4547   86.1920   16.1762 C.ar    1  UNL1        0.0585
     40 CL         62.4256   85.7680   17.5740 Cl      1  UNL1       -0.0822
     41 C          60.9708   87.4922   16.0302 C.ar    1  UNL1        0.0226
     42 C          60.1831   87.8410   14.9261 C.ar    1  UNL1        0.0591
     43 CL         59.5743   89.4948   14.8800 Cl      1  UNL1       -0.0824
     44 C          59.5337   88.3611   11.9593 C.3     1  UNL1        0.1893
     45 N          60.6546   87.9666   11.1000 N.ar    1  UNL1       -0.2313
     46 N          60.8589   86.7403   10.6539 N.ar    1  UNL1       -0.1532
     47 C          61.9402   86.8180    9.8554 C.ar    1  UNL1        0.1604
     48 C          62.4962   85.6529    9.1108 C.3     1  UNL1        0.0756
     49 N          62.4160   88.0767    9.7360 N.ar    1  UNL1       -0.2146
     50 C          61.5807   88.7683   10.5364 C.ar    1  UNL1        0.1381
     51 C          61.6525   90.2504   10.7117 C.3     1  UNL1        0.0734
@<TRIPOS>BOND
     1    27    28    1
     2    28    25    1
     3    25    26    1
     4    25    19    1
     5    19    20   ar
     6    20    21   ar
     7    21    22   ar
     8    22    13    1
     9    13    14   ar
    10    14    15   ar
    11    15    16   ar
    12    16     7    1
    13     7     8    1
    14     8     9    1
    15     9    10    1
    16    10     1    1
    17     1     2   ar
    18     2     3   ar
    19     3     4   ar
    20     4    29    1
    21    29    30    1
    22    30    31    1
    23    31    32    1
    24    32    33    1
    25    33    34    1
    26    34    44    1
    27    44    45    1
    28    45    46   ar
    29    46    47   ar
    30    47    48    1
    31    47    49   ar
    32    49    50   ar
    33    50    51    1
    34    34    36    1
    35    36    37   ar
    36    37    38   ar
    37    38    39   ar
    38    39    40    1
    39    39    41   ar
    40    41    42   ar
    41    42    43    1
    42    34    35    1
    43     4     5   ar
    44     5     6   ar
    45    10    11    1
    46    11    12    1
    47    16    17   ar
    48    17    18   ar
    49    22    23   ar
    50    23    24    2
    51    23    19   ar
    52    18    13   ar
    53    12     7    1
    54     6     1   ar
    55    35    31    1
    56    50    45   ar
    57    42    36   ar
