@<TRIPOS>MOLECULE
*****
 40 44 0 0 0
SMALL
GASTEIGER

@<TRIPOS>ATOM
      1 C          -9.0165  -10.4166   32.1513 C.3     1  UNL1        0.1332
      2 N          -9.3441  -11.5614   31.3009 N.ar    1  UNL1       -0.2977
      3 C         -10.4214  -12.3910   31.4079 C.ar    1  UNL1        0.2018
      4 N         -10.3741  -13.4613   30.5760 N.ar    1  UNL1       -0.2135
      5 C          -9.2302  -13.2671   29.8986 C.ar    1  UNL1        0.1000
      6 C          -8.7012  -14.0855   28.8942 C.ar    1  UNL1        0.0282
      7 C          -7.4771  -13.7077   28.2895 C.ar    1  UNL1        0.0888
      8 C          -6.8737  -12.4984   28.7113 C.ar    1  UNL1        0.1409
      9 C          -7.4162  -11.7033   29.6997 C.ar    1  UNL1        0.0429
     10 C          -8.6098  -12.1160   30.3134 C.ar    1  UNL1        0.0797
     11 C          -6.6116  -10.4478   29.8286 C.3     1  UNL1        0.1200
     12 BR         -7.7197   -8.9243   29.3019 Br      1  UNL1       -0.0730
     13 C          -5.3812  -10.7379   28.8851 C.3     1  UNL1        0.1468
     14 C          -5.0889   -9.6401   27.8496 C.3     1  UNL1        0.0448
     15 C          -4.1174  -11.0011   29.7207 C.3     1  UNL1        0.0448
     16 O          -5.7217  -11.9406   28.1983 O.3     1  UNL1       -0.4815
     17 C          -6.8770  -14.5453   27.2267 C.2     1  UNL1        0.2525
     18 O          -6.4818  -15.7105   27.5046 O.2     1  UNL1       -0.2697
     19 N          -6.6865  -14.0245   25.9013 N.am    1  UNL1       -0.2803
     20 H          -6.5355  -12.9953   25.7992 H       1  UNL1        0.1552
     21 C          -6.5524  -14.8474   24.7295 C.ar    1  UNL1        0.0505
     22 C          -7.5301  -14.8468   23.7192 C.ar    1  UNL1        0.0147
     23 C          -7.3577  -15.6240   22.5722 C.ar    1  UNL1        0.0012
     24 C          -6.2109  -16.4059   22.4179 C.ar    1  UNL1        0.0039
     25 C          -5.2251  -16.4263   23.4190 C.ar    1  UNL1        0.0726
     26 C          -5.3923  -15.6193   24.5588 C.ar    1  UNL1        0.0185
     27 C          -3.9584  -17.2223   23.2279 C.3     1  UNL1        0.4186
     28 F          -3.5260  -17.7476   24.4334 F       1  UNL1       -0.1659
     29 F          -2.9747  -16.3962   22.7176 F       1  UNL1       -0.1659
     30 F          -4.1667  -18.2717   22.3494 F       1  UNL1       -0.1659
     31 N         -11.5270  -12.1806   32.2983 N.pl3   1  UNL1       -0.2814
     32 H         -11.8342  -11.1960   32.4642 H       1  UNL1        0.1551
     33 C         -12.2093  -13.2294   33.0048 C.ar    1  UNL1        0.0889
     34 C         -13.4650  -13.6548   32.5395 C.ar    1  UNL1        0.1543
     35 F         -14.0102  -13.0905   31.4326 F       1  UNL1       -0.2028
     36 C         -14.1515  -14.6808   33.1942 C.ar    1  UNL1        0.0310
     37 C         -13.6007  -15.2802   34.3277 C.ar    1  UNL1        0.0033
     38 C         -12.3674  -14.8468   34.8181 C.ar    1  UNL1        0.0128
     39 C         -11.6694  -13.8192   34.1718 C.ar    1  UNL1        0.0733
     40 CL        -10.1666  -13.2587   34.8971 Cl      1  UNL1       -0.0809
@<TRIPOS>BOND
     1     1     2    1
     2     2     3   ar
     3     3    31    1
     4    31    33    1
     5    33    34   ar
     6    34    35    1
     7    34    36   ar
     8    36    37   ar
     9    37    38   ar
    10    38    39   ar
    11    39    40    1
    12     3     4   ar
    13     4     5   ar
    14     5     6   ar
    15     6     7   ar
    16     7    17    1
    17    17    18    2
    18    17    19   am
    19    19    21    1
    20    21    22   ar
    21    22    23   ar
    22    23    24   ar
    23    24    25   ar
    24    25    27    1
    25    27    28    1
    26    27    29    1
    27    27    30    1
    28    25    26   ar
    29     7     8   ar
    30     8     9   ar
    31     9    10   ar
    32     9    11    1
    33    11    12    1
    34    11    13    1
    35    13    14    1
    36    13    15    1
    37    13    16    1
    38    10     2   ar
    39    39    33   ar
    40    10     5   ar
    41    26    21   ar
    42    16     8    1
    43    31    32    1
    44    19    20    1
@<TRIPOS>MOLECULE
*****
 40 44 0 0 0
SMALL
GASTEIGER

@<TRIPOS>ATOM
      1 C          -9.0682  -10.3845   32.2259 C.3     1  UNL1        0.1332
      2 N          -9.3857  -11.5296   31.3720 N.ar    1  UNL1       -0.2977
      3 C         -10.4577  -12.3665   31.4739 C.ar    1  UNL1        0.2018
      4 N         -10.4009  -13.4346   30.6397 N.ar    1  UNL1       -0.2135
      5 C          -9.2564  -13.2313   29.9662 C.ar    1  UNL1        0.1000
      6 C          -8.7189  -14.0438   28.9615 C.ar    1  UNL1        0.0282
      7 C          -7.4956  -13.6566   28.3613 C.ar    1  UNL1        0.0888
      8 C          -6.9015  -12.4442   28.7876 C.ar    1  UNL1        0.1409
      9 C          -7.4522  -11.6551   29.7762 C.ar    1  UNL1        0.0429
     10 C          -8.6448  -12.0770   30.3854 C.ar    1  UNL1        0.0797
     11 C          -6.6563  -10.3945   29.9103 C.3     1  UNL1        0.1200
     12 BR         -7.7730   -8.8772   29.3837 Br      1  UNL1       -0.0730
     13 C          -5.4212  -10.6743   28.9698 C.3     1  UNL1        0.1468
     14 C          -5.1332   -9.5722   27.9376 C.3     1  UNL1        0.0448
     15 C          -4.1582  -10.9310   29.8085 C.3     1  UNL1        0.0448
     16 O          -5.7517  -11.8777   28.2793 O.3     1  UNL1       -0.4815
     17 C          -6.8868  -14.4877   27.2984 C.2     1  UNL1        0.2525
     18 O          -6.5051  -15.6590   27.5695 O.2     1  UNL1       -0.2697
     19 N          -6.6729  -13.9545   25.9815 N.am    1  UNL1       -0.2803
     20 H          -6.5122  -12.9256   25.8926 H       1  UNL1        0.1552
     21 C          -6.5284  -14.7660   24.8031 C.ar    1  UNL1        0.0505
     22 C          -5.2875  -15.3211   24.4445 C.ar    1  UNL1        0.0147
     23 C          -5.1812  -16.1387   23.3177 C.ar    1  UNL1        0.0012
     24 C          -6.3076  -16.4142   22.5396 C.ar    1  UNL1        0.0039
     25 C          -7.5557  -15.8636   22.8764 C.ar    1  UNL1        0.0726
     26 C          -7.6608  -15.0639   24.0286 C.ar    1  UNL1        0.0185
     27 C          -8.7847  -16.2082   22.0731 C.3     1  UNL1        0.4186
     28 F          -9.0938  -15.1862   21.1920 F       1  UNL1       -0.1659
     29 F          -9.8505  -16.4003   22.9320 F       1  UNL1       -0.1659
     30 F          -8.5826  -17.3645   21.3394 F       1  UNL1       -0.1659
     31 N         -11.5674  -12.1655   32.3615 N.pl3   1  UNL1       -0.2814
     32 H         -11.8674  -11.1820   32.5462 H       1  UNL1        0.1551
     33 C         -12.2630  -13.2231   33.0414 C.ar    1  UNL1        0.0889
     34 C         -13.5190  -13.6282   32.5591 C.ar    1  UNL1        0.1543
     35 F         -14.0521  -13.0364   31.4606 F       1  UNL1       -0.2028
     36 C         -14.2183  -14.6618   33.1877 C.ar    1  UNL1        0.0310
     37 C         -13.6801  -15.2892   34.3120 C.ar    1  UNL1        0.0033
     38 C         -12.4466  -14.8765   34.8194 C.ar    1  UNL1        0.0128
     39 C         -11.7359  -13.8415   34.1994 C.ar    1  UNL1        0.0733
     40 CL        -10.2335  -13.3088   34.9461 Cl      1  UNL1       -0.0809
@<TRIPOS>BOND
     1     1     2    1
     2     2     3   ar
     3     3    31    1
     4    31    33    1
     5    33    34   ar
     6    34    35    1
     7    34    36   ar
     8    36    37   ar
     9    37    38   ar
    10    38    39   ar
    11    39    40    1
    12     3     4   ar
    13     4     5   ar
    14     5     6   ar
    15     6     7   ar
    16     7    17    1
    17    17    18    2
    18    17    19   am
    19    19    21    1
    20    21    22   ar
    21    22    23   ar
    22    23    24   ar
    23    24    25   ar
    24    25    27    1
    25    27    28    1
    26    27    29    1
    27    27    30    1
    28    25    26   ar
    29     7     8   ar
    30     8     9   ar
    31     9    10   ar
    32     9    11    1
    33    11    12    1
    34    11    13    1
    35    13    14    1
    36    13    15    1
    37    13    16    1
    38    10     2   ar
    39    39    33   ar
    40    10     5   ar
    41    26    21   ar
    42    16     8    1
    43    31    32    1
    44    19    20    1
@<TRIPOS>MOLECULE
*****
 40 44 0 0 0
SMALL
GASTEIGER

@<TRIPOS>ATOM
      1 C          -8.9609  -14.6611   27.5447 C.3     1  UNL1        0.1332
      2 N          -7.6010  -14.6916   27.0053 N.ar    1  UNL1       -0.2977
      3 C          -6.4942  -14.0786   27.5147 C.ar    1  UNL1        0.2018
      4 N          -5.4055  -14.1549   26.7093 N.ar    1  UNL1       -0.2135
      5 C          -5.8502  -14.8779   25.6679 C.ar    1  UNL1        0.1000
      6 C          -5.1165  -15.2629   24.5401 C.ar    1  UNL1        0.0282
      7 C          -5.7636  -16.0347   23.5440 C.ar    1  UNL1        0.0888
      8 C          -7.1120  -16.4063   23.7638 C.ar    1  UNL1        0.1409
      9 C          -7.8148  -16.0205   24.8866 C.ar    1  UNL1        0.0429
     10 C          -7.1663  -15.2230   25.8432 C.ar    1  UNL1        0.0797
     11 C          -9.1638  -16.6688   24.8787 C.3     1  UNL1        0.1200
     12 BR         -9.2813  -17.9133   26.3833 Br      1  UNL1       -0.0730
     13 C          -9.2071  -17.3390   23.4514 C.3     1  UNL1        0.1468
     14 C          -9.5886  -18.8280   23.4488 C.3     1  UNL1        0.0448
     15 C         -10.1619  -16.5657   22.5266 C.3     1  UNL1        0.0448
     16 O          -7.8821  -17.2017   22.9418 O.3     1  UNL1       -0.4815
     17 C          -5.0289  -16.4603   22.3314 C.2     1  UNL1        0.2525
     18 O          -5.2662  -15.8910   21.2311 O.2     1  UNL1       -0.2697
     19 N          -4.0954  -17.5511   22.3836 N.am    1  UNL1       -0.2803
     20 H          -4.2610  -18.3007   23.0929 H       1  UNL1        0.1552
     21 C          -3.0343  -17.7429   21.4320 C.ar    1  UNL1        0.0505
     22 C          -2.9984  -17.0279   20.2221 C.ar    1  UNL1        0.0147
     23 C          -1.9363  -17.2021   19.3326 C.ar    1  UNL1        0.0012
     24 C          -0.8994  -18.0857   19.6394 C.ar    1  UNL1        0.0039
     25 C          -0.9198  -18.8154   20.8400 C.ar    1  UNL1        0.0726
     26 C          -1.9784  -18.6139   21.7439 C.ar    1  UNL1        0.0185
     27 C           0.2282  -19.7245   21.2012 C.3     1  UNL1        0.4186
     28 F           0.8949  -19.2484   22.3169 F       1  UNL1       -0.1659
     29 F           1.1118  -19.7850   20.1400 F       1  UNL1       -0.1659
     30 F          -0.2272  -21.0012   21.4823 F       1  UNL1       -0.1659
     31 N          -6.4431  -13.4128   28.7850 N.pl3   1  UNL1       -0.2814
     32 H          -6.3339  -14.0057   29.6382 H       1  UNL1        0.1551
     33 C          -6.5730  -11.9926   28.9613 C.ar    1  UNL1        0.0889
     34 C          -5.5558  -11.1534   28.4761 C.ar    1  UNL1        0.1543
     35 F          -4.4801  -11.6816   27.8399 F       1  UNL1       -0.2028
     36 C          -5.6546   -9.7669   28.6188 C.ar    1  UNL1        0.0310
     37 C          -6.7594   -9.2057   29.2606 C.ar    1  UNL1        0.0033
     38 C          -7.7629  -10.0297   29.7737 C.ar    1  UNL1        0.0128
     39 C          -7.6758  -11.4207   29.6381 C.ar    1  UNL1        0.0733
     40 CL         -8.9275  -12.4037   30.3900 Cl      1  UNL1       -0.0809
@<TRIPOS>BOND
     1     1     2    1
     2     2     3   ar
     3     3    31    1
     4    31    33    1
     5    33    34   ar
     6    34    35    1
     7    34    36   ar
     8    36    37   ar
     9    37    38   ar
    10    38    39   ar
    11    39    40    1
    12     3     4   ar
    13     4     5   ar
    14     5     6   ar
    15     6     7   ar
    16     7    17    1
    17    17    18    2
    18    17    19   am
    19    19    21    1
    20    21    22   ar
    21    22    23   ar
    22    23    24   ar
    23    24    25   ar
    24    25    27    1
    25    27    28    1
    26    27    29    1
    27    27    30    1
    28    25    26   ar
    29     7     8   ar
    30     8     9   ar
    31     9    10   ar
    32     9    11    1
    33    11    12    1
    34    11    13    1
    35    13    14    1
    36    13    15    1
    37    13    16    1
    38    10     2   ar
    39    39    33   ar
    40    10     5   ar
    41    26    21   ar
    42    16     8    1
    43    31    32    1
    44    19    20    1
@<TRIPOS>MOLECULE
*****
 40 44 0 0 0
SMALL
GASTEIGER

@<TRIPOS>ATOM
      1 C          -9.2657  -10.7291   33.5919 C.3     1  UNL1        0.1332
      2 N          -9.5113  -11.4889   32.3657 N.ar    1  UNL1       -0.2977
      3 C         -10.6178  -12.2230   32.0541 C.ar    1  UNL1        0.2018
      4 N         -10.4923  -12.9470   30.9140 N.ar    1  UNL1       -0.2135
      5 C          -9.2631  -12.6195   30.4819 C.ar    1  UNL1        0.1000
      6 C          -8.6298  -13.0845   29.3238 C.ar    1  UNL1        0.0282
      7 C          -7.3253  -12.6157   29.0322 C.ar    1  UNL1        0.0888
      8 C          -6.7473  -11.6701   29.9134 C.ar    1  UNL1        0.1409
      9 C          -7.3924  -11.2206   31.0470 C.ar    1  UNL1        0.0429
     10 C          -8.6691  -11.7275   31.3383 C.ar    1  UNL1        0.0797
     11 C          -6.5748  -10.1471   31.6946 C.3     1  UNL1        0.1200
     12 BR         -7.5564   -8.4575   31.6054 Br      1  UNL1       -0.0730
     13 C          -5.2389  -10.1897   30.8567 C.3     1  UNL1        0.1468
     14 C          -4.7783   -8.8301   30.3069 C.3     1  UNL1        0.0448
     15 C          -4.1062  -10.8144   31.6883 C.3     1  UNL1        0.0448
     16 O          -5.5210  -11.0584   29.7613 O.3     1  UNL1       -0.4815
     17 C          -6.6144  -13.0840   27.8212 C.2     1  UNL1        0.2525
     18 O          -5.5882  -12.4656   27.4267 O.2     1  UNL1       -0.2697
     19 N          -7.1142  -14.1954   27.0601 N.am    1  UNL1       -0.2803
     20 H          -8.1450  -14.3678   27.0690 H       1  UNL1        0.1552
     21 C          -6.3024  -14.9935   26.1814 C.ar    1  UNL1        0.0505
     22 C          -5.3809  -15.9285   26.6844 C.ar    1  UNL1        0.0147
     23 C          -4.6332  -16.7203   25.8106 C.ar    1  UNL1        0.0012
     24 C          -4.7972  -16.5919   24.4298 C.ar    1  UNL1        0.0039
     25 C          -5.7076  -15.6583   23.9063 C.ar    1  UNL1        0.0726
     26 C          -6.4776  -14.8841   24.7928 C.ar    1  UNL1        0.0185
     27 C          -5.9303  -15.5601   22.4179 C.3     1  UNL1        0.4186
     28 F          -5.8704  -16.8128   21.8320 F       1  UNL1       -0.1659
     29 F          -4.9519  -14.7563   21.8636 F       1  UNL1       -0.1659
     30 F          -7.1721  -15.0136   22.1430 F       1  UNL1       -0.1659
     31 N         -11.8254  -12.2464   32.8292 N.pl3   1  UNL1       -0.2814
     32 H         -12.1602  -11.3421   33.2311 H       1  UNL1        0.1551
     33 C         -12.5780  -13.4352   33.1210 C.ar    1  UNL1        0.0889
     34 C         -13.7288  -13.7118   32.3639 C.ar    1  UNL1        0.1543
     35 F         -14.1078  -12.8739   31.3662 F       1  UNL1       -0.2028
     36 C         -14.4781  -14.8650   32.6115 C.ar    1  UNL1        0.0310
     37 C         -14.0967  -15.7437   33.6263 C.ar    1  UNL1        0.0033
     38 C         -12.9722  -15.4656   34.4057 C.ar    1  UNL1        0.0128
     39 C         -12.2131  -14.3132   34.1684 C.ar    1  UNL1        0.0733
     40 CL        -10.8643  -13.9761   35.2481 Cl      1  UNL1       -0.0809
@<TRIPOS>BOND
     1     1     2    1
     2     2     3   ar
     3     3    31    1
     4    31    33    1
     5    33    34   ar
     6    34    35    1
     7    34    36   ar
     8    36    37   ar
     9    37    38   ar
    10    38    39   ar
    11    39    40    1
    12     3     4   ar
    13     4     5   ar
    14     5     6   ar
    15     6     7   ar
    16     7    17    1
    17    17    18    2
    18    17    19   am
    19    19    21    1
    20    21    22   ar
    21    22    23   ar
    22    23    24   ar
    23    24    25   ar
    24    25    27    1
    25    27    28    1
    26    27    29    1
    27    27    30    1
    28    25    26   ar
    29     7     8   ar
    30     8     9   ar
    31     9    10   ar
    32     9    11    1
    33    11    12    1
    34    11    13    1
    35    13    14    1
    36    13    15    1
    37    13    16    1
    38    10     2   ar
    39    39    33   ar
    40    10     5   ar
    41    26    21   ar
    42    16     8    1
    43    31    32    1
    44    19    20    1
@<TRIPOS>MOLECULE
*****
 40 44 0 0 0
SMALL
GASTEIGER

@<TRIPOS>ATOM
      1 C          -9.3981   -9.8601   34.1438 C.3     1  UNL1        0.1332
      2 N          -8.5990  -10.2626   32.9860 N.ar    1  UNL1       -0.2977
      3 C          -7.4174   -9.7245   32.5681 C.ar    1  UNL1        0.2018
      4 N          -6.9920  -10.1989   31.3707 N.ar    1  UNL1       -0.2135
      5 C          -7.9375  -11.0973   31.0484 C.ar    1  UNL1        0.1000
      6 C          -7.9799  -11.8942   29.8988 C.ar    1  UNL1        0.0282
      7 C          -9.0633  -12.7928   29.7391 C.ar    1  UNL1        0.0888
      8 C         -10.0272  -12.8612   30.7738 C.ar    1  UNL1        0.1409
      9 C          -9.9625  -12.0700   31.9021 C.ar    1  UNL1        0.0429
     10 C          -8.9015  -11.1582   32.0226 C.ar    1  UNL1        0.0797
     11 C         -11.0513  -12.4630   32.8510 C.3     1  UNL1        0.1200
     12 BR        -10.2465  -13.2069   34.4713 Br      1  UNL1       -0.0730
     13 C         -11.8934  -13.4842   31.9929 C.3     1  UNL1        0.1468
     14 C         -12.1679  -14.8318   32.6795 C.3     1  UNL1        0.0448
     15 C         -13.2264  -12.8493   31.5631 C.3     1  UNL1        0.0448
     16 O         -11.1098  -13.7137   30.8235 O.3     1  UNL1       -0.4815
     17 C          -9.1529  -13.6517   28.5368 C.2     1  UNL1        0.2525
     18 O         -10.1901  -13.6089   27.8202 O.2     1  UNL1       -0.2697
     19 N          -8.0994  -14.5733   28.2127 N.am    1  UNL1       -0.2803
     20 H          -7.5336  -14.9631   29.0003 H       1  UNL1        0.1552
     21 C          -7.8702  -15.0949   26.8922 C.ar    1  UNL1        0.0505
     22 C          -6.7048  -14.7782   26.1725 C.ar    1  UNL1        0.0147
     23 C          -6.4864  -15.3295   24.9084 C.ar    1  UNL1        0.0012
     24 C          -7.4226  -16.2024   24.3502 C.ar    1  UNL1        0.0039
     25 C          -8.5974  -16.5263   25.0498 C.ar    1  UNL1        0.0726
     26 C          -8.7973  -15.9894   26.3344 C.ar    1  UNL1        0.0185
     27 C          -9.5806  -17.5153   24.4756 C.3     1  UNL1        0.4186
     28 F         -10.6476  -16.8573   23.8884 F       1  UNL1       -0.1659
     29 F         -10.0544  -18.3266   25.4895 F       1  UNL1       -0.1659
     30 F          -8.9763  -18.3042   23.5119 F       1  UNL1       -0.1659
     31 N          -6.6594   -8.7521   33.3026 N.pl3   1  UNL1       -0.2814
     32 H          -6.8053   -8.7046   34.3359 H       1  UNL1        0.1551
     33 C          -5.7471   -7.8164   32.7053 C.ar    1  UNL1        0.0889
     34 C          -4.5375   -7.5351   33.3624 C.ar    1  UNL1        0.1543
     35 F          -4.2366   -8.1521   34.5328 F       1  UNL1       -0.2028
     36 C          -3.6209   -6.6399   32.8047 C.ar    1  UNL1        0.0310
     37 C          -3.9090   -6.0047   31.5960 C.ar    1  UNL1        0.0033
     38 C          -5.1203   -6.2524   30.9474 C.ar    1  UNL1        0.0128
     39 C          -6.0477   -7.1467   31.4959 C.ar    1  UNL1        0.0733
     40 CL         -7.5928   -7.3407   30.6751 Cl      1  UNL1       -0.0809
@<TRIPOS>BOND
     1     1     2    1
     2     2     3   ar
     3     3    31    1
     4    31    33    1
     5    33    34   ar
     6    34    35    1
     7    34    36   ar
     8    36    37   ar
     9    37    38   ar
    10    38    39   ar
    11    39    40    1
    12     3     4   ar
    13     4     5   ar
    14     5     6   ar
    15     6     7   ar
    16     7    17    1
    17    17    18    2
    18    17    19   am
    19    19    21    1
    20    21    22   ar
    21    22    23   ar
    22    23    24   ar
    23    24    25   ar
    24    25    27    1
    25    27    28    1
    26    27    29    1
    27    27    30    1
    28    25    26   ar
    29     7     8   ar
    30     8     9   ar
    31     9    10   ar
    32     9    11    1
    33    11    12    1
    34    11    13    1
    35    13    14    1
    36    13    15    1
    37    13    16    1
    38    10     2   ar
    39    39    33   ar
    40    10     5   ar
    41    26    21   ar
    42    16     8    1
    43    31    32    1
    44    19    20    1
@<TRIPOS>MOLECULE
*****
 40 44 0 0 0
SMALL
GASTEIGER

@<TRIPOS>ATOM
      1 C          -9.0942  -14.5261   27.8298 C.3     1  UNL1        0.1332
      2 N          -7.7306  -14.4979   27.2998 N.ar    1  UNL1       -0.2977
      3 C          -6.6521  -13.8474   27.8232 C.ar    1  UNL1        0.2018
      4 N          -5.5558  -13.8728   27.0248 N.ar    1  UNL1       -0.2135
      5 C          -5.9649  -14.6018   25.9731 C.ar    1  UNL1        0.1000
      6 C          -5.2091  -14.9462   24.8467 C.ar    1  UNL1        0.0282
      7 C          -5.8189  -15.7323   23.8383 C.ar    1  UNL1        0.0888
      8 C          -7.1531  -16.1586   24.0448 C.ar    1  UNL1        0.1409
      9 C          -7.8780  -15.8122   25.1663 C.ar    1  UNL1        0.0429
     10 C          -7.2676  -14.9999   26.1355 C.ar    1  UNL1        0.0797
     11 C          -9.2005  -16.5125   25.1424 C.3     1  UNL1        0.1200
     12 BR         -9.2793  -17.7762   26.6335 Br      1  UNL1       -0.0730
     13 C          -9.2079  -17.1692   23.7081 C.3     1  UNL1        0.1468
     14 C          -9.5308  -18.6719   23.6879 C.3     1  UNL1        0.0448
     15 C         -10.1861  -16.4243   22.7844 C.3     1  UNL1        0.0448
     16 O          -7.8860  -16.9749   23.2094 O.3     1  UNL1       -0.4815
     17 C          -5.0600  -16.1163   22.6267 C.2     1  UNL1        0.2525
     18 O          -4.2292  -15.3058   22.1327 O.2     1  UNL1       -0.2697
     19 N          -5.3027  -17.3741   21.9763 N.am    1  UNL1       -0.2803
     20 H          -6.2600  -17.7864   22.0544 H       1  UNL1        0.1552
     21 C          -4.3541  -18.0256   21.1137 C.ar    1  UNL1        0.0505
     22 C          -4.7585  -19.0010   20.1856 C.ar    1  UNL1        0.0147
     23 C          -3.8244  -19.5900   19.3312 C.ar    1  UNL1        0.0012
     24 C          -2.4812  -19.2125   19.3897 C.ar    1  UNL1        0.0039
     25 C          -2.0550  -18.2448   20.3150 C.ar    1  UNL1        0.0726
     26 C          -3.0061  -17.6355   21.1531 C.ar    1  UNL1        0.0185
     27 C          -0.6166  -17.7919   20.3391 C.3     1  UNL1        0.4186
     28 F           0.1063  -18.4103   19.3335 F       1  UNL1       -0.1659
     29 F          -0.0577  -18.1168   21.5608 F       1  UNL1       -0.1659
     30 F          -0.5305  -16.4228   20.1536 F       1  UNL1       -0.1659
     31 N          -6.6356  -13.1933   29.1005 N.pl3   1  UNL1       -0.2814
     32 H          -6.3898  -13.7697   29.9363 H       1  UNL1        0.1551
     33 C          -6.9737  -11.8122   29.3079 C.ar    1  UNL1        0.0889
     34 C          -8.2216  -11.4970   29.8713 C.ar    1  UNL1        0.1543
     35 F          -9.0808  -12.4859   30.2248 F       1  UNL1       -0.2028
     36 C          -8.5789  -10.1653   30.0989 C.ar    1  UNL1        0.0310
     37 C          -7.7030   -9.1359   29.7518 C.ar    1  UNL1        0.0033
     38 C          -6.4722   -9.4338   29.1639 C.ar    1  UNL1        0.0128
     39 C          -6.1023  -10.7639   28.9298 C.ar    1  UNL1        0.0733
     40 CL         -4.5788  -11.0634   28.1003 Cl      1  UNL1       -0.0809
@<TRIPOS>BOND
     1     1     2    1
     2     2     3   ar
     3     3    31    1
     4    31    33    1
     5    33    34   ar
     6    34    35    1
     7    34    36   ar
     8    36    37   ar
     9    37    38   ar
    10    38    39   ar
    11    39    40    1
    12     3     4   ar
    13     4     5   ar
    14     5     6   ar
    15     6     7   ar
    16     7    17    1
    17    17    18    2
    18    17    19   am
    19    19    21    1
    20    21    22   ar
    21    22    23   ar
    22    23    24   ar
    23    24    25   ar
    24    25    27    1
    25    27    28    1
    26    27    29    1
    27    27    30    1
    28    25    26   ar
    29     7     8   ar
    30     8     9   ar
    31     9    10   ar
    32     9    11    1
    33    11    12    1
    34    11    13    1
    35    13    14    1
    36    13    15    1
    37    13    16    1
    38    10     2   ar
    39    39    33   ar
    40    10     5   ar
    41    26    21   ar
    42    16     8    1
    43    31    32    1
    44    19    20    1
@<TRIPOS>MOLECULE
*****
 40 44 0 0 0
SMALL
GASTEIGER

@<TRIPOS>ATOM
      1 C          -9.4206   -9.9351   34.2323 C.3     1  UNL1        0.1332
      2 N          -8.6580  -10.3244   33.0457 N.ar    1  UNL1       -0.2977
      3 C          -7.4867   -9.7855   32.6007 C.ar    1  UNL1        0.2018
      4 N          -7.0991  -10.2444   31.3845 N.ar    1  UNL1       -0.2135
      5 C          -8.0581  -11.1339   31.0776 C.ar    1  UNL1        0.1000
      6 C          -8.1383  -11.9140   29.9185 C.ar    1  UNL1        0.0282
      7 C          -9.2303  -12.8053   29.7781 C.ar    1  UNL1        0.0888
      8 C         -10.1635  -12.8844   30.8398 C.ar    1  UNL1        0.1409
      9 C         -10.0616  -12.1099   31.9769 C.ar    1  UNL1        0.0429
     10 C          -8.9931  -11.2046   32.0789 C.ar    1  UNL1        0.0797
     11 C         -11.1238  -12.5118   32.9519 C.3     1  UNL1        0.1200
     12 BR        -10.2750  -13.2826   34.5368 Br      1  UNL1       -0.0730
     13 C         -11.9958  -13.5168   32.1046 C.3     1  UNL1        0.1468
     14 C         -12.2564  -14.8729   32.7797 C.3     1  UNL1        0.0448
     15 C         -13.3379  -12.8699   31.7236 C.3     1  UNL1        0.0448
     16 O         -11.2483  -13.7329   30.9094 O.3     1  UNL1       -0.4815
     17 C          -9.3595  -13.6464   28.5668 C.2     1  UNL1        0.2525
     18 O         -10.2939  -13.4186   27.7506 O.2     1  UNL1       -0.2697
     19 N          -8.4706  -14.7527   28.3428 N.am    1  UNL1       -0.2803
     20 H          -8.0689  -15.2322   29.1802 H       1  UNL1        0.1552
     21 C          -8.2133  -15.3235   27.0482 C.ar    1  UNL1        0.0505
     22 C          -9.2085  -16.0276   26.3480 C.ar    1  UNL1        0.0147
     23 C          -8.9466  -16.5378   25.0750 C.ar    1  UNL1        0.0012
     24 C          -7.6945  -16.3499   24.4857 C.ar    1  UNL1        0.0039
     25 C          -6.6837  -15.6554   25.1715 C.ar    1  UNL1        0.0726
     26 C          -6.9637  -15.1201   26.4416 C.ar    1  UNL1        0.0185
     27 C          -5.3512  -15.3990   24.5132 C.3     1  UNL1        0.4186
     28 F          -4.6787  -16.5888   24.2935 F       1  UNL1       -0.1659
     29 F          -4.5853  -14.5937   25.3350 F       1  UNL1       -0.1659
     30 F          -5.5206  -14.7671   23.2932 F       1  UNL1       -0.1659
     31 N          -6.7026   -8.8272   33.3262 N.pl3   1  UNL1       -0.2814
     32 H          -6.7937   -8.8157   34.3669 H       1  UNL1        0.1551
     33 C          -5.8352   -7.8594   32.7132 C.ar    1  UNL1        0.0889
     34 C          -4.5975   -7.5800   33.3167 C.ar    1  UNL1        0.1543
     35 F          -4.2285   -8.2280   34.4502 F       1  UNL1       -0.2028
     36 C          -3.7233   -6.6539   32.7416 C.ar    1  UNL1        0.0310
     37 C          -4.0816   -5.9862   31.5698 C.ar    1  UNL1        0.0033
     38 C          -5.3210   -6.2326   30.9761 C.ar    1  UNL1        0.0128
     39 C          -6.2066   -7.1576   31.5424 C.ar    1  UNL1        0.0733
     40 CL         -7.7889   -7.3500   30.7955 Cl      1  UNL1       -0.0809
@<TRIPOS>BOND
     1     1     2    1
     2     2     3   ar
     3     3    31    1
     4    31    33    1
     5    33    34   ar
     6    34    35    1
     7    34    36   ar
     8    36    37   ar
     9    37    38   ar
    10    38    39   ar
    11    39    40    1
    12     3     4   ar
    13     4     5   ar
    14     5     6   ar
    15     6     7   ar
    16     7    17    1
    17    17    18    2
    18    17    19   am
    19    19    21    1
    20    21    22   ar
    21    22    23   ar
    22    23    24   ar
    23    24    25   ar
    24    25    27    1
    25    27    28    1
    26    27    29    1
    27    27    30    1
    28    25    26   ar
    29     7     8   ar
    30     8     9   ar
    31     9    10   ar
    32     9    11    1
    33    11    12    1
    34    11    13    1
    35    13    14    1
    36    13    15    1
    37    13    16    1
    38    10     2   ar
    39    39    33   ar
    40    10     5   ar
    41    26    21   ar
    42    16     8    1
    43    31    32    1
    44    19    20    1
@<TRIPOS>MOLECULE
*****
 40 44 0 0 0
SMALL
GASTEIGER

@<TRIPOS>ATOM
      1 C          -8.6727  -10.3496   32.3641 C.3     1  UNL1        0.1332
      2 N          -9.0909  -11.4525   31.4982 N.ar    1  UNL1       -0.2977
      3 C         -10.1816  -12.2571   31.6505 C.ar    1  UNL1        0.2018
      4 N         -10.2226  -13.2960   30.7794 N.ar    1  UNL1       -0.2135
      5 C          -9.1230  -13.1063   30.0311 C.ar    1  UNL1        0.1000
      6 C          -8.6882  -13.8998   28.9634 C.ar    1  UNL1        0.0282
      7 C          -7.4984  -13.5316   28.2885 C.ar    1  UNL1        0.0888
      8 C          -6.8328  -12.3552   28.7102 C.ar    1  UNL1        0.1409
      9 C          -7.2828  -11.5842   29.7620 C.ar    1  UNL1        0.0429
     10 C          -8.4427  -11.9884   30.4425 C.ar    1  UNL1        0.0797
     11 C          -6.4356  -10.3559   29.8793 C.3     1  UNL1        0.1200
     12 BR         -7.5331   -8.7851   29.4864 Br      1  UNL1       -0.0730
     13 C          -5.2820  -10.6423   28.8422 C.3     1  UNL1        0.1468
     14 C          -5.0304   -9.5141   27.8289 C.3     1  UNL1        0.0448
     15 C          -3.9716  -10.9698   29.5774 C.3     1  UNL1        0.0448
     16 O          -5.7034  -11.8088   28.1382 O.3     1  UNL1       -0.4815
     17 C          -6.9973  -14.3437   27.1569 C.2     1  UNL1        0.2525
     18 O          -6.0938  -15.2001   27.3607 O.2     1  UNL1       -0.2697
     19 N          -7.4857  -14.1255   25.8235 N.am    1  UNL1       -0.2803
     20 H          -7.8109  -13.1638   25.5750 H       1  UNL1        0.1552
     21 C          -7.4233  -15.1099   24.7770 C.ar    1  UNL1        0.0505
     22 C          -8.3539  -16.1612   24.7048 C.ar    1  UNL1        0.0147
     23 C          -8.2968  -17.0813   23.6562 C.ar    1  UNL1        0.0012
     24 C          -7.3164  -16.9627   22.6688 C.ar    1  UNL1        0.0039
     25 C          -6.3723  -15.9235   22.7262 C.ar    1  UNL1        0.0726
     26 C          -6.4534  -14.9841   23.7699 C.ar    1  UNL1        0.0185
     27 C          -5.3507  -15.7578   21.6293 C.3     1  UNL1        0.4186
     28 F          -5.2267  -16.9264   20.8976 F       1  UNL1       -0.1659
     29 F          -4.1268  -15.4458   22.1908 F       1  UNL1       -0.1659
     30 F          -5.7213  -14.7434   20.7633 F       1  UNL1       -0.1659
     31 N         -11.2167  -12.0516   32.6230 N.pl3   1  UNL1       -0.2814
     32 H         -11.3723  -11.0771   32.9657 H       1  UNL1        0.1551
     33 C         -12.0219  -13.1015   33.1836 C.ar    1  UNL1        0.0889
     34 C         -11.5121  -13.8449   34.2614 C.ar    1  UNL1        0.1543
     35 F         -10.2861  -13.5601   34.7683 F       1  UNL1       -0.2028
     36 C         -12.2722  -14.8650   34.8395 C.ar    1  UNL1        0.0310
     37 C         -13.5397  -15.1642   34.3381 C.ar    1  UNL1        0.0033
     38 C         -14.0462  -14.4531   33.2485 C.ar    1  UNL1        0.0128
     39 C         -13.2944  -13.4290   32.6596 C.ar    1  UNL1        0.0733
     40 CL        -13.9531  -12.6376   31.2319 Cl      1  UNL1       -0.0809
@<TRIPOS>BOND
     1     1     2    1
     2     2     3   ar
     3     3    31    1
     4    31    33    1
     5    33    34   ar
     6    34    35    1
     7    34    36   ar
     8    36    37   ar
     9    37    38   ar
    10    38    39   ar
    11    39    40    1
    12     3     4   ar
    13     4     5   ar
    14     5     6   ar
    15     6     7   ar
    16     7    17    1
    17    17    18    2
    18    17    19   am
    19    19    21    1
    20    21    22   ar
    21    22    23   ar
    22    23    24   ar
    23    24    25   ar
    24    25    27    1
    25    27    28    1
    26    27    29    1
    27    27    30    1
    28    25    26   ar
    29     7     8   ar
    30     8     9   ar
    31     9    10   ar
    32     9    11    1
    33    11    12    1
    34    11    13    1
    35    13    14    1
    36    13    15    1
    37    13    16    1
    38    10     2   ar
    39    39    33   ar
    40    10     5   ar
    41    26    21   ar
    42    16     8    1
    43    31    32    1
    44    19    20    1
@<TRIPOS>MOLECULE
*****
 40 44 0 0 0
SMALL
GASTEIGER

@<TRIPOS>ATOM
      1 C          -8.5923  -10.3680   32.4861 C.3     1  UNL1        0.1332
      2 N          -9.0632  -11.4474   31.6176 N.ar    1  UNL1       -0.2977
      3 C         -10.1625  -12.2346   31.7969 C.ar    1  UNL1        0.2018
      4 N         -10.2554  -13.2568   30.9102 N.ar    1  UNL1       -0.2135
      5 C          -9.1811  -13.0738   30.1245 C.ar    1  UNL1        0.1000
      6 C          -8.8014  -13.8557   29.0277 C.ar    1  UNL1        0.0282
      7 C          -7.6308  -13.4971   28.3150 C.ar    1  UNL1        0.0888
      8 C          -6.9279  -12.3409   28.7316 C.ar    1  UNL1        0.1409
      9 C          -7.3238  -11.5808   29.8128 C.ar    1  UNL1        0.0429
     10 C          -8.4650  -11.9759   30.5292 C.ar    1  UNL1        0.0797
     11 C          -6.4498  -10.3704   29.9193 C.3     1  UNL1        0.1200
     12 BR         -7.5314   -8.7731   29.5950 Br      1  UNL1       -0.0730
     13 C          -5.3412  -10.6591   28.8348 C.3     1  UNL1        0.1468
     14 C          -5.1063   -9.5177   27.8324 C.3     1  UNL1        0.0448
     15 C          -4.0108  -11.0236   29.5145 C.3     1  UNL1        0.0448
     16 O          -5.8105  -11.8049   28.1271 O.3     1  UNL1       -0.4815
     17 C          -7.1876  -14.2979   27.1516 C.2     1  UNL1        0.2525
     18 O          -6.0962  -14.9275   27.2119 O.2     1  UNL1       -0.2697
     19 N          -7.9559  -14.3169   25.9378 N.am    1  UNL1       -0.2803
     20 H          -8.5254  -13.4711   25.7083 H       1  UNL1        0.1552
     21 C          -7.8785  -15.3664   24.9576 C.ar    1  UNL1        0.0505
     22 C          -6.8596  -15.3895   23.9892 C.ar    1  UNL1        0.0147
     23 C          -6.7822  -16.4408   23.0736 C.ar    1  UNL1        0.0012
     24 C          -7.7147  -17.4796   23.1146 C.ar    1  UNL1        0.0039
     25 C          -8.7451  -17.4719   24.0700 C.ar    1  UNL1        0.0726
     26 C          -8.8001  -16.4243   25.0068 C.ar    1  UNL1        0.0185
     27 C          -9.7167  -18.6223   24.1551 C.3     1  UNL1        0.4186
     28 F         -10.1422  -18.8058   25.4595 F       1  UNL1       -0.1659
     29 F          -9.0946  -19.7764   23.7175 F       1  UNL1       -0.1659
     30 F         -10.8296  -18.3834   23.3673 F       1  UNL1       -0.1659
     31 N         -11.1566  -12.0277   32.8110 N.pl3   1  UNL1       -0.2814
     32 H         -11.2560  -11.0641   33.2019 H       1  UNL1        0.1551
     33 C         -11.9923  -13.0650   33.3499 C.ar    1  UNL1        0.0889
     34 C         -11.5170  -13.8250   34.4319 C.ar    1  UNL1        0.1543
     35 F         -10.2951  -13.5676   34.9628 F       1  UNL1       -0.2028
     36 C         -12.3075  -14.8335   34.9894 C.ar    1  UNL1        0.0310
     37 C         -13.5712  -15.1044   34.4632 C.ar    1  UNL1        0.0033
     38 C         -14.0436  -14.3767   33.3693 C.ar    1  UNL1        0.0128
     39 C         -13.2613  -13.3640   32.8008 C.ar    1  UNL1        0.0733
     40 CL        -13.8782  -12.5508   31.3666 Cl      1  UNL1       -0.0809
@<TRIPOS>BOND
     1     1     2    1
     2     2     3   ar
     3     3    31    1
     4    31    33    1
     5    33    34   ar
     6    34    35    1
     7    34    36   ar
     8    36    37   ar
     9    37    38   ar
    10    38    39   ar
    11    39    40    1
    12     3     4   ar
    13     4     5   ar
    14     5     6   ar
    15     6     7   ar
    16     7    17    1
    17    17    18    2
    18    17    19   am
    19    19    21    1
    20    21    22   ar
    21    22    23   ar
    22    23    24   ar
    23    24    25   ar
    24    25    27    1
    25    27    28    1
    26    27    29    1
    27    27    30    1
    28    25    26   ar
    29     7     8   ar
    30     8     9   ar
    31     9    10   ar
    32     9    11    1
    33    11    12    1
    34    11    13    1
    35    13    14    1
    36    13    15    1
    37    13    16    1
    38    10     2   ar
    39    39    33   ar
    40    10     5   ar
    41    26    21   ar
    42    16     8    1
    43    31    32    1
    44    19    20    1
