@<TRIPOS>MOLECULE
*****
 51 56 0 0 0
SMALL
GASTEIGER

@<TRIPOS>ATOM
      1 O         -60.9631  -46.7498  -25.9356 O.2     1  UNL1       -0.2701
      2 C         -62.0719  -46.1561  -26.0369 C.2     1  UNL1        0.2483
      3 N         -63.1050  -46.7084  -26.8694 N.am    1  UNL1       -0.2945
      4 H         -64.0815  -46.3705  -26.7210 H       1  UNL1        0.1501
      5 C         -62.3045  -44.9195  -25.2564 C.ar    1  UNL1        0.0808
      6 C         -62.1510  -44.9422  -23.8598 C.ar    1  UNL1        0.0080
      7 C         -62.3757  -43.7905  -23.1015 C.ar    1  UNL1        0.0148
      8 C         -62.7480  -42.5907  -23.7247 C.ar    1  UNL1        0.0502
      9 C         -62.8873  -42.5603  -25.1212 C.ar    1  UNL1        0.0443
     10 C         -62.6633  -43.7107  -25.8839 C.ar    1  UNL1        0.1457
     11 F         -62.7473  -43.6224  -27.2346 F       1  UNL1       -0.2040
     12 N         -62.9829  -41.4083  -22.9367 N.pl3   1  UNL1       -0.3040
     13 C         -64.1505  -40.5589  -23.1957 C.3     1  UNL1        0.1123
     14 C         -64.7296  -40.0374  -21.8778 C.3     1  UNL1        0.1136
     15 N         -63.6601  -39.5129  -21.0162 N.pl3   1  UNL1       -0.2897
     16 C         -62.4900  -40.3671  -20.7742 C.3     1  UNL1        0.1136
     17 C         -61.9118  -40.8568  -22.1001 C.3     1  UNL1        0.1123
     18 C         -63.8642  -38.3386  -20.2045 C.ar    1  UNL1        0.1318
     19 C         -64.9198  -38.2635  -19.2812 C.ar    1  UNL1        0.0343
     20 C         -65.0826  -37.1104  -18.5119 C.ar    1  UNL1        0.0083
     21 C         -64.2071  -36.0258  -18.6698 C.ar    1  UNL1        0.0906
     22 C         -63.1449  -36.1537  -19.5780 C.ar    1  UNL1        0.1041
     23 N         -63.0056  -37.2872  -20.3152 N.ar    1  UNL1       -0.2292
     24 C         -64.3413  -34.7955  -17.8091 C.3     1  UNL1        0.4200
     25 F         -65.3805  -33.9981  -18.2563 F       1  UNL1       -0.1658
     26 F         -64.5984  -35.1454  -16.4948 F       1  UNL1       -0.1658
     27 F         -63.1640  -34.0729  -17.8612 F       1  UNL1       -0.1658
     28 C         -62.9003  -47.9316  -27.6551 C.3     1  UNL1        0.1535
     29 C         -63.2290  -49.1552  -26.8354 C.2     1  UNL1        0.2443
     30 O         -63.8390  -50.1234  -27.3674 O.2     1  UNL1       -0.2730
     31 N         -62.8436  -49.2101  -25.4527 N.am    1  UNL1       -0.2821
     32 H         -62.4830  -48.3331  -25.0147 H       1  UNL1        0.1549
     33 C         -63.0079  -50.3738  -24.6222 C.ar    1  UNL1        0.0589
     34 C         -64.0775  -51.2605  -24.8333 C.ar    1  UNL1        0.0358
     35 C         -64.2008  -52.3994  -24.0359 C.ar    1  UNL1        0.1002
     36 N         -63.2856  -52.6551  -23.0656 N.ar    1  UNL1       -0.2417
     37 C         -62.2333  -51.8254  -22.8423 C.ar    1  UNL1        0.1059
     38 C         -62.0671  -50.6719  -23.6168 C.ar    1  UNL1        0.0542
     39 S         -60.6765  -49.5890  -23.2764 S.3     1  UNL1       -0.1387
     40 H         -61.4227  -48.8335  -22.3527 H       1  UNL1        0.1072
     41 C         -63.7041  -47.8920  -28.9713 C.3     1  UNL1        0.0569
     42 C         -63.9117  -46.5008  -29.5074 C.ar    1  UNL1       -0.0017
     43 C         -65.1342  -45.8956  -29.7855 C.ar    1  UNL1        0.0681
     44 N         -64.9476  -44.6275  -30.2164 N.ar    1  UNL1       -0.3523
     45 C         -63.6184  -44.4269  -30.2157 C.ar    1  UNL1        0.0563
     46 C         -62.9398  -43.2650  -30.5808 C.ar    1  UNL1        0.0170
     47 C         -61.5350  -43.2724  -30.5046 C.ar    1  UNL1        0.0015
     48 C         -60.8478  -44.4287  -30.0737 C.ar    1  UNL1        0.0001
     49 C         -61.5589  -45.5876  -29.7138 C.ar    1  UNL1        0.0012
     50 C         -62.9516  -45.5483  -29.7923 C.ar    1  UNL1        0.0131
     51 H         -65.6888  -43.9458  -30.4923 H       1  UNL1        0.1660
@<TRIPOS>BOND
     1     1     2    2
     2     2     3   am
     3     3    28    1
     4    28    41    1
     5    41    42    1
     6    42    43   ar
     7    43    44   ar
     8    44    45   ar
     9    45    46   ar
    10    46    47   ar
    11    47    48   ar
    12    48    49   ar
    13    49    50   ar
    14    28    29    1
    15    29    30    2
    16    29    31   am
    17    31    33    1
    18    33    34   ar
    19    34    35   ar
    20    35    36   ar
    21    36    37   ar
    22    37    38   ar
    23    38    39    1
    24     2     5    1
    25     5     6   ar
    26     6     7   ar
    27     7     8   ar
    28     8    12    1
    29    12    13    1
    30    13    14    1
    31    14    15    1
    32    15    18    1
    33    18    19   ar
    34    19    20   ar
    35    20    21   ar
    36    21    24    1
    37    24    25    1
    38    24    26    1
    39    24    27    1
    40    21    22   ar
    41    22    23   ar
    42    15    16    1
    43    16    17    1
    44     8     9   ar
    45     9    10   ar
    46    10    11    1
    47    50    42   ar
    48    38    33   ar
    49    10     5   ar
    50    50    45   ar
    51    17    12    1
    52    23    18   ar
    53     3     4    1
    54    44    51    1
    55    31    32    1
    56    39    40    1
@<TRIPOS>MOLECULE
*****
 51 56 0 0 0
SMALL
GASTEIGER

@<TRIPOS>ATOM
      1 O         -60.7808  -47.0905  -25.3878 O.2     1  UNL1       -0.2701
      2 C         -61.8977  -46.5176  -25.5154 C.2     1  UNL1        0.2483
      3 N         -62.9271  -47.1275  -26.3115 N.am    1  UNL1       -0.2945
      4 H         -63.9073  -46.7947  -26.1766 H       1  UNL1        0.1501
      5 C         -62.1431  -45.2437  -24.8017 C.ar    1  UNL1        0.0808
      6 C         -62.2675  -45.2461  -23.4021 C.ar    1  UNL1        0.0080
      7 C         -62.5101  -44.0580  -22.7082 C.ar    1  UNL1        0.0148
      8 C         -62.6226  -42.8424  -23.3981 C.ar    1  UNL1        0.0502
      9 C         -62.4836  -42.8337  -24.7949 C.ar    1  UNL1        0.0443
     10 C         -62.2407  -44.0206  -25.4933 C.ar    1  UNL1        0.1457
     11 F         -62.0505  -43.9590  -26.8347 F       1  UNL1       -0.2040
     12 N         -62.8775  -41.6219  -22.6773 N.pl3   1  UNL1       -0.3040
     13 C         -64.0171  -40.7694  -23.0330 C.3     1  UNL1        0.1123
     14 C         -64.6527  -40.1800  -21.7710 C.3     1  UNL1        0.1136
     15 N         -63.6192  -39.6312  -20.8811 N.pl3   1  UNL1       -0.2897
     16 C         -62.4765  -40.4893  -20.5419 C.3     1  UNL1        0.1136
     17 C         -61.8409  -41.0473  -21.8134 C.3     1  UNL1        0.1123
     18 C         -63.8447  -38.4181  -20.1346 C.ar    1  UNL1        0.1318
     19 C         -64.9343  -38.2923  -19.2574 C.ar    1  UNL1        0.0343
     20 C         -65.1171  -37.1027  -18.5508 C.ar    1  UNL1        0.0083
     21 C         -64.2274  -36.0324  -18.7261 C.ar    1  UNL1        0.0906
     22 C         -63.1322  -36.2104  -19.5855 C.ar    1  UNL1        0.1041
     23 N         -62.9741  -37.3786  -20.2620 N.ar    1  UNL1       -0.2292
     24 C         -64.3844  -34.7616  -17.9307 C.3     1  UNL1        0.4200
     25 F         -63.2258  -34.0063  -17.9839 F       1  UNL1       -0.1658
     26 F         -65.4233  -33.9970  -18.4329 F       1  UNL1       -0.1658
     27 F         -64.6550  -35.0797  -16.6130 F       1  UNL1       -0.1658
     28 C         -62.7098  -48.3887  -27.0309 C.3     1  UNL1        0.1535
     29 C         -62.9510  -49.5703  -26.1240 C.2     1  UNL1        0.2443
     30 O         -63.8462  -50.4118  -26.4121 O.2     1  UNL1       -0.2730
     31 N         -62.1578  -49.7301  -24.9371 N.am    1  UNL1       -0.2821
     32 H         -61.5402  -48.9360  -24.6562 H       1  UNL1        0.1549
     33 C         -62.2325  -50.8791  -24.0739 C.ar    1  UNL1        0.0589
     34 C         -63.4240  -51.6156  -23.9616 C.ar    1  UNL1        0.0358
     35 C         -63.4657  -52.7447  -23.1420 C.ar    1  UNL1        0.1002
     36 N         -62.3567  -53.1359  -22.4628 N.ar    1  UNL1       -0.2417
     37 C         -61.1856  -52.4539  -22.5576 C.ar    1  UNL1        0.1059
     38 C         -61.0947  -51.3163  -23.3673 C.ar    1  UNL1        0.0542
     39 S         -59.5363  -50.4293  -23.4489 S.3     1  UNL1       -0.1387
     40 H         -59.8894  -49.6023  -22.3663 H       1  UNL1        0.1072
     41 C         -63.5742  -48.4609  -28.3067 C.3     1  UNL1        0.0569
     42 C         -63.7555  -47.1301  -28.9864 C.ar    1  UNL1       -0.0017
     43 C         -63.2316  -45.9099  -28.5685 C.ar    1  UNL1        0.0681
     44 N         -63.5620  -44.9296  -29.4394 N.ar    1  UNL1       -0.3523
     45 C         -64.2919  -45.5188  -30.4022 C.ar    1  UNL1        0.0563
     46 C         -64.8569  -44.9125  -31.5235 C.ar    1  UNL1        0.0170
     47 C         -65.5888  -45.7229  -32.4106 C.ar    1  UNL1        0.0015
     48 C         -65.7408  -47.1043  -32.1582 C.ar    1  UNL1        0.0001
     49 C         -65.1613  -47.6882  -31.0172 C.ar    1  UNL1        0.0012
     50 C         -64.4350  -46.8612  -30.1595 C.ar    1  UNL1        0.0131
     51 H         -63.3004  -43.9208  -29.3735 H       1  UNL1        0.1660
@<TRIPOS>BOND
     1     1     2    2
     2     2     3   am
     3     3    28    1
     4    28    41    1
     5    41    42    1
     6    42    43   ar
     7    43    44   ar
     8    44    45   ar
     9    45    46   ar
    10    46    47   ar
    11    47    48   ar
    12    48    49   ar
    13    49    50   ar
    14    28    29    1
    15    29    30    2
    16    29    31   am
    17    31    33    1
    18    33    34   ar
    19    34    35   ar
    20    35    36   ar
    21    36    37   ar
    22    37    38   ar
    23    38    39    1
    24     2     5    1
    25     5     6   ar
    26     6     7   ar
    27     7     8   ar
    28     8    12    1
    29    12    13    1
    30    13    14    1
    31    14    15    1
    32    15    18    1
    33    18    19   ar
    34    19    20   ar
    35    20    21   ar
    36    21    24    1
    37    24    25    1
    38    24    26    1
    39    24    27    1
    40    21    22   ar
    41    22    23   ar
    42    15    16    1
    43    16    17    1
    44     8     9   ar
    45     9    10   ar
    46    10    11    1
    47    50    42   ar
    48    38    33   ar
    49    10     5   ar
    50    50    45   ar
    51    17    12    1
    52    23    18   ar
    53     3     4    1
    54    44    51    1
    55    31    32    1
    56    39    40    1
@<TRIPOS>MOLECULE
*****
 51 56 0 0 0
SMALL
GASTEIGER

@<TRIPOS>ATOM
      1 O         -71.2903  -54.8777  -25.1295 O.2     1  UNL1       -0.2701
      2 C         -70.9787  -55.7503  -24.2731 C.2     1  UNL1        0.2483
      3 N         -70.3143  -56.9549  -24.6890 N.am    1  UNL1       -0.2945
      4 H         -69.8229  -57.5160  -23.9587 H       1  UNL1        0.1501
      5 C         -71.2641  -55.4947  -22.8428 C.ar    1  UNL1        0.0808
      6 C         -72.3670  -56.1174  -22.2341 C.ar    1  UNL1        0.0080
      7 C         -72.6622  -55.8828  -20.8888 C.ar    1  UNL1        0.0148
      8 C         -71.8552  -55.0298  -20.1224 C.ar    1  UNL1        0.0502
      9 C         -70.7436  -54.4181  -20.7229 C.ar    1  UNL1        0.0443
     10 C         -70.4445  -54.6502  -22.0690 C.ar    1  UNL1        0.1457
     11 F         -69.3263  -54.0895  -22.5932 F       1  UNL1       -0.2040
     12 N         -72.1679  -54.7885  -18.7374 N.pl3   1  UNL1       -0.3040
     13 C         -71.6748  -55.6925  -17.6927 C.3     1  UNL1        0.1123
     14 C         -71.2744  -54.8960  -16.4479 C.3     1  UNL1        0.1136
     15 N         -72.3224  -53.9266  -16.0968 N.pl3   1  UNL1       -0.2897
     16 C         -72.8173  -53.0350  -17.1540 C.3     1  UNL1        0.1136
     17 C         -73.2349  -53.8490  -18.3768 C.3     1  UNL1        0.1123
     18 C         -72.6531  -53.6508  -14.7205 C.ar    1  UNL1        0.1318
     19 C         -73.9418  -53.2349  -14.3483 C.ar    1  UNL1        0.0343
     20 C         -74.2234  -52.9802  -13.0053 C.ar    1  UNL1        0.0083
     21 C         -73.2220  -53.1235  -12.0335 C.ar    1  UNL1        0.0906
     22 C         -71.9571  -53.5741  -12.4417 C.ar    1  UNL1        0.1041
     23 N         -71.7067  -53.8172  -13.7554 N.ar    1  UNL1       -0.2292
     24 C         -73.5269  -52.9011  -10.5741 C.3     1  UNL1        0.4200
     25 F         -73.9974  -54.0650   -9.9910 F       1  UNL1       -0.1658
     26 F         -72.3891  -52.5047   -9.8929 F       1  UNL1       -0.1658
     27 F         -74.4896  -51.9163  -10.4551 F       1  UNL1       -0.1658
     28 C         -70.0212  -57.2343  -26.1001 C.3     1  UNL1        0.1535
     29 C         -70.7705  -56.2832  -27.0007 C.2     1  UNL1        0.2443
     30 O         -70.1617  -55.3214  -27.5454 O.2     1  UNL1       -0.2730
     31 N         -72.1743  -56.4801  -27.2330 N.am    1  UNL1       -0.2821
     32 H         -72.6684  -57.1883  -26.6452 H       1  UNL1        0.1549
     33 C         -72.9484  -55.7001  -28.1622 C.ar    1  UNL1        0.0589
     34 C         -72.6445  -55.7096  -29.5341 C.ar    1  UNL1        0.0358
     35 C         -73.4271  -54.9698  -30.4221 C.ar    1  UNL1        0.1002
     36 N         -74.4841  -54.2508  -29.9637 N.ar    1  UNL1       -0.2417
     37 C         -74.8128  -54.2286  -28.6457 C.ar    1  UNL1        0.1059
     38 C         -74.0584  -54.9551  -27.7177 C.ar    1  UNL1        0.0542
     39 S         -74.5109  -54.8826  -25.9821 S.3     1  UNL1       -0.1387
     40 H         -73.6765  -53.7719  -25.7563 H       1  UNL1        0.1072
     41 C         -68.5030  -57.2037  -26.3727 C.3     1  UNL1        0.0569
     42 C         -67.7709  -56.1539  -25.5805 C.ar    1  UNL1       -0.0017
     43 C         -67.3885  -54.8939  -26.0322 C.ar    1  UNL1        0.0681
     44 N         -66.7847  -54.1988  -25.0418 N.ar    1  UNL1       -0.3523
     45 C         -66.7798  -55.0091  -23.9692 C.ar    1  UNL1        0.0563
     46 C         -66.2647  -54.7313  -22.7037 C.ar    1  UNL1        0.0170
     47 C         -66.3654  -55.7310  -21.7188 C.ar    1  UNL1        0.0015
     48 C         -66.9683  -56.9727  -22.0185 C.ar    1  UNL1        0.0001
     49 C         -67.4772  -57.2257  -23.3051 C.ar    1  UNL1        0.0012
     50 C         -67.3699  -56.2129  -24.2591 C.ar    1  UNL1        0.0131
     51 H         -66.4018  -53.2292  -25.1023 H       1  UNL1        0.1660
@<TRIPOS>BOND
     1     1     2    2
     2     2     3   am
     3     3    28    1
     4    28    41    1
     5    41    42    1
     6    42    43   ar
     7    43    44   ar
     8    44    45   ar
     9    45    46   ar
    10    46    47   ar
    11    47    48   ar
    12    48    49   ar
    13    49    50   ar
    14    28    29    1
    15    29    30    2
    16    29    31   am
    17    31    33    1
    18    33    34   ar
    19    34    35   ar
    20    35    36   ar
    21    36    37   ar
    22    37    38   ar
    23    38    39    1
    24     2     5    1
    25     5     6   ar
    26     6     7   ar
    27     7     8   ar
    28     8    12    1
    29    12    13    1
    30    13    14    1
    31    14    15    1
    32    15    18    1
    33    18    19   ar
    34    19    20   ar
    35    20    21   ar
    36    21    24    1
    37    24    25    1
    38    24    26    1
    39    24    27    1
    40    21    22   ar
    41    22    23   ar
    42    15    16    1
    43    16    17    1
    44     8     9   ar
    45     9    10   ar
    46    10    11    1
    47    50    42   ar
    48    38    33   ar
    49    10     5   ar
    50    50    45   ar
    51    17    12    1
    52    23    18   ar
    53     3     4    1
    54    44    51    1
    55    31    32    1
    56    39    40    1
@<TRIPOS>MOLECULE
*****
 51 56 0 0 0
SMALL
GASTEIGER

@<TRIPOS>ATOM
      1 O         -60.6698  -47.0805  -24.8548 O.2     1  UNL1       -0.2701
      2 C         -61.7496  -46.4584  -25.0519 C.2     1  UNL1        0.2483
      3 N         -62.7021  -46.9631  -26.0025 N.am    1  UNL1       -0.2945
      4 H         -63.6816  -46.6065  -25.9454 H       1  UNL1        0.1501
      5 C         -62.0365  -45.2386  -24.2629 C.ar    1  UNL1        0.0808
      6 C         -62.1983  -45.3359  -22.8705 C.ar    1  UNL1        0.0080
      7 C         -62.4801  -44.2005  -22.1068 C.ar    1  UNL1        0.0148
      8 C         -62.5954  -42.9437  -22.7180 C.ar    1  UNL1        0.0502
      9 C         -62.4192  -42.8401  -24.1068 C.ar    1  UNL1        0.0443
     10 C         -62.1369  -43.9740  -24.8748 C.ar    1  UNL1        0.1457
     11 F         -61.9118  -43.8205  -26.2034 F       1  UNL1       -0.2040
     12 N         -62.8910  -41.7779  -21.9257 N.pl3   1  UNL1       -0.3040
     13 C         -61.8217  -41.0674  -21.2160 C.3     1  UNL1        0.1123
     14 C         -62.0632  -39.5564  -21.2687 C.3     1  UNL1        0.1136
     15 N         -63.4582  -39.2448  -20.9250 N.pl3   1  UNL1       -0.2897
     16 C         -64.5203  -39.9714  -21.6331 C.3     1  UNL1        0.1136
     17 C         -64.2758  -41.4765  -21.5481 C.3     1  UNL1        0.1123
     18 C         -63.7918  -38.0793  -20.1440 C.ar    1  UNL1        0.1318
     19 C         -62.9680  -36.9419  -20.1411 C.ar    1  UNL1        0.0343
     20 C         -63.3266  -35.8325  -19.3739 C.ar    1  UNL1        0.0083
     21 C         -64.4948  -35.8575  -18.5976 C.ar    1  UNL1        0.0906
     22 C         -65.3083  -36.9997  -18.6548 C.ar    1  UNL1        0.1041
     23 N         -64.9392  -38.0675  -19.4104 N.ar    1  UNL1       -0.2292
     24 C         -64.9196  -34.6476  -17.8053 C.3     1  UNL1        0.4200
     25 F         -63.9606  -33.6525  -17.8823 F       1  UNL1       -0.1658
     26 F         -66.1113  -34.1392  -18.2924 F       1  UNL1       -0.1658
     27 F         -65.0906  -35.0073  -16.4815 F       1  UNL1       -0.1658
     28 C         -62.4423  -48.1686  -26.7991 C.3     1  UNL1        0.1535
     29 C         -62.8726  -49.4068  -26.0516 C.2     1  UNL1        0.2443
     30 O         -63.7741  -50.1488  -26.5302 O.2     1  UNL1       -0.2730
     31 N         -62.2511  -49.7335  -24.7985 N.am    1  UNL1       -0.2821
     32 H         -61.6263  -49.0169  -24.3657 H       1  UNL1        0.1549
     33 C         -62.5089  -50.9478  -24.0704 C.ar    1  UNL1        0.0589
     34 C         -63.7815  -51.5431  -24.0961 C.ar    1  UNL1        0.0358
     35 C         -64.0017  -52.7371  -23.4076 C.ar    1  UNL1        0.1002
     36 N         -62.9878  -53.3268  -22.7231 N.ar    1  UNL1       -0.2417
     37 C         -61.7427  -52.7846  -22.6869 C.ar    1  UNL1        0.1059
     38 C         -61.4734  -51.5891  -23.3624 C.ar    1  UNL1        0.0542
     39 S         -59.8215  -50.8926  -23.2722 S.3     1  UNL1       -0.1387
     40 H         -60.1420  -50.1447  -22.1238 H       1  UNL1        0.1072
     41 C         -63.1104  -48.0769  -28.1866 C.3     1  UNL1        0.0569
     42 C         -63.2725  -46.6654  -28.6838 C.ar    1  UNL1       -0.0017
     43 C         -64.4723  -46.0289  -28.9896 C.ar    1  UNL1        0.0681
     44 N         -64.2468  -44.7511  -29.3704 N.ar    1  UNL1       -0.3523
     45 C         -62.9155  -44.5752  -29.3105 C.ar    1  UNL1        0.0563
     46 C         -62.2030  -43.4147  -29.6097 C.ar    1  UNL1        0.0170
     47 C         -60.8027  -43.4506  -29.4784 C.ar    1  UNL1        0.0015
     48 C         -60.1532  -44.6329  -29.0595 C.ar    1  UNL1        0.0001
     49 C         -60.8980  -45.7896  -28.7667 C.ar    1  UNL1        0.0012
     50 C         -62.2856  -45.7220  -28.8987 C.ar    1  UNL1        0.0131
     51 H         -64.9646  -44.0472  -29.6524 H       1  UNL1        0.1660
@<TRIPOS>BOND
     1     1     2    2
     2     2     3   am
     3     3    28    1
     4    28    41    1
     5    41    42    1
     6    42    43   ar
     7    43    44   ar
     8    44    45   ar
     9    45    46   ar
    10    46    47   ar
    11    47    48   ar
    12    48    49   ar
    13    49    50   ar
    14    28    29    1
    15    29    30    2
    16    29    31   am
    17    31    33    1
    18    33    34   ar
    19    34    35   ar
    20    35    36   ar
    21    36    37   ar
    22    37    38   ar
    23    38    39    1
    24     2     5    1
    25     5     6   ar
    26     6     7   ar
    27     7     8   ar
    28     8    12    1
    29    12    13    1
    30    13    14    1
    31    14    15    1
    32    15    18    1
    33    18    19   ar
    34    19    20   ar
    35    20    21   ar
    36    21    24    1
    37    24    25    1
    38    24    26    1
    39    24    27    1
    40    21    22   ar
    41    22    23   ar
    42    15    16    1
    43    16    17    1
    44     8     9   ar
    45     9    10   ar
    46    10    11    1
    47    50    42   ar
    48    38    33   ar
    49    10     5   ar
    50    50    45   ar
    51    17    12    1
    52    23    18   ar
    53     3     4    1
    54    44    51    1
    55    31    32    1
    56    39    40    1
@<TRIPOS>MOLECULE
*****
 51 56 0 0 0
SMALL
GASTEIGER

@<TRIPOS>ATOM
      1 O         -60.4540  -46.3307  -25.3517 O.2     1  UNL1       -0.2701
      2 C         -61.6394  -45.9022  -25.4089 C.2     1  UNL1        0.2483
      3 N         -62.6327  -46.6426  -26.1373 N.am    1  UNL1       -0.2945
      4 H         -63.6364  -46.4330  -25.9409 H       1  UNL1        0.1501
      5 C         -61.9965  -44.6622  -24.6827 C.ar    1  UNL1        0.0808
      6 C         -61.7607  -44.5763  -23.3001 C.ar    1  UNL1        0.0080
      7 C         -62.0993  -43.4205  -22.5920 C.ar    1  UNL1        0.0148
      8 C         -62.6705  -42.3238  -23.2532 C.ar    1  UNL1        0.0502
      9 C         -62.8934  -42.4000  -24.6370 C.ar    1  UNL1        0.0443
     10 C         -62.5558  -43.5549  -25.3496 C.ar    1  UNL1        0.1457
     11 F         -62.7294  -43.5636  -26.6946 F       1  UNL1       -0.2040
     12 N         -63.0218  -41.1371  -22.5165 N.pl3   1  UNL1       -0.3040
     13 C         -64.1908  -40.3389  -22.9011 C.3     1  UNL1        0.1123
     14 C         -64.9095  -39.8162  -21.6544 C.3     1  UNL1        0.1136
     15 N         -63.9455  -39.2347  -20.7091 N.pl3   1  UNL1       -0.2897
     16 C         -62.7723  -40.0380  -20.3409 C.3     1  UNL1        0.1136
     17 C         -62.0549  -40.5290  -21.5965 C.3     1  UNL1        0.1123
     18 C         -64.2680  -38.0545  -19.9457 C.ar    1  UNL1        0.1318
     19 C         -63.2978  -37.3980  -19.1710 C.ar    1  UNL1        0.0343
     20 C         -63.6487  -36.2570  -18.4480 C.ar    1  UNL1        0.0083
     21 C         -64.9661  -35.7762  -18.4815 C.ar    1  UNL1        0.0906
     22 C         -65.8973  -36.4405  -19.2945 C.ar    1  UNL1        0.1041
     23 N         -65.5319  -37.5492  -19.9910 N.ar    1  UNL1       -0.2292
     24 C         -65.3455  -34.5160  -17.7463 C.3     1  UNL1        0.4200
     25 F         -64.5103  -33.4719  -18.1043 F       1  UNL1       -0.1658
     26 F         -66.6471  -34.1510  -18.0435 F       1  UNL1       -0.1658
     27 F         -65.2377  -34.7331  -16.3854 F       1  UNL1       -0.1658
     28 C         -62.3055  -47.8735  -26.8674 C.3     1  UNL1        0.1535
     29 C         -62.8695  -49.0812  -26.1598 C.2     1  UNL1        0.2443
     30 O         -63.8459  -49.7044  -26.6605 O.2     1  UNL1       -0.2730
     31 N         -62.2891  -49.5146  -24.9194 N.am    1  UNL1       -0.2821
     32 H         -61.5905  -48.8850  -24.4649 H       1  UNL1        0.1549
     33 C         -62.6789  -50.7167  -24.2309 C.ar    1  UNL1        0.0589
     34 C         -63.9694  -51.2491  -24.3917 C.ar    1  UNL1        0.0358
     35 C         -64.3167  -52.4327  -23.7385 C.ar    1  UNL1        0.1002
     36 N         -63.4084  -53.0729  -22.9579 N.ar    1  UNL1       -0.2417
     37 C         -62.1489  -52.5922  -22.7898 C.ar    1  UNL1        0.1059
     38 C         -61.7540  -51.4095  -23.4250 C.ar    1  UNL1        0.0542
     39 S         -60.0885  -50.7947  -23.1603 S.3     1  UNL1       -0.1387
     40 H         -60.4891  -50.0350  -22.0453 H       1  UNL1        0.1072
     41 C         -62.7791  -47.7968  -28.3337 C.3     1  UNL1        0.0569
     42 C         -62.6370  -46.4266  -28.9405 C.ar    1  UNL1       -0.0017
     43 C         -61.4453  -45.7915  -29.2789 C.ar    1  UNL1        0.0681
     44 N         -61.6936  -44.5854  -29.8378 N.ar    1  UNL1       -0.3523
     45 C         -63.0311  -44.4516  -29.8533 C.ar    1  UNL1        0.0563
     46 C         -63.7658  -43.3708  -30.3389 C.ar    1  UNL1        0.0170
     47 C         -65.1687  -43.4389  -30.2560 C.ar    1  UNL1        0.0015
     48 C         -65.7981  -44.5710  -29.6929 C.ar    1  UNL1        0.0001
     49 C         -65.0308  -45.6458  -29.2087 C.ar    1  UNL1        0.0012
     50 C         -63.6422  -45.5534  -29.3110 C.ar    1  UNL1        0.0131
     51 H         -60.9865  -43.9004  -30.1858 H       1  UNL1        0.1660
@<TRIPOS>BOND
     1     1     2    2
     2     2     3   am
     3     3    28    1
     4    28    41    1
     5    41    42    1
     6    42    43   ar
     7    43    44   ar
     8    44    45   ar
     9    45    46   ar
    10    46    47   ar
    11    47    48   ar
    12    48    49   ar
    13    49    50   ar
    14    28    29    1
    15    29    30    2
    16    29    31   am
    17    31    33    1
    18    33    34   ar
    19    34    35   ar
    20    35    36   ar
    21    36    37   ar
    22    37    38   ar
    23    38    39    1
    24     2     5    1
    25     5     6   ar
    26     6     7   ar
    27     7     8   ar
    28     8    12    1
    29    12    13    1
    30    13    14    1
    31    14    15    1
    32    15    18    1
    33    18    19   ar
    34    19    20   ar
    35    20    21   ar
    36    21    24    1
    37    24    25    1
    38    24    26    1
    39    24    27    1
    40    21    22   ar
    41    22    23   ar
    42    15    16    1
    43    16    17    1
    44     8     9   ar
    45     9    10   ar
    46    10    11    1
    47    50    42   ar
    48    38    33   ar
    49    10     5   ar
    50    50    45   ar
    51    17    12    1
    52    23    18   ar
    53     3     4    1
    54    44    51    1
    55    31    32    1
    56    39    40    1
@<TRIPOS>MOLECULE
*****
 51 56 0 0 0
SMALL
GASTEIGER

@<TRIPOS>ATOM
      1 O         -60.1773  -41.8656  -22.9697 O.2     1  UNL1       -0.2701
      2 C         -61.4102  -41.8857  -23.2375 C.2     1  UNL1        0.2483
      3 N         -62.3282  -41.1235  -22.4363 N.am    1  UNL1       -0.2945
      4 H         -63.2739  -40.9288  -22.8331 H       1  UNL1        0.1501
      5 C         -61.8844  -42.6619  -24.4058 C.ar    1  UNL1        0.0808
      6 C         -62.8166  -42.0884  -25.2870 C.ar    1  UNL1        0.0080
      7 C         -63.2865  -42.8058  -26.3899 C.ar    1  UNL1        0.0148
      8 C         -62.8263  -44.1065  -26.6401 C.ar    1  UNL1        0.0502
      9 C         -61.8834  -44.6771  -25.7707 C.ar    1  UNL1        0.0443
     10 C         -61.4104  -43.9625  -24.6657 C.ar    1  UNL1        0.1457
     11 F         -60.4537  -44.5264  -23.8872 F       1  UNL1       -0.2040
     12 N         -63.3184  -44.8424  -27.7761 N.pl3   1  UNL1       -0.3040
     13 C         -62.8188  -46.1911  -28.0647 C.3     1  UNL1        0.1123
     14 C         -63.9568  -47.0809  -28.5720 C.3     1  UNL1        0.1136
     15 N         -64.7322  -46.3851  -29.6093 N.pl3   1  UNL1       -0.2897
     16 C         -65.2166  -45.0303  -29.3140 C.3     1  UNL1        0.1136
     17 C         -64.0635  -44.1516  -28.8338 C.3     1  UNL1        0.1123
     18 C         -65.2508  -47.0927  -30.7538 C.ar    1  UNL1        0.1318
     19 C         -65.1979  -46.5361  -32.0422 C.ar    1  UNL1        0.0343
     20 C         -65.7083  -47.2535  -33.1250 C.ar    1  UNL1        0.0083
     21 C         -66.2851  -48.5168  -32.9273 C.ar    1  UNL1        0.0906
     22 C         -66.2876  -49.0524  -31.6302 C.ar    1  UNL1        0.1041
     23 N         -65.7833  -48.3356  -30.5912 N.ar    1  UNL1       -0.2292
     24 C         -66.7932  -49.3233  -34.0952 C.3     1  UNL1        0.4200
     25 F         -65.7812  -49.5433  -35.0135 F       1  UNL1       -0.1658
     26 F         -67.2670  -50.5523  -33.6699 F       1  UNL1       -0.1658
     27 F         -67.8199  -48.6334  -34.7124 F       1  UNL1       -0.1658
     28 C         -61.8852  -40.3470  -21.2718 C.3     1  UNL1        0.1535
     29 C         -62.8872  -39.2704  -20.9340 C.2     1  UNL1        0.2443
     30 O         -64.0911  -39.3976  -21.2906 O.2     1  UNL1       -0.2730
     31 N         -62.4634  -38.1066  -20.2067 N.am    1  UNL1       -0.2821
     32 H         -61.4373  -37.9683  -20.0683 H       1  UNL1        0.1549
     33 C         -63.3621  -37.0848  -19.7384 C.ar    1  UNL1        0.0589
     34 C         -64.5411  -37.4253  -19.0538 C.ar    1  UNL1        0.0358
     35 C         -65.3835  -36.4176  -18.5815 C.ar    1  UNL1        0.1002
     36 N         -65.0606  -35.1126  -18.7742 N.ar    1  UNL1       -0.2417
     37 C         -63.9231  -34.7482  -19.4214 C.ar    1  UNL1        0.1059
     38 C         -63.0470  -35.7227  -19.9122 C.ar    1  UNL1        0.0542
     39 S         -61.5656  -35.2015  -20.7815 S.3     1  UNL1       -0.1387
     40 H         -62.2286  -35.2053  -22.0229 H       1  UNL1        0.1072
     41 C         -61.6011  -41.2634  -20.0636 C.3     1  UNL1        0.0569
     42 C         -62.8463  -41.7464  -19.3693 C.ar    1  UNL1       -0.0017
     43 C         -63.5251  -41.0970  -18.3420 C.ar    1  UNL1        0.0681
     44 N         -64.6245  -41.7981  -17.9836 N.ar    1  UNL1       -0.3523
     45 C         -64.6450  -42.8857  -18.7733 C.ar    1  UNL1        0.0563
     46 C         -65.5931  -43.9080  -18.7777 C.ar    1  UNL1        0.0170
     47 C         -65.4206  -44.9610  -19.6946 C.ar    1  UNL1        0.0015
     48 C         -64.3152  -44.9703  -20.5739 C.ar    1  UNL1        0.0001
     49 C         -63.3730  -43.9263  -20.5452 C.ar    1  UNL1        0.0012
     50 C         -63.5742  -42.8919  -19.6305 C.ar    1  UNL1        0.0131
     51 H         -65.3149  -41.5423  -17.2432 H       1  UNL1        0.1660
@<TRIPOS>BOND
     1     1     2    2
     2     2     3   am
     3     3    28    1
     4    28    41    1
     5    41    42    1
     6    42    43   ar
     7    43    44   ar
     8    44    45   ar
     9    45    46   ar
    10    46    47   ar
    11    47    48   ar
    12    48    49   ar
    13    49    50   ar
    14    28    29    1
    15    29    30    2
    16    29    31   am
    17    31    33    1
    18    33    34   ar
    19    34    35   ar
    20    35    36   ar
    21    36    37   ar
    22    37    38   ar
    23    38    39    1
    24     2     5    1
    25     5     6   ar
    26     6     7   ar
    27     7     8   ar
    28     8    12    1
    29    12    13    1
    30    13    14    1
    31    14    15    1
    32    15    18    1
    33    18    19   ar
    34    19    20   ar
    35    20    21   ar
    36    21    24    1
    37    24    25    1
    38    24    26    1
    39    24    27    1
    40    21    22   ar
    41    22    23   ar
    42    15    16    1
    43    16    17    1
    44     8     9   ar
    45     9    10   ar
    46    10    11    1
    47    50    42   ar
    48    38    33   ar
    49    10     5   ar
    50    50    45   ar
    51    17    12    1
    52    23    18   ar
    53     3     4    1
    54    44    51    1
    55    31    32    1
    56    39    40    1
@<TRIPOS>MOLECULE
*****
 51 56 0 0 0
SMALL
GASTEIGER

@<TRIPOS>ATOM
      1 O         -60.0240  -46.3443  -24.9214 O.2     1  UNL1       -0.2701
      2 C         -61.0469  -45.6707  -25.2243 C.2     1  UNL1        0.2483
      3 N         -61.8427  -46.0506  -26.3592 N.am    1  UNL1       -0.2945
      4 H         -62.8122  -45.6687  -26.4228 H       1  UNL1        0.1501
      5 C         -61.4355  -44.5227  -24.3736 C.ar    1  UNL1        0.0808
      6 C         -61.9443  -44.7561  -23.0847 C.ar    1  UNL1        0.0080
      7 C         -62.3276  -43.6892  -22.2682 C.ar    1  UNL1        0.0148
      8 C         -62.2002  -42.3676  -22.7192 C.ar    1  UNL1        0.0502
      9 C         -61.6778  -42.1298  -24.0003 C.ar    1  UNL1        0.0443
     10 C         -61.2929  -43.1948  -24.8208 C.ar    1  UNL1        0.1457
     11 F         -60.7349  -42.9192  -26.0258 F       1  UNL1       -0.2040
     12 N         -62.6017  -41.2725  -21.8744 N.pl3   1  UNL1       -0.3040
     13 C         -61.5968  -40.4244  -21.2242 C.3     1  UNL1        0.1123
     14 C         -62.0597  -38.9651  -21.2159 C.3     1  UNL1        0.1136
     15 N         -63.4550  -38.8693  -20.7629 N.pl3   1  UNL1       -0.2897
     16 C         -64.4504  -39.7322  -21.4124 C.3     1  UNL1        0.1136
     17 C         -63.9829  -41.1859  -21.3887 C.3     1  UNL1        0.1123
     18 C         -63.8949  -37.7799  -19.9266 C.ar    1  UNL1        0.1318
     19 C         -65.1824  -37.7637  -19.3656 C.ar    1  UNL1        0.0343
     20 C         -65.5700  -36.6925  -18.5593 C.ar    1  UNL1        0.0083
     21 C         -64.6855  -35.6298  -18.3222 C.ar    1  UNL1        0.0906
     22 C         -63.3965  -35.7004  -18.8728 C.ar    1  UNL1        0.1041
     23 N         -63.0411  -36.7546  -19.6537 N.ar    1  UNL1       -0.2292
     24 C         -65.0736  -34.4925  -17.4121 C.3     1  UNL1        0.4200
     25 F         -66.3873  -34.1168  -17.6336 F       1  UNL1       -0.1658
     26 F         -64.9475  -34.8649  -16.0850 F       1  UNL1       -0.1658
     27 F         -64.2481  -33.4112  -17.6573 F       1  UNL1       -0.1658
     28 C         -61.4794  -47.1828  -27.2203 C.3     1  UNL1        0.1535
     29 C         -60.6469  -46.7193  -28.3904 C.2     1  UNL1        0.2443
     30 O         -59.6617  -47.4086  -28.7735 O.2     1  UNL1       -0.2730
     31 N         -60.9828  -45.4949  -29.0622 N.am    1  UNL1       -0.2821
     32 H         -61.7031  -44.8811  -28.6200 H       1  UNL1        0.1549
     33 C         -60.3242  -45.0299  -30.2542 C.ar    1  UNL1        0.0589
     34 C         -58.9658  -45.3107  -30.4791 C.ar    1  UNL1        0.0358
     35 C         -58.3544  -44.8763  -31.6563 C.ar    1  UNL1        0.1002
     36 N         -59.0714  -44.1930  -32.5854 N.ar    1  UNL1       -0.2417
     37 C         -60.3889  -43.9147  -32.4053 C.ar    1  UNL1        0.1059
     38 C         -61.0456  -44.3303  -31.2417 C.ar    1  UNL1        0.0542
     39 S         -62.7812  -43.9238  -31.0304 S.3     1  UNL1       -0.1387
     40 H         -62.4734  -42.7066  -30.3944 H       1  UNL1        0.1072
     41 C         -60.7691  -48.2915  -26.4164 C.3     1  UNL1        0.0569
     42 C         -61.6836  -49.0353  -25.4803 C.ar    1  UNL1       -0.0017
     43 C         -63.0745  -48.9794  -25.4648 C.ar    1  UNL1        0.0681
     44 N         -63.5711  -49.8062  -24.5169 N.ar    1  UNL1       -0.3523
     45 C         -62.5066  -50.3819  -23.9317 C.ar    1  UNL1        0.0563
     46 C         -62.5148  -51.3148  -22.8955 C.ar    1  UNL1        0.0170
     47 C         -61.2756  -51.7907  -22.4294 C.ar    1  UNL1        0.0015
     48 C         -60.0700  -51.3264  -23.0004 C.ar    1  UNL1        0.0001
     49 C         -60.0925  -50.3829  -24.0434 C.ar    1  UNL1        0.0012
     50 C         -61.3363  -49.9346  -24.4898 C.ar    1  UNL1        0.0131
     51 H         -64.5781  -49.9627  -24.2895 H       1  UNL1        0.1660
@<TRIPOS>BOND
     1     1     2    2
     2     2     3   am
     3     3    28    1
     4    28    41    1
     5    41    42    1
     6    42    43   ar
     7    43    44   ar
     8    44    45   ar
     9    45    46   ar
    10    46    47   ar
    11    47    48   ar
    12    48    49   ar
    13    49    50   ar
    14    28    29    1
    15    29    30    2
    16    29    31   am
    17    31    33    1
    18    33    34   ar
    19    34    35   ar
    20    35    36   ar
    21    36    37   ar
    22    37    38   ar
    23    38    39    1
    24     2     5    1
    25     5     6   ar
    26     6     7   ar
    27     7     8   ar
    28     8    12    1
    29    12    13    1
    30    13    14    1
    31    14    15    1
    32    15    18    1
    33    18    19   ar
    34    19    20   ar
    35    20    21   ar
    36    21    24    1
    37    24    25    1
    38    24    26    1
    39    24    27    1
    40    21    22   ar
    41    22    23   ar
    42    15    16    1
    43    16    17    1
    44     8     9   ar
    45     9    10   ar
    46    10    11    1
    47    50    42   ar
    48    38    33   ar
    49    10     5   ar
    50    50    45   ar
    51    17    12    1
    52    23    18   ar
    53     3     4    1
    54    44    51    1
    55    31    32    1
    56    39    40    1
