@<TRIPOS>MOLECULE
*****
 44 49 0 0 0
SMALL
GASTEIGER

@<TRIPOS>ATOM
      1 C         -60.7770  -42.1036  -26.0074 C.ar    1  UNL1        0.0702
      2 C         -62.1724  -42.2427  -25.9456 C.ar    1  UNL1        0.0191
      3 C         -62.9317  -42.1929  -27.1154 C.ar    1  UNL1        0.0356
      4 C         -62.2901  -42.0006  -28.3490 C.ar    1  UNL1        0.1318
      5 N         -60.9368  -41.8607  -28.3832 N.ar    1  UNL1       -0.2279
      6 C         -60.1792  -41.8902  -27.2558 C.ar    1  UNL1        0.1149
      7 N         -63.0304  -42.0249  -29.5817 N.pl3   1  UNL1       -0.2932
      8 C         -64.4899  -41.8722  -29.6049 C.3     1  UNL1        0.0923
      9 C         -65.1691  -43.2149  -29.9443 C.3     1  UNL1        0.0252
     10 C         -64.1803  -44.2428  -30.5427 C.3     1  UNL1        0.0472
     11 C         -63.2159  -43.5518  -31.5291 C.3     1  UNL1        0.0252
     12 C         -62.3674  -42.4805  -30.8122 C.3     1  UNL1        0.0923
     13 C         -64.9312  -45.4117  -31.2075 C.3     1  UNL1        0.2054
     14 O         -64.9365  -46.5608  -30.3577 O.3     1  UNL1       -0.4755
     15 C         -63.9099  -46.9107  -29.4627 C.ar    1  UNL1        0.1388
     16 C         -63.9794  -48.1573  -28.8316 C.ar    1  UNL1        0.0369
     17 C         -62.9846  -48.5549  -27.9362 C.ar    1  UNL1        0.0033
     18 C         -61.9079  -47.7096  -27.6621 C.ar    1  UNL1        0.0066
     19 C         -61.8124  -46.4548  -28.2853 C.ar    1  UNL1        0.0785
     20 C         -62.8228  -46.0576  -29.1794 C.ar    1  UNL1        0.0433
     21 C         -60.6651  -45.5637  -28.0027 C.2     1  UNL1        0.3381
     22 O         -60.0616  -45.6296  -26.8977 O.2     1  UNL1       -0.2451
     23 O         -60.2390  -44.6441  -28.9560 O.3     1  UNL1       -0.4771
     24 H         -59.4576  -44.0267  -28.7712 H       1  UNL1        0.2954
     25 C         -60.2387  -42.9814  -23.6874 C.2     1  UNL1        0.2839
     26 O         -60.1172  -42.4813  -22.5380 O.2     1  UNL1       -0.2665
     27 N         -59.9552  -42.1632  -24.8300 N.am    1  UNL1       -0.2766
     28 H         -59.1499  -41.5009  -24.7582 H       1  UNL1        0.1553
     29 C         -58.5315  -45.6266  -22.8359 C.3     1  UNL1        0.0345
     30 C         -59.8975  -45.5400  -23.4470 C.ar    1  UNL1        0.0202
     31 C         -60.6356  -44.4006  -23.8006 C.ar    1  UNL1        0.1946
     32 O         -61.8329  -44.7588  -24.2311 O.2     1  UNL1       -0.4492
     33 C         -61.9062  -46.0662  -24.1858 C.ar    1  UNL1        0.1452
     34 C         -62.9946  -46.8634  -24.5201 C.ar    1  UNL1        0.0375
     35 C         -62.8721  -48.2534  -24.3498 C.ar    1  UNL1        0.0031
     36 C         -61.6631  -48.8271  -23.8677 C.ar    1  UNL1        0.0002
     37 C         -60.5725  -47.9769  -23.5577 C.ar    1  UNL1        0.0028
     38 C         -60.7374  -46.6013  -23.7210 C.ar    1  UNL1        0.0337
     39 C         -61.5453  -50.3000  -23.6866 C.ar    1  UNL1        0.0000
     40 C         -60.2882  -50.9334  -23.7533 C.ar    1  UNL1        0.0000
     41 C         -60.1826  -52.3198  -23.6081 C.ar    1  UNL1        0.0000
     42 C         -61.3256  -53.0911  -23.3914 C.ar    1  UNL1        0.0000
     43 C         -62.5770  -52.4774  -23.3151 C.ar    1  UNL1        0.0000
     44 C         -62.6892  -51.0913  -23.4585 C.ar    1  UNL1        0.0000
@<TRIPOS>BOND
     1    29    30    1
     2    30    31   ar
     3    31    25    1
     4    25    26    2
     5    25    27   am
     6    27     1    1
     7     1     2   ar
     8     2     3   ar
     9     3     4   ar
    10     4     7    1
    11     7     8    1
    12     8     9    1
    13     9    10    1
    14    10    13    1
    15    13    14    1
    16    14    15    1
    17    15    16   ar
    18    16    17   ar
    19    17    18   ar
    20    18    19   ar
    21    19    21    1
    22    21    22    2
    23    21    23    1
    24    19    20   ar
    25    10    11    1
    26    11    12    1
    27     4     5   ar
    28     5     6   ar
    29    31    32   ar
    30    32    33   ar
    31    33    34   ar
    32    34    35   ar
    33    35    36   ar
    34    36    39    1
    35    39    40   ar
    36    40    41   ar
    37    41    42   ar
    38    42    43   ar
    39    43    44   ar
    40    36    37   ar
    41    37    38   ar
    42    38    30   ar
    43     6     1   ar
    44    38    33   ar
    45    12     7    1
    46    44    39   ar
    47    20    15   ar
    48    27    28    1
    49    23    24    1
@<TRIPOS>MOLECULE
*****
 44 49 0 0 0
SMALL
GASTEIGER

@<TRIPOS>ATOM
      1 C         -61.1732  -42.0453  -24.1262 C.ar    1  UNL1        0.0702
      2 C         -62.5444  -42.0955  -24.4222 C.ar    1  UNL1        0.0191
      3 C         -62.9693  -42.2087  -25.7466 C.ar    1  UNL1        0.0356
      4 C         -62.0169  -42.2692  -26.7759 C.ar    1  UNL1        0.1318
      5 N         -60.6932  -42.2111  -26.4653 N.ar    1  UNL1       -0.2279
      6 C         -60.2570  -42.0852  -25.1847 C.ar    1  UNL1        0.1149
      7 N         -62.4146  -42.4673  -28.1437 N.pl3   1  UNL1       -0.2932
      8 C         -63.8032  -42.2707  -28.5765 C.3     1  UNL1        0.0923
      9 C         -64.4714  -43.6267  -28.8832 C.3     1  UNL1        0.0252
     10 C         -63.4424  -44.7709  -29.0390 C.3     1  UNL1        0.0472
     11 C         -62.2073  -44.2818  -29.8238 C.3     1  UNL1        0.0252
     12 C         -61.4936  -43.1381  -29.0726 C.3     1  UNL1        0.0923
     13 C         -64.0829  -46.0057  -29.7003 C.3     1  UNL1        0.2054
     14 O         -63.3496  -47.1902  -29.3816 O.3     1  UNL1       -0.4755
     15 C         -62.9634  -47.5797  -28.0867 C.ar    1  UNL1        0.1388
     16 C         -61.7085  -47.1732  -27.6208 C.ar    1  UNL1        0.0369
     17 C         -61.2776  -47.5304  -26.3416 C.ar    1  UNL1        0.0033
     18 C         -62.0980  -48.2985  -25.5133 C.ar    1  UNL1        0.0066
     19 C         -63.3637  -48.7159  -25.9555 C.ar    1  UNL1        0.0785
     20 C         -63.7872  -48.3596  -27.2485 C.ar    1  UNL1        0.0433
     21 C         -64.2375  -49.5208  -25.0729 C.2     1  UNL1        0.3381
     22 O         -63.9267  -50.7056  -24.7740 O.2     1  UNL1       -0.2451
     23 O         -65.4116  -48.9765  -24.5618 O.3     1  UNL1       -0.4771
     24 H         -66.0188  -49.5201  -23.9602 H       1  UNL1        0.2954
     25 C         -60.8899  -42.9453  -21.7698 C.2     1  UNL1        0.2839
     26 O         -61.2437  -42.5843  -20.6163 O.2     1  UNL1       -0.2665
     27 N         -60.6912  -41.9438  -22.7762 N.am    1  UNL1       -0.2766
     28 H         -60.2487  -41.0451  -22.4782 H       1  UNL1        0.1553
     29 C         -62.9453  -45.4268  -21.2662 C.3     1  UNL1        0.0345
     30 C         -61.5418  -45.4543  -21.7919 C.ar    1  UNL1        0.0202
     31 C         -60.6637  -44.3843  -22.0201 C.ar    1  UNL1        0.1946
     32 O         -59.5481  -44.8305  -22.5709 O.2     1  UNL1       -0.4492
     33 C         -59.6515  -46.1301  -22.7016 C.ar    1  UNL1        0.1452
     34 C         -58.7218  -46.9998  -23.2597 C.ar    1  UNL1        0.0375
     35 C         -59.0592  -48.3618  -23.3441 C.ar    1  UNL1        0.0031
     36 C         -60.3074  -48.8374  -22.8551 C.ar    1  UNL1        0.0002
     37 C         -61.2166  -47.9172  -22.2763 C.ar    1  UNL1        0.0028
     38 C         -60.8554  -46.5706  -22.2272 C.ar    1  UNL1        0.0337
     39 C         -60.6568  -50.2811  -22.9534 C.ar    1  UNL1        0.0000
     40 C         -59.8799  -51.1560  -23.7387 C.ar    1  UNL1        0.0000
     41 C         -60.2244  -52.5063  -23.8500 C.ar    1  UNL1        0.0000
     42 C         -61.3433  -53.0021  -23.1787 C.ar    1  UNL1        0.0000
     43 C         -62.1184  -52.1495  -22.3908 C.ar    1  UNL1        0.0000
     44 C         -61.7786  -50.7984  -22.2746 C.ar    1  UNL1        0.0000
@<TRIPOS>BOND
     1    29    30    1
     2    30    31   ar
     3    31    25    1
     4    25    26    2
     5    25    27   am
     6    27     1    1
     7     1     2   ar
     8     2     3   ar
     9     3     4   ar
    10     4     7    1
    11     7     8    1
    12     8     9    1
    13     9    10    1
    14    10    13    1
    15    13    14    1
    16    14    15    1
    17    15    16   ar
    18    16    17   ar
    19    17    18   ar
    20    18    19   ar
    21    19    21    1
    22    21    22    2
    23    21    23    1
    24    19    20   ar
    25    10    11    1
    26    11    12    1
    27     4     5   ar
    28     5     6   ar
    29    31    32   ar
    30    32    33   ar
    31    33    34   ar
    32    34    35   ar
    33    35    36   ar
    34    36    39    1
    35    39    40   ar
    36    40    41   ar
    37    41    42   ar
    38    42    43   ar
    39    43    44   ar
    40    36    37   ar
    41    37    38   ar
    42    38    30   ar
    43     6     1   ar
    44    38    33   ar
    45    12     7    1
    46    44    39   ar
    47    20    15   ar
    48    27    28    1
    49    23    24    1
@<TRIPOS>MOLECULE
*****
 44 49 0 0 0
SMALL
GASTEIGER

@<TRIPOS>ATOM
      1 C         -60.6615  -47.0686  -25.0854 C.ar    1  UNL1        0.0702
      2 C         -61.5390  -47.9319  -25.7601 C.ar    1  UNL1        0.0191
      3 C         -62.2472  -47.4775  -26.8734 C.ar    1  UNL1        0.0356
      4 C         -62.0766  -46.1540  -27.3089 C.ar    1  UNL1        0.1318
      5 N         -61.2261  -45.3333  -26.6343 N.ar    1  UNL1       -0.2279
      6 C         -60.5384  -45.7493  -25.5389 C.ar    1  UNL1        0.1149
      7 N         -62.7270  -45.6752  -28.4988 N.pl3   1  UNL1       -0.2932
      8 C         -62.0158  -44.8550  -29.4864 C.3     1  UNL1        0.0923
      9 C         -62.5076  -43.3941  -29.4313 C.3     1  UNL1        0.0252
     10 C         -63.8449  -43.2490  -28.6677 C.3     1  UNL1        0.0472
     11 C         -64.7968  -44.4103  -29.0225 C.3     1  UNL1        0.0252
     12 C         -64.1902  -45.7673  -28.6077 C.3     1  UNL1        0.0923
     13 C         -64.4935  -41.8791  -28.9418 C.3     1  UNL1        0.2054
     14 O         -64.1001  -40.9243  -27.9539 O.3     1  UNL1       -0.4755
     15 C         -63.9345  -41.1972  -26.5844 C.ar    1  UNL1        0.1388
     16 C         -62.8270  -41.9557  -26.1906 C.ar    1  UNL1        0.0369
     17 C         -62.6144  -42.2528  -24.8431 C.ar    1  UNL1        0.0033
     18 C         -63.5076  -41.7939  -23.8733 C.ar    1  UNL1        0.0066
     19 C         -64.6250  -41.0273  -24.2418 C.ar    1  UNL1        0.0785
     20 C         -64.8373  -40.7394  -25.6020 C.ar    1  UNL1        0.0433
     21 C         -65.5656  -40.5316  -23.2123 C.2     1  UNL1        0.3381
     22 O         -65.8947  -41.2651  -22.2410 O.2     1  UNL1       -0.2451
     23 O         -66.0956  -39.2485  -23.3052 O.3     1  UNL1       -0.4771
     24 H         -66.7434  -38.9010  -22.6083 H       1  UNL1        0.2954
     25 C         -59.4392  -46.6252  -22.9055 C.2     1  UNL1        0.2839
     26 O         -58.2558  -46.7472  -22.4924 O.2     1  UNL1       -0.2665
     27 N         -59.9015  -47.4986  -23.9440 N.am    1  UNL1       -0.2766
     28 H         -59.5831  -48.4936  -23.9116 H       1  UNL1        0.1553
     29 C         -58.8226  -43.4553  -22.4493 C.3     1  UNL1        0.0345
     30 C         -60.0364  -44.2466  -22.0651 C.ar    1  UNL1        0.0202
     31 C         -60.3052  -45.6076  -22.2739 C.ar    1  UNL1        0.1946
     32 O         -61.5278  -45.8911  -21.8590 O.2     1  UNL1       -0.4492
     33 C         -62.0602  -44.7921  -21.3840 C.ar    1  UNL1        0.1452
     34 C         -63.3411  -44.6277  -20.8699 C.ar    1  UNL1        0.0375
     35 C         -63.7263  -43.3407  -20.4558 C.ar    1  UNL1        0.0031
     36 C         -62.8245  -42.2442  -20.5433 C.ar    1  UNL1        0.0002
     37 C         -61.5216  -42.4626  -21.0562 C.ar    1  UNL1        0.0028
     38 C         -61.1815  -43.7491  -21.4751 C.ar    1  UNL1        0.0337
     39 C         -63.2440  -40.8843  -20.1063 C.ar    1  UNL1        0.0000
     40 C         -64.0033  -40.7098  -18.9322 C.ar    1  UNL1        0.0000
     41 C         -64.4177  -39.4344  -18.5371 C.ar    1  UNL1        0.0000
     42 C         -64.0784  -38.3182  -19.3035 C.ar    1  UNL1        0.0000
     43 C         -63.3201  -38.4741  -20.4650 C.ar    1  UNL1        0.0000
     44 C         -62.9018  -39.7466  -20.8650 C.ar    1  UNL1        0.0000
@<TRIPOS>BOND
     1    29    30    1
     2    30    31   ar
     3    31    25    1
     4    25    26    2
     5    25    27   am
     6    27     1    1
     7     1     2   ar
     8     2     3   ar
     9     3     4   ar
    10     4     7    1
    11     7     8    1
    12     8     9    1
    13     9    10    1
    14    10    13    1
    15    13    14    1
    16    14    15    1
    17    15    16   ar
    18    16    17   ar
    19    17    18   ar
    20    18    19   ar
    21    19    21    1
    22    21    22    2
    23    21    23    1
    24    19    20   ar
    25    10    11    1
    26    11    12    1
    27     4     5   ar
    28     5     6   ar
    29    31    32   ar
    30    32    33   ar
    31    33    34   ar
    32    34    35   ar
    33    35    36   ar
    34    36    39    1
    35    39    40   ar
    36    40    41   ar
    37    41    42   ar
    38    42    43   ar
    39    43    44   ar
    40    36    37   ar
    41    37    38   ar
    42    38    30   ar
    43     6     1   ar
    44    38    33   ar
    45    12     7    1
    46    44    39   ar
    47    20    15   ar
    48    27    28    1
    49    23    24    1
@<TRIPOS>MOLECULE
*****
 44 49 0 0 0
SMALL
GASTEIGER

@<TRIPOS>ATOM
      1 C         -60.9488  -42.2258  -25.4065 C.ar    1  UNL1        0.0702
      2 C         -62.2975  -42.0707  -25.0497 C.ar    1  UNL1        0.0191
      3 C         -63.2718  -41.9433  -26.0407 C.ar    1  UNL1        0.0356
      4 C         -62.8919  -41.9689  -27.3918 C.ar    1  UNL1        0.1318
      5 N         -61.5773  -42.1127  -27.7132 N.ar    1  UNL1       -0.2279
      6 C         -60.6102  -42.2228  -26.7654 C.ar    1  UNL1        0.1149
      7 N         -63.8756  -41.9219  -28.4398 N.pl3   1  UNL1       -0.2932
      8 C         -64.7315  -43.0750  -28.7428 C.3     1  UNL1        0.0923
      9 C         -64.3110  -43.7252  -30.0768 C.3     1  UNL1        0.0252
     10 C         -63.3985  -42.8050  -30.9211 C.3     1  UNL1        0.0472
     11 C         -63.8942  -41.3454  -30.8534 C.3     1  UNL1        0.0252
     12 C         -63.8481  -40.8137  -29.4054 C.3     1  UNL1        0.0923
     13 C         -63.3008  -43.3045  -32.3748 C.3     1  UNL1        0.2054
     14 O         -61.9517  -43.2453  -32.8425 O.3     1  UNL1       -0.4755
     15 C         -60.8502  -43.8561  -32.2171 C.ar    1  UNL1        0.1388
     16 C         -59.6514  -43.9486  -32.9322 C.ar    1  UNL1        0.0369
     17 C         -58.5268  -44.5431  -32.3566 C.ar    1  UNL1        0.0033
     18 C         -58.5886  -45.0519  -31.0580 C.ar    1  UNL1        0.0066
     19 C         -59.7787  -44.9681  -30.3174 C.ar    1  UNL1        0.0785
     20 C         -60.9099  -44.3756  -30.9071 C.ar    1  UNL1        0.0433
     21 C         -59.8405  -45.4977  -28.9368 C.2     1  UNL1        0.3381
     22 O         -60.7958  -45.1865  -28.1751 O.2     1  UNL1       -0.2451
     23 O         -58.8444  -46.3472  -28.4656 O.3     1  UNL1       -0.4771
     24 H         -58.8749  -46.7120  -27.5211 H       1  UNL1        0.2954
     25 C         -59.9648  -43.3075  -23.3317 C.2     1  UNL1        0.2839
     26 O         -59.6288  -42.9172  -22.1824 O.2     1  UNL1       -0.2665
     27 N         -59.9148  -42.3752  -24.4196 N.am    1  UNL1       -0.2766
     28 H         -59.1171  -41.7001  -24.4369 H       1  UNL1        0.1553
     29 C         -58.3227  -45.9885  -22.4643 C.3     1  UNL1        0.0345
     30 C         -59.6519  -45.8744  -23.1479 C.ar    1  UNL1        0.0202
     31 C         -60.3627  -44.7199  -23.5085 C.ar    1  UNL1        0.1946
     32 O         -61.5359  -45.0568  -24.0156 O.2     1  UNL1       -0.4492
     33 C         -61.6189  -46.3645  -24.0128 C.ar    1  UNL1        0.1452
     34 C         -62.6913  -47.1439  -24.4307 C.ar    1  UNL1        0.0375
     35 C         -62.5862  -48.5391  -24.2947 C.ar    1  UNL1        0.0031
     36 C         -61.4093  -49.1351  -23.7629 C.ar    1  UNL1        0.0002
     37 C         -60.3331  -48.3022  -23.3677 C.ar    1  UNL1        0.0028
     38 C         -60.4810  -46.9212  -23.4994 C.ar    1  UNL1        0.0337
     39 C         -61.3100  -50.6135  -23.6189 C.ar    1  UNL1        0.0000
     40 C         -60.1564  -51.3007  -24.0464 C.ar    1  UNL1        0.0000
     41 C         -60.0753  -52.6917  -23.9335 C.ar    1  UNL1        0.0000
     42 C         -61.1391  -53.4143  -23.3908 C.ar    1  UNL1        0.0000
     43 C         -62.2854  -52.7471  -22.9558 C.ar    1  UNL1        0.0000
     44 C         -62.3723  -51.3561  -23.0650 C.ar    1  UNL1        0.0000
@<TRIPOS>BOND
     1    29    30    1
     2    30    31   ar
     3    31    25    1
     4    25    26    2
     5    25    27   am
     6    27     1    1
     7     1     2   ar
     8     2     3   ar
     9     3     4   ar
    10     4     7    1
    11     7     8    1
    12     8     9    1
    13     9    10    1
    14    10    13    1
    15    13    14    1
    16    14    15    1
    17    15    16   ar
    18    16    17   ar
    19    17    18   ar
    20    18    19   ar
    21    19    21    1
    22    21    22    2
    23    21    23    1
    24    19    20   ar
    25    10    11    1
    26    11    12    1
    27     4     5   ar
    28     5     6   ar
    29    31    32   ar
    30    32    33   ar
    31    33    34   ar
    32    34    35   ar
    33    35    36   ar
    34    36    39    1
    35    39    40   ar
    36    40    41   ar
    37    41    42   ar
    38    42    43   ar
    39    43    44   ar
    40    36    37   ar
    41    37    38   ar
    42    38    30   ar
    43     6     1   ar
    44    38    33   ar
    45    12     7    1
    46    44    39   ar
    47    20    15   ar
    48    27    28    1
    49    23    24    1
@<TRIPOS>MOLECULE
*****
 44 49 0 0 0
SMALL
GASTEIGER

@<TRIPOS>ATOM
      1 C         -60.5504  -45.4311  -21.9608 C.ar    1  UNL1        0.0702
      2 C         -60.0007  -44.1395  -21.9675 C.ar    1  UNL1        0.0191
      3 C         -60.7916  -43.0422  -21.6246 C.ar    1  UNL1        0.0356
      4 C         -62.1370  -43.2407  -21.2769 C.ar    1  UNL1        0.1318
      5 N         -62.6498  -44.5013  -21.2848 N.ar    1  UNL1       -0.2279
      6 C         -61.9029  -45.5823  -21.6303 C.ar    1  UNL1        0.1149
      7 N         -62.9596  -42.1449  -20.8401 N.pl3   1  UNL1       -0.2932
      8 C         -64.3134  -42.3613  -20.3163 C.3     1  UNL1        0.0923
      9 C         -65.3698  -41.8792  -21.3316 C.3     1  UNL1        0.0252
     10 C         -64.7665  -40.9636  -22.4225 C.3     1  UNL1        0.0472
     11 C         -63.7373  -39.9946  -21.8043 C.3     1  UNL1        0.0252
     12 C         -62.5622  -40.7686  -21.1704 C.3     1  UNL1        0.0923
     13 C         -65.8713  -40.2080  -23.1848 C.3     1  UNL1        0.2054
     14 O         -65.4266  -39.8420  -24.4927 O.3     1  UNL1       -0.4755
     15 C         -64.7120  -40.6785  -25.3686 C.ar    1  UNL1        0.1388
     16 C         -65.1088  -40.7250  -26.7093 C.ar    1  UNL1        0.0369
     17 C         -64.4316  -41.5368  -27.6212 C.ar    1  UNL1        0.0033
     18 C         -63.3485  -42.3117  -27.2021 C.ar    1  UNL1        0.0066
     19 C         -62.9276  -42.2800  -25.8628 C.ar    1  UNL1        0.0785
     20 C         -63.6202  -41.4664  -24.9482 C.ar    1  UNL1        0.0433
     21 C         -61.7724  -43.0931  -25.4214 C.2     1  UNL1        0.3381
     22 O         -61.9343  -44.0483  -24.6146 O.2     1  UNL1       -0.2451
     23 O         -60.4945  -42.8123  -25.8948 O.3     1  UNL1       -0.4771
     24 H         -59.6965  -43.3599  -25.5958 H       1  UNL1        0.2954
     25 C         -60.1277  -47.5456  -23.2998 C.2     1  UNL1        0.2839
     26 O         -60.0164  -48.7727  -23.0394 O.2     1  UNL1       -0.2665
     27 N         -59.7689  -46.5906  -22.2927 N.am    1  UNL1       -0.2766
     28 H         -58.9339  -46.8064  -21.7023 H       1  UNL1        0.1553
     29 C         -63.1379  -47.7552  -24.5373 C.3     1  UNL1        0.0345
     30 C         -61.8832  -47.2512  -25.1845 C.ar    1  UNL1        0.0202
     31 C         -60.5918  -47.1497  -24.6461 C.ar    1  UNL1        0.1946
     32 O         -59.7863  -46.5725  -25.5208 O.2     1  UNL1       -0.4492
     33 C         -60.4821  -46.3050  -26.5983 C.ar    1  UNL1        0.1452
     34 C         -60.0395  -45.6733  -27.7547 C.ar    1  UNL1        0.0375
     35 C         -60.9734  -45.4418  -28.7795 C.ar    1  UNL1        0.0031
     36 C         -62.3264  -45.8591  -28.6435 C.ar    1  UNL1        0.0002
     37 C         -62.7285  -46.5169  -27.4545 C.ar    1  UNL1        0.0028
     38 C         -61.7787  -46.7121  -26.4515 C.ar    1  UNL1        0.0337
     39 C         -63.3086  -45.6049  -29.7330 C.ar    1  UNL1        0.0000
     40 C         -63.2967  -44.3863  -30.4405 C.ar    1  UNL1        0.0000
     41 C         -64.2359  -44.1394  -31.4461 C.ar    1  UNL1        0.0000
     42 C         -65.1951  -45.1032  -31.7615 C.ar    1  UNL1        0.0000
     43 C         -65.2149  -46.3183  -31.0748 C.ar    1  UNL1        0.0000
     44 C         -64.2778  -46.5716  -30.0688 C.ar    1  UNL1        0.0000
@<TRIPOS>BOND
     1    29    30    1
     2    30    31   ar
     3    31    25    1
     4    25    26    2
     5    25    27   am
     6    27     1    1
     7     1     2   ar
     8     2     3   ar
     9     3     4   ar
    10     4     7    1
    11     7     8    1
    12     8     9    1
    13     9    10    1
    14    10    13    1
    15    13    14    1
    16    14    15    1
    17    15    16   ar
    18    16    17   ar
    19    17    18   ar
    20    18    19   ar
    21    19    21    1
    22    21    22    2
    23    21    23    1
    24    19    20   ar
    25    10    11    1
    26    11    12    1
    27     4     5   ar
    28     5     6   ar
    29    31    32   ar
    30    32    33   ar
    31    33    34   ar
    32    34    35   ar
    33    35    36   ar
    34    36    39    1
    35    39    40   ar
    36    40    41   ar
    37    41    42   ar
    38    42    43   ar
    39    43    44   ar
    40    36    37   ar
    41    37    38   ar
    42    38    30   ar
    43     6     1   ar
    44    38    33   ar
    45    12     7    1
    46    44    39   ar
    47    20    15   ar
    48    27    28    1
    49    23    24    1
@<TRIPOS>MOLECULE
*****
 44 49 0 0 0
SMALL
GASTEIGER

@<TRIPOS>ATOM
      1 C         -64.2157  -41.1266  -25.9199 C.ar    1  UNL1        0.0702
      2 C         -63.5578  -41.4615  -24.7260 C.ar    1  UNL1        0.0191
      3 C         -64.2064  -41.2969  -23.5014 C.ar    1  UNL1        0.0356
      4 C         -65.5162  -40.7930  -23.4744 C.ar    1  UNL1        0.1318
      5 N         -66.1310  -40.4681  -24.6442 N.ar    1  UNL1       -0.2279
      6 C         -65.5135  -40.6053  -25.8466 C.ar    1  UNL1        0.1149
      7 N         -66.2444  -40.6862  -22.2389 N.pl3   1  UNL1       -0.2932
      8 C         -66.3875  -39.4039  -21.5395 C.3     1  UNL1        0.0923
      9 C         -65.5252  -39.3859  -20.2607 C.3     1  UNL1        0.0252
     10 C         -65.0616  -40.8004  -19.8404 C.3     1  UNL1        0.0472
     11 C         -66.2029  -41.8208  -20.0322 C.3     1  UNL1        0.0252
     12 C         -66.6203  -41.9095  -21.5153 C.3     1  UNL1        0.0923
     13 C         -64.5345  -40.8034  -18.3932 C.3     1  UNL1        0.2054
     14 O         -63.1611  -41.1968  -18.3538 O.3     1  UNL1       -0.4755
     15 C         -62.4275  -41.6873  -19.4487 C.ar    1  UNL1        0.1388
     16 C         -61.4842  -40.8430  -20.0439 C.ar    1  UNL1        0.0369
     17 C         -60.7271  -41.2816  -21.1320 C.ar    1  UNL1        0.0033
     18 C         -60.9049  -42.5709  -21.6371 C.ar    1  UNL1        0.0066
     19 C         -61.8425  -43.4395  -21.0552 C.ar    1  UNL1        0.0785
     20 C         -62.6075  -42.9875  -19.9650 C.ar    1  UNL1        0.0433
     21 C         -62.0227  -44.8099  -21.5840 C.2     1  UNL1        0.3381
     22 O         -62.9278  -45.0559  -22.4267 O.2     1  UNL1       -0.2451
     23 O         -61.1927  -45.8419  -21.1573 O.3     1  UNL1       -0.4771
     24 H         -61.3102  -46.7843  -21.5097 H       1  UNL1        0.2954
     25 C         -62.5085  -42.1964  -27.4638 C.2     1  UNL1        0.2839
     26 O         -61.5337  -41.7923  -28.1511 O.2     1  UNL1       -0.2665
     27 N         -63.5913  -41.2937  -27.2034 N.am    1  UNL1       -0.2766
     28 H         -63.8780  -40.6522  -27.9772 H       1  UNL1        0.1553
     29 C         -60.7515  -43.4948  -25.0422 C.3     1  UNL1        0.0345
     30 C         -61.7388  -44.1585  -25.9543 C.ar    1  UNL1        0.0202
     31 C         -62.5034  -43.5954  -26.9870 C.ar    1  UNL1        0.1946
     32 O         -63.3154  -44.5082  -27.4915 O.2     1  UNL1       -0.4492
     33 C         -63.1110  -45.6323  -26.8501 C.ar    1  UNL1        0.1452
     34 C         -63.7684  -46.8428  -27.0362 C.ar    1  UNL1        0.0375
     35 C         -63.4220  -47.9178  -26.1993 C.ar    1  UNL1        0.0031
     36 C         -62.4152  -47.7751  -25.2047 C.ar    1  UNL1        0.0002
     37 C         -61.7578  -46.5276  -25.0636 C.ar    1  UNL1        0.0028
     38 C         -62.1415  -45.4782  -25.8990 C.ar    1  UNL1        0.0337
     39 C         -62.0592  -48.9186  -24.3204 C.ar    1  UNL1        0.0000
     40 C         -60.8588  -48.9088  -23.5824 C.ar    1  UNL1        0.0000
     41 C         -60.5142  -49.9946  -22.7721 C.ar    1  UNL1        0.0000
     42 C         -61.3613  -51.1006  -22.6841 C.ar    1  UNL1        0.0000
     43 C         -62.5575  -51.1217  -23.4033 C.ar    1  UNL1        0.0000
     44 C         -62.9083  -50.0386  -24.2145 C.ar    1  UNL1        0.0000
@<TRIPOS>BOND
     1    29    30    1
     2    30    31   ar
     3    31    25    1
     4    25    26    2
     5    25    27   am
     6    27     1    1
     7     1     2   ar
     8     2     3   ar
     9     3     4   ar
    10     4     7    1
    11     7     8    1
    12     8     9    1
    13     9    10    1
    14    10    13    1
    15    13    14    1
    16    14    15    1
    17    15    16   ar
    18    16    17   ar
    19    17    18   ar
    20    18    19   ar
    21    19    21    1
    22    21    22    2
    23    21    23    1
    24    19    20   ar
    25    10    11    1
    26    11    12    1
    27     4     5   ar
    28     5     6   ar
    29    31    32   ar
    30    32    33   ar
    31    33    34   ar
    32    34    35   ar
    33    35    36   ar
    34    36    39    1
    35    39    40   ar
    36    40    41   ar
    37    41    42   ar
    38    42    43   ar
    39    43    44   ar
    40    36    37   ar
    41    37    38   ar
    42    38    30   ar
    43     6     1   ar
    44    38    33   ar
    45    12     7    1
    46    44    39   ar
    47    20    15   ar
    48    27    28    1
    49    23    24    1
@<TRIPOS>MOLECULE
*****
 44 49 0 0 0
SMALL
GASTEIGER

@<TRIPOS>ATOM
      1 C         -62.8974  -42.1333  -26.5618 C.ar    1  UNL1        0.0702
      2 C         -62.5512  -42.4588  -25.2410 C.ar    1  UNL1        0.0191
      3 C         -63.2615  -41.9036  -24.1758 C.ar    1  UNL1        0.0356
      4 C         -64.3193  -41.0185  -24.4362 C.ar    1  UNL1        0.1318
      5 N         -64.6318  -40.7120  -25.7248 N.ar    1  UNL1       -0.2279
      6 C         -63.9442  -41.2281  -26.7767 C.ar    1  UNL1        0.1149
      7 N         -65.1249  -40.4908  -23.3680 N.pl3   1  UNL1       -0.2932
      8 C         -64.5563  -39.6136  -22.3378 C.3     1  UNL1        0.0923
      9 C         -64.4455  -40.3601  -20.9926 C.3     1  UNL1        0.0252
     10 C         -65.2923  -41.6541  -20.9632 C.3     1  UNL1        0.0472
     11 C         -66.6542  -41.4227  -21.6503 C.3     1  UNL1        0.0252
     12 C         -66.4663  -41.0452  -23.1348 C.3     1  UNL1        0.0923
     13 C         -65.4637  -42.1714  -19.5226 C.3     1  UNL1        0.2054
     14 O         -64.4328  -43.1044  -19.1920 O.3     1  UNL1       -0.4755
     15 C         -63.5421  -43.6864  -20.1115 C.ar    1  UNL1        0.1388
     16 C         -63.8482  -44.9546  -20.6165 C.ar    1  UNL1        0.0369
     17 C         -62.9990  -45.5761  -21.5341 C.ar    1  UNL1        0.0033
     18 C         -61.8332  -44.9353  -21.9577 C.ar    1  UNL1        0.0066
     19 C         -61.5050  -43.6604  -21.4690 C.ar    1  UNL1        0.0785
     20 C         -62.3609  -43.0444  -20.5383 C.ar    1  UNL1        0.0433
     21 C         -60.2747  -42.9769  -21.9267 C.2     1  UNL1        0.3381
     22 O         -59.5947  -42.2803  -21.1254 O.2     1  UNL1       -0.2451
     23 O         -59.8544  -43.0979  -23.2476 O.3     1  UNL1       -0.4771
     24 H         -59.0162  -42.6309  -23.5722 H       1  UNL1        0.2954
     25 C         -61.0772  -43.5750  -27.5872 C.2     1  UNL1        0.2839
     26 O         -60.0832  -43.3786  -28.3350 O.2     1  UNL1       -0.2665
     27 N         -62.2027  -42.6928  -27.6886 N.am    1  UNL1       -0.2766
     28 H         -62.4716  -42.3658  -28.6441 H       1  UNL1        0.1553
     29 C         -62.8480  -46.3106  -27.7209 C.3     1  UNL1        0.0345
     30 C         -61.8180  -45.9002  -26.7121 C.ar    1  UNL1        0.0202
     31 C         -61.0479  -44.7285  -26.6635 C.ar    1  UNL1        0.1946
     32 O         -60.1945  -44.7953  -25.6563 O.2     1  UNL1       -0.4492
     33 C         -60.3772  -45.9395  -25.0447 C.ar    1  UNL1        0.1452
     34 C         -59.6763  -46.4343  -23.9511 C.ar    1  UNL1        0.0375
     35 C         -60.0071  -47.7168  -23.4800 C.ar    1  UNL1        0.0031
     36 C         -61.0415  -48.4765  -24.0932 C.ar    1  UNL1        0.0002
     37 C         -61.7426  -47.9239  -25.1937 C.ar    1  UNL1        0.0028
     38 C         -61.3737  -46.6566  -25.6457 C.ar    1  UNL1        0.0337
     39 C         -61.3809  -49.8356  -23.5894 C.ar    1  UNL1        0.0000
     40 C         -60.4337  -50.5923  -22.8710 C.ar    1  UNL1        0.0000
     41 C         -60.7458  -51.8784  -22.4206 C.ar    1  UNL1        0.0000
     42 C         -62.0045  -52.4247  -22.6766 C.ar    1  UNL1        0.0000
     43 C         -62.9561  -51.6846  -23.3803 C.ar    1  UNL1        0.0000
     44 C         -62.6505  -50.3975  -23.8325 C.ar    1  UNL1        0.0000
@<TRIPOS>BOND
     1    29    30    1
     2    30    31   ar
     3    31    25    1
     4    25    26    2
     5    25    27   am
     6    27     1    1
     7     1     2   ar
     8     2     3   ar
     9     3     4   ar
    10     4     7    1
    11     7     8    1
    12     8     9    1
    13     9    10    1
    14    10    13    1
    15    13    14    1
    16    14    15    1
    17    15    16   ar
    18    16    17   ar
    19    17    18   ar
    20    18    19   ar
    21    19    21    1
    22    21    22    2
    23    21    23    1
    24    19    20   ar
    25    10    11    1
    26    11    12    1
    27     4     5   ar
    28     5     6   ar
    29    31    32   ar
    30    32    33   ar
    31    33    34   ar
    32    34    35   ar
    33    35    36   ar
    34    36    39    1
    35    39    40   ar
    36    40    41   ar
    37    41    42   ar
    38    42    43   ar
    39    43    44   ar
    40    36    37   ar
    41    37    38   ar
    42    38    30   ar
    43     6     1   ar
    44    38    33   ar
    45    12     7    1
    46    44    39   ar
    47    20    15   ar
    48    27    28    1
    49    23    24    1
@<TRIPOS>MOLECULE
*****
 44 49 0 0 0
SMALL
GASTEIGER

@<TRIPOS>ATOM
      1 C         -60.2698  -45.3318  -22.0404 C.ar    1  UNL1        0.0702
      2 C         -61.5414  -45.5619  -21.4922 C.ar    1  UNL1        0.0191
      3 C         -62.3103  -44.4898  -21.0376 C.ar    1  UNL1        0.0356
      4 C         -61.8015  -43.1849  -21.1307 C.ar    1  UNL1        0.1318
      5 N         -60.5630  -42.9871  -21.6590 N.ar    1  UNL1       -0.2279
      6 C         -59.7906  -44.0169  -22.0934 C.ar    1  UNL1        0.1149
      7 N         -62.5970  -42.0497  -20.7477 N.pl3   1  UNL1       -0.2932
      8 C         -63.9908  -42.1993  -20.3131 C.3     1  UNL1        0.0923
      9 C         -64.9546  -41.6695  -21.3946 C.3     1  UNL1        0.0252
     10 C         -64.2383  -40.7867  -22.4434 C.3     1  UNL1        0.0472
     11 C         -63.2059  -39.8669  -21.7590 C.3     1  UNL1        0.0252
     12 C         -62.1132  -40.6949  -21.0506 C.3     1  UNL1        0.0923
     13 C         -65.2536  -39.9807  -23.2753 C.3     1  UNL1        0.2054
     14 O         -65.3939  -40.5377  -24.5839 O.3     1  UNL1       -0.4755
     15 C         -64.3600  -41.1398  -25.3229 C.ar    1  UNL1        0.1388
     16 C         -63.4607  -41.9704  -24.6460 C.ar    1  UNL1        0.0369
     17 C         -62.4179  -42.5949  -25.3330 C.ar    1  UNL1        0.0033
     18 C         -62.2630  -42.3958  -26.7061 C.ar    1  UNL1        0.0066
     19 C         -63.1546  -41.5701  -27.4098 C.ar    1  UNL1        0.0785
     20 C         -64.1973  -40.9375  -26.7093 C.ar    1  UNL1        0.0433
     21 C         -62.9966  -41.3681  -28.8673 C.2     1  UNL1        0.3381
     22 O         -64.0045  -41.3630  -29.6249 O.2     1  UNL1       -0.2451
     23 O         -61.7323  -41.1796  -29.4170 O.3     1  UNL1       -0.4771
     24 H         -61.6126  -41.0446  -30.4138 H       1  UNL1        0.2954
     25 C         -59.8435  -47.3080  -23.5753 C.2     1  UNL1        0.2839
     26 O         -59.6266  -48.5392  -23.4237 O.2     1  UNL1       -0.2665
     27 N         -59.4504  -46.4043  -22.5341 N.am    1  UNL1       -0.2766
     28 H         -58.5488  -46.6005  -22.0432 H       1  UNL1        0.1553
     29 C         -63.0153  -47.1159  -24.3096 C.3     1  UNL1        0.0345
     30 C         -61.8268  -46.7802  -25.1591 C.ar    1  UNL1        0.0202
     31 C         -60.4632  -46.8511  -24.8369 C.ar    1  UNL1        0.1946
     32 O         -59.7413  -46.3830  -25.8403 O.2     1  UNL1       -0.4492
     33 C         -60.5611  -46.0235  -26.7971 C.ar    1  UNL1        0.1452
     34 C         -60.2324  -45.4530  -28.0213 C.ar    1  UNL1        0.0375
     35 C         -61.2813  -45.0979  -28.8872 C.ar    1  UNL1        0.0031
     36 C         -62.6373  -45.3335  -28.5280 C.ar    1  UNL1        0.0002
     37 C         -62.9245  -45.9355  -27.2776 C.ar    1  UNL1        0.0028
     38 C         -61.8588  -46.2565  -26.4365 C.ar    1  UNL1        0.0337
     39 C         -63.7409  -44.9495  -29.4504 C.ar    1  UNL1        0.0000
     40 C         -63.5281  -44.8980  -30.8424 C.ar    1  UNL1        0.0000
     41 C         -64.5587  -44.5127  -31.7049 C.ar    1  UNL1        0.0000
     42 C         -65.8132  -44.1778  -31.1928 C.ar    1  UNL1        0.0000
     43 C         -66.0417  -44.2313  -29.8167 C.ar    1  UNL1        0.0000
     44 C         -65.0156  -44.6168  -28.9490 C.ar    1  UNL1        0.0000
@<TRIPOS>BOND
     1    29    30    1
     2    30    31   ar
     3    31    25    1
     4    25    26    2
     5    25    27   am
     6    27     1    1
     7     1     2   ar
     8     2     3   ar
     9     3     4   ar
    10     4     7    1
    11     7     8    1
    12     8     9    1
    13     9    10    1
    14    10    13    1
    15    13    14    1
    16    14    15    1
    17    15    16   ar
    18    16    17   ar
    19    17    18   ar
    20    18    19   ar
    21    19    21    1
    22    21    22    2
    23    21    23    1
    24    19    20   ar
    25    10    11    1
    26    11    12    1
    27     4     5   ar
    28     5     6   ar
    29    31    32   ar
    30    32    33   ar
    31    33    34   ar
    32    34    35   ar
    33    35    36   ar
    34    36    39    1
    35    39    40   ar
    36    40    41   ar
    37    41    42   ar
    38    42    43   ar
    39    43    44   ar
    40    36    37   ar
    41    37    38   ar
    42    38    30   ar
    43     6     1   ar
    44    38    33   ar
    45    12     7    1
    46    44    39   ar
    47    20    15   ar
    48    27    28    1
    49    23    24    1
@<TRIPOS>MOLECULE
*****
 44 49 0 0 0
SMALL
GASTEIGER

@<TRIPOS>ATOM
      1 C         -60.4129  -46.3437  -22.2117 C.ar    1  UNL1        0.0702
      2 C         -59.4125  -45.4438  -22.6114 C.ar    1  UNL1        0.0191
      3 C         -59.5555  -44.0801  -22.3516 C.ar    1  UNL1        0.0356
      4 C         -60.7052  -43.6184  -21.6919 C.ar    1  UNL1        0.1318
      5 N         -61.6651  -44.5087  -21.3206 N.ar    1  UNL1       -0.2279
      6 C         -61.5545  -45.8383  -21.5770 C.ar    1  UNL1        0.1149
      7 N         -60.8496  -42.2326  -21.3355 N.pl3   1  UNL1       -0.2932
      8 C         -60.8324  -41.7933  -19.9353 C.3     1  UNL1        0.0923
      9 C         -62.2448  -41.3681  -19.4842 C.3     1  UNL1        0.0252
     10 C         -63.2023  -41.1390  -20.6771 C.3     1  UNL1        0.0472
     11 C         -62.4685  -40.4169  -21.8263 C.3     1  UNL1        0.0252
     12 C         -61.2944  -41.2689  -22.3528 C.3     1  UNL1        0.0923
     13 C         -64.4623  -40.3706  -20.2365 C.3     1  UNL1        0.2054
     14 O         -64.1423  -39.4019  -19.2357 O.3     1  UNL1       -0.4755
     15 C         -63.9327  -38.0317  -19.4726 C.ar    1  UNL1        0.1388
     16 C         -62.7678  -37.6477  -20.1452 C.ar    1  UNL1        0.0369
     17 C         -62.5126  -36.3005  -20.4083 C.ar    1  UNL1        0.0033
     18 C         -63.4208  -35.3213  -20.0016 C.ar    1  UNL1        0.0066
     19 C         -64.5995  -35.6806  -19.3283 C.ar    1  UNL1        0.0785
     20 C         -64.8455  -37.0390  -19.0591 C.ar    1  UNL1        0.0433
     21 C         -65.5673  -34.6431  -18.9071 C.2     1  UNL1        0.3381
     22 O         -66.7444  -34.6460  -19.3588 O.2     1  UNL1       -0.2451
     23 O         -65.1877  -33.6537  -18.0054 O.3     1  UNL1       -0.4771
     24 H         -65.8409  -32.9365  -17.7138 H       1  UNL1        0.2954
     25 C         -61.1775  -48.5079  -23.2953 C.2     1  UNL1        0.2839
     26 O         -61.6136  -49.6171  -22.8884 O.2     1  UNL1       -0.2665
     27 N         -60.3002  -47.7571  -22.4457 N.am    1  UNL1       -0.2766
     28 H         -59.5942  -48.2927  -21.8915 H       1  UNL1        0.1553
     29 C         -63.9884  -49.0209  -24.8676 C.3     1  UNL1        0.0345
     30 C         -62.7692  -48.2807  -25.3289 C.ar    1  UNL1        0.0202
     31 C         -61.5657  -48.0500  -24.6459 C.ar    1  UNL1        0.1946
     32 O         -60.7779  -47.2792  -25.3754 O.2     1  UNL1       -0.4492
     33 C         -61.4002  -47.0077  -26.4960 C.ar    1  UNL1        0.1452
     34 C         -60.9505  -46.2070  -27.5395 C.ar    1  UNL1        0.0375
     35 C         -61.8067  -46.0102  -28.6370 C.ar    1  UNL1        0.0031
     36 C         -63.0869  -46.6280  -28.6854 C.ar    1  UNL1        0.0002
     37 C         -63.4958  -47.4519  -27.6074 C.ar    1  UNL1        0.0028
     38 C         -62.6275  -47.6085  -26.5267 C.ar    1  UNL1        0.0337
     39 C         -63.9878  -46.4093  -29.8503 C.ar    1  UNL1        0.0000
     40 C         -64.6316  -47.4965  -30.4741 C.ar    1  UNL1        0.0000
     41 C         -65.4573  -47.2919  -31.5835 C.ar    1  UNL1        0.0000
     42 C         -65.6546  -46.0033  -32.0825 C.ar    1  UNL1        0.0000
     43 C         -65.0298  -44.9153  -31.4707 C.ar    1  UNL1        0.0000
     44 C         -64.2037  -45.1131  -30.3603 C.ar    1  UNL1        0.0000
@<TRIPOS>BOND
     1    29    30    1
     2    30    31   ar
     3    31    25    1
     4    25    26    2
     5    25    27   am
     6    27     1    1
     7     1     2   ar
     8     2     3   ar
     9     3     4   ar
    10     4     7    1
    11     7     8    1
    12     8     9    1
    13     9    10    1
    14    10    13    1
    15    13    14    1
    16    14    15    1
    17    15    16   ar
    18    16    17   ar
    19    17    18   ar
    20    18    19   ar
    21    19    21    1
    22    21    22    2
    23    21    23    1
    24    19    20   ar
    25    10    11    1
    26    11    12    1
    27     4     5   ar
    28     5     6   ar
    29    31    32   ar
    30    32    33   ar
    31    33    34   ar
    32    34    35   ar
    33    35    36   ar
    34    36    39    1
    35    39    40   ar
    36    40    41   ar
    37    41    42   ar
    38    42    43   ar
    39    43    44   ar
    40    36    37   ar
    41    37    38   ar
    42    38    30   ar
    43     6     1   ar
    44    38    33   ar
    45    12     7    1
    46    44    39   ar
    47    20    15   ar
    48    27    28    1
    49    23    24    1
