@<TRIPOS>MOLECULE
*****
 44 48 0 0 0
SMALL
GASTEIGER

@<TRIPOS>ATOM
      1 C         -27.1173   49.2443   -6.2035 C.3     1  UNL1        0.1890
      2 C         -27.4454   49.5670   -4.7349 C.3     1  UNL1        0.2176
      3 F         -27.9435   50.8564   -4.6020 F       1  UNL1       -0.2320
      4 C         -28.5071   48.5183   -4.3129 C.3     1  UNL1        0.1592
      5 O         -29.4765   49.0714   -3.4469 O.3     1  UNL1       -0.3781
      6 C         -29.1768   48.0876   -5.6390 C.3     1  UNL1        0.1293
      7 N         -28.2139   48.4077   -6.6786 N.am    1  UNL1       -0.2520
      8 C         -28.2953   47.8979   -8.0207 C.2     1  UNL1        0.3081
      9 O         -27.2427   47.7970   -8.7079 O.2     1  UNL1       -0.2522
     10 N         -29.5731   47.5914   -8.6030 N.am    1  UNL1       -0.2681
     11 H         -29.9543   49.8042   -3.9162 H       1  UNL1        0.2109
     12 H         -30.4289   47.8530   -8.0646 H       1  UNL1        0.1564
     13 C         -27.8001   47.3483   -3.6046 C.ar    1  UNL1        0.0336
     14 C         -26.3931   47.3265   -3.4540 C.ar    1  UNL1        0.0026
     15 C         -25.7596   46.2891   -2.7657 C.ar    1  UNL1        0.0295
     16 C         -26.5126   45.2694   -2.1866 C.ar    1  UNL1        0.1424
     17 F         -25.8948   44.2666   -1.5151 F       1  UNL1       -0.2041
     18 C         -27.9036   45.2952   -2.2783 C.ar    1  UNL1        0.0590
     19 C         -28.5490   46.3292   -2.9644 C.ar    1  UNL1        0.1407
     20 F         -29.9060   46.3391   -2.9721 F       1  UNL1       -0.2043
     21 C         -29.7478   47.2269   -9.9819 C.ar    1  UNL1        0.0516
     22 C         -30.4613   48.0491  -10.8717 C.ar    1  UNL1        0.0156
     23 C         -30.6031   47.6794  -12.2130 C.ar    1  UNL1        0.0127
     24 C         -30.0260   46.4941  -12.6794 C.ar    1  UNL1        0.0578
     25 CL        -30.2009   46.0349  -14.3630 Cl      1  UNL1       -0.0822
     26 C         -29.3040   45.6784  -11.8028 C.ar    1  UNL1        0.0127
     27 C         -29.1579   46.0477  -10.4626 C.ar    1  UNL1        0.0156
     28 O         -27.1264   51.6190   -6.5424 O.2     1  UNL1       -0.2729
     29 C         -26.9789   50.4794   -7.0589 C.2     1  UNL1        0.2482
     30 N         -26.7176   50.3574   -8.4632 N.am    1  UNL1       -0.2679
     31 H         -27.3049   49.6780   -8.9973 H       1  UNL1        0.1563
     32 C         -25.4715   50.7507   -9.0613 C.ar    1  UNL1        0.1346
     33 C         -25.3384   50.9390  -10.4480 C.ar    1  UNL1        0.0406
     34 C         -24.1304   51.4064  -10.9659 C.ar    1  UNL1        0.0736
     35 C         -23.0542   51.6811  -10.1105 C.ar    1  UNL1        0.2466
     36 C         -23.2231   51.4691   -8.7342 C.ar    1  UNL1        0.1691
     37 N         -24.4108   51.0186   -8.2513 N.ar    1  UNL1       -0.2228
     38 N         -21.8153   52.2060  -10.6324 N.am    1  UNL1       -0.0841
     39 C         -20.7739   51.3441  -10.8514 C.2     1  UNL1        0.2905
     40 C         -19.5637   51.8043  -11.3725 C.2     1  UNL1        0.0758
     41 C         -19.4166   53.1562  -11.6697 C.2     1  UNL1        0.0161
     42 C         -20.4734   54.0333  -11.4368 C.2     1  UNL1        0.1156
     43 C         -21.6738   53.5450  -10.9090 C.2     1  UNL1        0.4230
     44 O         -22.6128   54.3551  -10.6771 O.2     1  UNL1       -0.2135
@<TRIPOS>BOND
     1    28    29    2
     2    29    30   am
     3    30    32    1
     4    32    33   ar
     5    33    34   ar
     6    34    35   ar
     7    35    38    1
     8    38    39    1
     9    39    40    2
    10    40    41    1
    11    41    42    2
    12    42    43    1
    13    43    44    2
    14    35    36   ar
    15    36    37   ar
    16    29     1    1
    17     1     2    1
    18     2     3    1
    19     2     4    1
    20     4     5    1
    21     4    13    1
    22    13    14   ar
    23    14    15   ar
    24    15    16   ar
    25    16    17    1
    26    16    18   ar
    27    18    19   ar
    28    19    20    1
    29     4     6    1
    30     6     7    1
    31     7     8   am
    32     8     9    2
    33     8    10   am
    34    10    21    1
    35    21    22   ar
    36    22    23   ar
    37    23    24   ar
    38    24    25    1
    39    24    26   ar
    40    26    27   ar
    41    37    32   ar
    42     7     1    1
    43    27    21   ar
    44    43    38    1
    45    19    13   ar
    46    30    31    1
    47     5    11    1
    48    10    12    1
@<TRIPOS>MOLECULE
*****
 44 48 0 0 0
SMALL
GASTEIGER

@<TRIPOS>ATOM
      1 C         -27.5702   50.6520   -7.5653 C.3     1  UNL1        0.1890
      2 C         -27.9877   51.4677   -6.3288 C.3     1  UNL1        0.2176
      3 F         -28.1429   52.8118   -6.6414 F       1  UNL1       -0.2320
      4 C         -29.3323   50.8494   -5.8656 C.3     1  UNL1        0.1592
      5 O         -30.2255   51.8333   -5.3861 O.3     1  UNL1       -0.3781
      6 C         -29.9157   50.1900   -7.1374 C.3     1  UNL1        0.1293
      7 N         -28.7775   49.9656   -8.0117 N.am    1  UNL1       -0.2520
      8 C         -28.8170   49.1021   -9.1608 C.2     1  UNL1        0.3081
      9 O         -27.7486   48.5745   -9.5739 O.2     1  UNL1       -0.2522
     10 N         -30.0449   48.9141   -9.8840 N.am    1  UNL1       -0.2681
     11 H         -30.4300   52.4734   -6.1168 H       1  UNL1        0.2109
     12 H         -30.8638   49.5035   -9.6145 H       1  UNL1        0.1564
     13 C         -29.0539   49.8270   -4.7486 C.ar    1  UNL1        0.0336
     14 C         -27.7305   49.5062   -4.3632 C.ar    1  UNL1        0.0026
     15 C         -27.4824   48.6171   -3.3148 C.ar    1  UNL1        0.0295
     16 C         -28.5428   48.0530   -2.6081 C.ar    1  UNL1        0.1424
     17 F         -28.2983   47.1941   -1.5879 F       1  UNL1       -0.2041
     18 C         -29.8548   48.3920   -2.9363 C.ar    1  UNL1        0.0590
     19 C         -30.1154   49.2817   -3.9837 C.ar    1  UNL1        0.1407
     20 F         -31.4067   49.6244   -4.2223 F       1  UNL1       -0.2043
     21 C         -30.1307   48.1943  -11.1246 C.ar    1  UNL1        0.0516
     22 C         -30.4435   48.8474  -12.3297 C.ar    1  UNL1        0.0156
     23 C         -30.5049   48.1265  -13.5266 C.ar    1  UNL1        0.0127
     24 C         -30.2443   46.7526  -13.5328 C.ar    1  UNL1        0.0578
     25 CL        -30.3171   45.8515  -15.0358 Cl      1  UNL1       -0.0822
     26 C         -29.9198   46.0993  -12.3401 C.ar    1  UNL1        0.0127
     27 C         -29.8543   46.8184  -11.1432 C.ar    1  UNL1        0.0156
     28 O         -27.3275   52.7245   -8.7486 O.2     1  UNL1       -0.2729
     29 C         -27.0041   51.5093   -8.6702 C.2     1  UNL1        0.2482
     30 N         -26.1304   50.9355   -9.6513 N.am    1  UNL1       -0.2679
     31 H         -26.4322   50.0344  -10.0856 H       1  UNL1        0.1563
     32 C         -24.7343   51.2647   -9.7395 C.ar    1  UNL1        0.1346
     33 C         -23.9123   51.3320   -8.6011 C.ar    1  UNL1        0.0406
     34 C         -22.5460   51.5688   -8.7524 C.ar    1  UNL1        0.0736
     35 C         -21.9965   51.7444  -10.0301 C.ar    1  UNL1        0.2466
     36 C         -22.8520   51.6817  -11.1400 C.ar    1  UNL1        0.1691
     37 N         -24.1792   51.4443  -10.9693 N.ar    1  UNL1       -0.2228
     38 N         -20.5777   51.9466  -10.1993 N.am    1  UNL1       -0.0841
     39 C         -20.0326   51.7871  -11.4454 C.2     1  UNL1        0.2905
     40 C         -18.6685   51.9907  -11.6593 C.2     1  UNL1        0.0758
     41 C         -17.8555   52.3579  -10.5908 C.2     1  UNL1        0.0161
     42 C         -18.4098   52.5097   -9.3219 C.2     1  UNL1        0.1156
     43 C         -19.7798   52.2945   -9.1354 C.2     1  UNL1        0.4230
     44 O         -20.2633   52.4084   -7.9757 O.2     1  UNL1       -0.2135
@<TRIPOS>BOND
     1    28    29    2
     2    29    30   am
     3    30    32    1
     4    32    33   ar
     5    33    34   ar
     6    34    35   ar
     7    35    38    1
     8    38    39    1
     9    39    40    2
    10    40    41    1
    11    41    42    2
    12    42    43    1
    13    43    44    2
    14    35    36   ar
    15    36    37   ar
    16    29     1    1
    17     1     2    1
    18     2     3    1
    19     2     4    1
    20     4     5    1
    21     4    13    1
    22    13    14   ar
    23    14    15   ar
    24    15    16   ar
    25    16    17    1
    26    16    18   ar
    27    18    19   ar
    28    19    20    1
    29     4     6    1
    30     6     7    1
    31     7     8   am
    32     8     9    2
    33     8    10   am
    34    10    21    1
    35    21    22   ar
    36    22    23   ar
    37    23    24   ar
    38    24    25    1
    39    24    26   ar
    40    26    27   ar
    41    37    32   ar
    42     7     1    1
    43    27    21   ar
    44    43    38    1
    45    19    13   ar
    46    30    31    1
    47     5    11    1
    48    10    12    1
@<TRIPOS>MOLECULE
*****
 44 48 0 0 0
SMALL
GASTEIGER

@<TRIPOS>ATOM
      1 C         -27.9064   49.8138   -8.3265 C.3     1  UNL1        0.1890
      2 C         -29.4097   49.9428   -8.6300 C.3     1  UNL1        0.2176
      3 F         -30.0109   50.8837   -7.8043 F       1  UNL1       -0.2320
      4 C         -29.4912   50.3792  -10.1158 C.3     1  UNL1        0.1592
      5 O         -30.5441   51.2945  -10.3376 O.3     1  UNL1       -0.3781
      6 C         -28.1340   51.0674  -10.3940 C.3     1  UNL1        0.1293
      7 N         -27.2249   50.5472   -9.3874 N.am    1  UNL1       -0.2520
      8 C         -25.7953   50.6819   -9.4630 C.2     1  UNL1        0.3081
      9 O         -25.0636   49.8402   -8.8743 O.2     1  UNL1       -0.2522
     10 N         -25.2083   51.8137  -10.1267 N.am    1  UNL1       -0.2681
     11 H         -30.3862   52.1120   -9.7970 H       1  UNL1        0.2109
     12 H         -25.8470   52.5749  -10.4479 H       1  UNL1        0.1564
     13 C         -29.7079   49.1319  -10.9920 C.ar    1  UNL1        0.0336
     14 C         -29.6055   47.8291  -10.4489 C.ar    1  UNL1        0.0026
     15 C         -29.8534   46.7010  -11.2345 C.ar    1  UNL1        0.0295
     16 C         -30.2382   46.8449  -12.5662 C.ar    1  UNL1        0.1424
     17 F         -30.4827   45.7478  -13.3245 F       1  UNL1       -0.2041
     18 C         -30.3946   48.1189  -13.1104 C.ar    1  UNL1        0.0590
     19 C         -30.1498   49.2558  -12.3331 C.ar    1  UNL1        0.1407
     20 F         -30.3752   50.4712  -12.8932 F       1  UNL1       -0.2043
     21 C         -23.7999   52.0979  -10.1108 C.ar    1  UNL1        0.0516
     22 C         -23.0167   51.8540   -8.9689 C.ar    1  UNL1        0.0156
     23 C         -21.6446   52.1242   -8.9847 C.ar    1  UNL1        0.0127
     24 C         -21.0415   52.6286  -10.1412 C.ar    1  UNL1        0.0578
     25 CL        -19.3198   52.9620  -10.1603 Cl      1  UNL1       -0.0822
     26 C         -21.8122   52.8611  -11.2844 C.ar    1  UNL1        0.0127
     27 C         -23.1830   52.5884  -11.2722 C.ar    1  UNL1        0.0156
     28 O         -27.7065   51.5854   -6.7216 O.2     1  UNL1       -0.2729
     29 C         -27.5318   50.3631   -6.9721 C.2     1  UNL1        0.2482
     30 N         -26.9437   49.5062   -5.9848 N.am    1  UNL1       -0.2679
     31 H         -26.1561   48.8945   -6.2967 H       1  UNL1        0.1563
     32 C         -27.6246   49.1251   -4.7780 C.ar    1  UNL1        0.1346
     33 C         -29.0272   49.1183   -4.6856 C.ar    1  UNL1        0.0406
     34 C         -29.6374   48.6553   -3.5197 C.ar    1  UNL1        0.0736
     35 C         -28.8578   48.2053   -2.4450 C.ar    1  UNL1        0.2466
     36 C         -27.4613   48.2392   -2.5720 C.ar    1  UNL1        0.1691
     37 N         -26.8885   48.6890   -3.7193 N.ar    1  UNL1       -0.2228
     38 N         -29.4805   47.6842   -1.2520 N.am    1  UNL1       -0.0841
     39 C         -29.8714   48.5608   -0.2751 C.2     1  UNL1        0.2905
     40 C         -30.4944   48.1034    0.8870 C.2     1  UNL1        0.0758
     41 C         -30.7173   46.7393    1.0525 C.2     1  UNL1        0.0161
     42 C         -30.3099   45.8481    0.0624 C.2     1  UNL1        0.1156
     43 C         -29.6833   46.3343   -1.0903 C.2     1  UNL1        0.4230
     44 O         -29.2945   45.5135   -1.9661 O.2     1  UNL1       -0.2135
@<TRIPOS>BOND
     1    28    29    2
     2    29    30   am
     3    30    32    1
     4    32    33   ar
     5    33    34   ar
     6    34    35   ar
     7    35    38    1
     8    38    39    1
     9    39    40    2
    10    40    41    1
    11    41    42    2
    12    42    43    1
    13    43    44    2
    14    35    36   ar
    15    36    37   ar
    16    29     1    1
    17     1     2    1
    18     2     3    1
    19     2     4    1
    20     4     5    1
    21     4    13    1
    22    13    14   ar
    23    14    15   ar
    24    15    16   ar
    25    16    17    1
    26    16    18   ar
    27    18    19   ar
    28    19    20    1
    29     4     6    1
    30     6     7    1
    31     7     8   am
    32     8     9    2
    33     8    10   am
    34    10    21    1
    35    21    22   ar
    36    22    23   ar
    37    23    24   ar
    38    24    25    1
    39    24    26   ar
    40    26    27   ar
    41    37    32   ar
    42     7     1    1
    43    27    21   ar
    44    43    38    1
    45    19    13   ar
    46    30    31    1
    47     5    11    1
    48    10    12    1
@<TRIPOS>MOLECULE
*****
 44 48 0 0 0
SMALL
GASTEIGER

@<TRIPOS>ATOM
      1 C         -28.4356   49.9861   -8.2296 C.3     1  UNL1        0.1890
      2 C         -29.0293   50.6516   -6.9753 C.3     1  UNL1        0.2176
      3 F         -29.1902   52.0186   -7.1591 F       1  UNL1       -0.2320
      4 C         -30.3990   49.9589   -6.7539 C.3     1  UNL1        0.1592
      5 O         -31.3770   50.8655   -6.2881 O.3     1  UNL1       -0.3781
      6 C         -30.7990   49.4324   -8.1523 C.3     1  UNL1        0.1293
      7 N         -29.5550   49.3290   -8.8954 N.am    1  UNL1       -0.2520
      8 C         -29.4237   48.5972  -10.1262 C.2     1  UNL1        0.3081
      9 O         -28.2955   48.1402  -10.4557 O.2     1  UNL1       -0.2522
     10 N         -30.5463   48.4656  -11.0141 N.am    1  UNL1       -0.2681
     11 H         -31.5117   51.5782   -6.9659 H       1  UNL1        0.2109
     12 H         -31.4116   49.0050  -10.7882 H       1  UNL1        0.1564
     13 C         -30.2255   48.8250   -5.7268 C.ar    1  UNL1        0.0336
     14 C         -30.1973   47.4691   -6.1312 C.ar    1  UNL1        0.0026
     15 C         -29.9882   46.4463   -5.2032 C.ar    1  UNL1        0.0295
     16 C         -29.7718   46.7511   -3.8607 C.ar    1  UNL1        0.1424
     17 F         -29.5643   45.7560   -2.9634 F       1  UNL1       -0.2041
     18 C         -29.7452   48.0819   -3.4460 C.ar    1  UNL1        0.0590
     19 C         -29.9527   49.1146   -4.3664 C.ar    1  UNL1        0.1407
     20 F         -29.8565   50.3932   -3.9218 F       1  UNL1       -0.2043
     21 C         -30.4546   47.8857  -12.3256 C.ar    1  UNL1        0.0516
     22 C         -30.1898   46.5164  -12.5037 C.ar    1  UNL1        0.0156
     23 C         -30.1217   45.9735  -13.7907 C.ar    1  UNL1        0.0127
     24 C         -30.3277   46.7884  -14.9084 C.ar    1  UNL1        0.0578
     25 CL        -30.2467   46.1043  -16.5213 Cl      1  UNL1       -0.0822
     26 C         -30.6044   48.1482  -14.7379 C.ar    1  UNL1        0.0127
     27 C         -30.6766   48.6924  -13.4524 C.ar    1  UNL1        0.0156
     28 O         -28.0908   52.1884   -9.1155 O.2     1  UNL1       -0.2729
     29 C         -27.7673   50.9715   -9.1562 C.2     1  UNL1        0.2482
     30 N         -26.7938   50.5202  -10.1069 N.am    1  UNL1       -0.2679
     31 H         -27.0427   49.6814  -10.6782 H       1  UNL1        0.1563
     32 C         -25.3987   50.8513  -10.0111 C.ar    1  UNL1        0.1346
     33 C         -24.6337   51.1843  -11.1424 C.ar    1  UNL1        0.0406
     34 C         -23.3066   51.5831  -10.9822 C.ar    1  UNL1        0.0736
     35 C         -22.7373   51.6461   -9.7026 C.ar    1  UNL1        0.2466
     36 C         -23.5303   51.2945   -8.6002 C.ar    1  UNL1        0.1691
     37 N         -24.8226   50.9142   -8.7794 N.ar    1  UNL1       -0.2228
     38 N         -21.3790   52.0991   -9.5233 N.am    1  UNL1       -0.0841
     39 C         -21.0069   52.6030   -8.3054 C.2     1  UNL1        0.2905
     40 C         -19.6990   53.0354   -8.0810 C.2     1  UNL1        0.0758
     41 C         -18.7653   52.9541   -9.1102 C.2     1  UNL1        0.0161
     42 C         -19.1480   52.4508  -10.3514 C.2     1  UNL1        0.1156
     43 C         -20.4674   52.0290  -10.5497 C.2     1  UNL1        0.4230
     44 O         -20.8071   51.6014  -11.6870 O.2     1  UNL1       -0.2135
@<TRIPOS>BOND
     1    28    29    2
     2    29    30   am
     3    30    32    1
     4    32    33   ar
     5    33    34   ar
     6    34    35   ar
     7    35    38    1
     8    38    39    1
     9    39    40    2
    10    40    41    1
    11    41    42    2
    12    42    43    1
    13    43    44    2
    14    35    36   ar
    15    36    37   ar
    16    29     1    1
    17     1     2    1
    18     2     3    1
    19     2     4    1
    20     4     5    1
    21     4    13    1
    22    13    14   ar
    23    14    15   ar
    24    15    16   ar
    25    16    17    1
    26    16    18   ar
    27    18    19   ar
    28    19    20    1
    29     4     6    1
    30     6     7    1
    31     7     8   am
    32     8     9    2
    33     8    10   am
    34    10    21    1
    35    21    22   ar
    36    22    23   ar
    37    23    24   ar
    38    24    25    1
    39    24    26   ar
    40    26    27   ar
    41    37    32   ar
    42     7     1    1
    43    27    21   ar
    44    43    38    1
    45    19    13   ar
    46    30    31    1
    47     5    11    1
    48    10    12    1
@<TRIPOS>MOLECULE
*****
 44 48 0 0 0
SMALL
GASTEIGER

@<TRIPOS>ATOM
      1 C         -28.7645   51.2646   -9.9920 C.3     1  UNL1        0.1890
      2 C         -29.7783   50.2008   -9.5348 C.3     1  UNL1        0.2176
      3 F         -30.0149   49.2678  -10.5357 F       1  UNL1       -0.2320
      4 C         -29.1349   49.5288   -8.2941 C.3     1  UNL1        0.1592
      5 O         -29.4042   48.1428   -8.2484 O.3     1  UNL1       -0.3781
      6 C         -27.6156   49.7599   -8.4708 C.3     1  UNL1        0.1293
      7 N         -27.5007   50.9036   -9.3592 N.am    1  UNL1       -0.2520
      8 C         -26.2833   51.6460   -9.5444 C.2     1  UNL1        0.3081
      9 O         -26.3445   52.8517   -9.9088 O.2     1  UNL1       -0.2522
     10 N         -25.0094   50.9955   -9.4030 N.am    1  UNL1       -0.2681
     11 H         -29.0193   47.7081   -9.0536 H       1  UNL1        0.2109
     12 H         -25.0036   49.9593   -9.2728 H       1  UNL1        0.1564
     13 C         -29.6866   50.1968   -7.0213 C.ar    1  UNL1        0.0336
     14 C         -29.0868   51.3621   -6.4874 C.ar    1  UNL1        0.0026
     15 C         -29.6210   51.9948   -5.3625 C.ar    1  UNL1        0.0295
     16 C         -30.7788   51.5015   -4.7642 C.ar    1  UNL1        0.1424
     17 F         -31.2973   52.1211   -3.6753 F       1  UNL1       -0.2041
     18 C         -31.4165   50.3842   -5.3016 C.ar    1  UNL1        0.0590
     19 C         -30.8912   49.7427   -6.4281 C.ar    1  UNL1        0.1407
     20 F         -31.5836   48.6969   -6.9465 F       1  UNL1       -0.2043
     21 C         -23.7585   51.6268   -9.7213 C.ar    1  UNL1        0.0516
     22 C         -23.5081   52.1514  -11.0015 C.ar    1  UNL1        0.0156
     23 C         -22.2882   52.7756  -11.2811 C.ar    1  UNL1        0.0127
     24 C         -21.3141   52.8912  -10.2845 C.ar    1  UNL1        0.0578
     25 CL        -19.7869   53.6788  -10.6360 Cl      1  UNL1       -0.0822
     26 C         -21.5616   52.3834   -9.0056 C.ar    1  UNL1        0.0127
     27 C         -22.7816   51.7623   -8.7228 C.ar    1  UNL1        0.0156
     28 O         -27.4780   51.5316  -11.9990 O.2     1  UNL1       -0.2729
     29 C         -28.6126   51.3241  -11.4919 C.2     1  UNL1        0.2482
     30 N         -29.7609   51.1829  -12.3384 N.am    1  UNL1       -0.2679
     31 H         -30.6036   51.7494  -12.0922 H       1  UNL1        0.1563
     32 C         -29.9696   50.0406  -13.1849 C.ar    1  UNL1        0.1346
     33 C         -30.7518   48.9459  -12.7779 C.ar    1  UNL1        0.0406
     34 C         -30.9941   47.9032  -13.6724 C.ar    1  UNL1        0.0736
     35 C         -30.4567   47.9434  -14.9666 C.ar    1  UNL1        0.2466
     36 C         -29.6718   49.0475  -15.3304 C.ar    1  UNL1        0.1691
     37 N         -29.4535   50.0545  -14.4444 N.ar    1  UNL1       -0.2228
     38 N         -30.7378   46.8906  -15.9127 N.am    1  UNL1       -0.0841
     39 C         -31.3100   47.2179  -17.1131 C.2     1  UNL1        0.2905
     40 C         -31.5823   46.2350  -18.0658 C.2     1  UNL1        0.0758
     41 C         -31.2692   44.9074  -17.7882 C.2     1  UNL1        0.0161
     42 C         -30.6965   44.5749  -16.5627 C.2     1  UNL1        0.1156
     43 C         -30.4390   45.5803  -15.6242 C.2     1  UNL1        0.4230
     44 O         -29.9458   45.2612  -14.5077 O.2     1  UNL1       -0.2135
@<TRIPOS>BOND
     1    28    29    2
     2    29    30   am
     3    30    32    1
     4    32    33   ar
     5    33    34   ar
     6    34    35   ar
     7    35    38    1
     8    38    39    1
     9    39    40    2
    10    40    41    1
    11    41    42    2
    12    42    43    1
    13    43    44    2
    14    35    36   ar
    15    36    37   ar
    16    29     1    1
    17     1     2    1
    18     2     3    1
    19     2     4    1
    20     4     5    1
    21     4    13    1
    22    13    14   ar
    23    14    15   ar
    24    15    16   ar
    25    16    17    1
    26    16    18   ar
    27    18    19   ar
    28    19    20    1
    29     4     6    1
    30     6     7    1
    31     7     8   am
    32     8     9    2
    33     8    10   am
    34    10    21    1
    35    21    22   ar
    36    22    23   ar
    37    23    24   ar
    38    24    25    1
    39    24    26   ar
    40    26    27   ar
    41    37    32   ar
    42     7     1    1
    43    27    21   ar
    44    43    38    1
    45    19    13   ar
    46    30    31    1
    47     5    11    1
    48    10    12    1
@<TRIPOS>MOLECULE
*****
 44 48 0 0 0
SMALL
GASTEIGER

@<TRIPOS>ATOM
      1 C         -30.1769   48.0897   -8.5441 C.3     1  UNL1        0.1890
      2 C         -30.7777   46.6729   -8.5270 C.3     1  UNL1        0.2176
      3 F         -31.3641   46.3600   -9.7462 F       1  UNL1       -0.2320
      4 C         -29.5860   45.7267   -8.2280 C.3     1  UNL1        0.1592
      5 O         -29.6868   44.5127   -8.9433 O.3     1  UNL1       -0.3781
      6 C         -28.3392   46.5099   -8.7020 C.3     1  UNL1        0.1293
      7 N         -28.7382   47.9068   -8.7005 N.am    1  UNL1       -0.2520
      8 C         -27.8060   48.9989   -8.7769 C.2     1  UNL1        0.3081
      9 O         -28.1279   50.1204   -8.2982 O.2     1  UNL1       -0.2522
     10 N         -26.5574   48.8386   -9.4706 N.am    1  UNL1       -0.2681
     11 H         -29.6753   44.7049   -9.9171 H       1  UNL1        0.2109
     12 H         -26.4055   47.9519  -10.0010 H       1  UNL1        0.1564
     13 C         -29.5524   45.4267   -6.7182 C.ar    1  UNL1        0.0336
     14 C         -28.5919   46.0314   -5.8730 C.ar    1  UNL1        0.0026
     15 C         -28.5967   45.7970   -4.4959 C.ar    1  UNL1        0.0295
     16 C         -29.5740   44.9828   -3.9268 C.ar    1  UNL1        0.1424
     17 F         -29.5786   44.7614   -2.5891 F       1  UNL1       -0.2041
     18 C         -30.5611   44.4158   -4.7318 C.ar    1  UNL1        0.0590
     19 C         -30.5667   44.6439   -6.1118 C.ar    1  UNL1        0.1407
     20 F         -31.5839   44.1183   -6.8404 F       1  UNL1       -0.2043
     21 C         -25.6467   49.9213   -9.7219 C.ar    1  UNL1        0.0516
     22 C         -24.8731   50.4816   -8.6902 C.ar    1  UNL1        0.0156
     23 C         -23.9820   51.5241   -8.9643 C.ar    1  UNL1        0.0127
     24 C         -23.8474   52.0078  -10.2694 C.ar    1  UNL1        0.0578
     25 CL        -22.7256   53.3119  -10.6116 Cl      1  UNL1       -0.0822
     26 C         -24.6041   51.4463  -11.3024 C.ar    1  UNL1        0.0127
     27 C         -25.4926   50.4019  -11.0315 C.ar    1  UNL1        0.0156
     28 O         -30.6277   50.2021   -9.5875 O.2     1  UNL1       -0.2729
     29 C         -30.7298   48.9482   -9.6548 C.2     1  UNL1        0.2482
     30 N         -31.4030   48.3426  -10.7662 N.am    1  UNL1       -0.2679
     31 H         -32.1263   47.6213  -10.5463 H       1  UNL1        0.1563
     32 C         -30.8595   48.3343  -12.0965 C.ar    1  UNL1        0.1346
     33 C         -30.3922   47.1549  -12.7019 C.ar    1  UNL1        0.0406
     34 C         -29.9565   47.1878  -14.0267 C.ar    1  UNL1        0.0736
     35 C         -29.9789   48.3896  -14.7481 C.ar    1  UNL1        0.2466
     36 C         -30.4413   49.5471  -14.1046 C.ar    1  UNL1        0.1691
     37 N         -30.8662   49.4904  -12.8150 N.ar    1  UNL1       -0.2228
     38 N         -29.5711   48.4246  -16.1320 N.am    1  UNL1       -0.0841
     39 C         -30.0735   47.4843  -16.9916 C.2     1  UNL1        0.2905
     40 C         -29.7215   47.4911  -18.3422 C.2     1  UNL1        0.0758
     41 C         -28.8477   48.4652  -18.8167 C.2     1  UNL1        0.0161
     42 C         -28.3297   49.4147  -17.9389 C.2     1  UNL1        0.1156
     43 C         -28.6960   49.3810  -16.5889 C.2     1  UNL1        0.4230
     44 O         -28.1976   50.2299  -15.7998 O.2     1  UNL1       -0.2135
@<TRIPOS>BOND
     1    28    29    2
     2    29    30   am
     3    30    32    1
     4    32    33   ar
     5    33    34   ar
     6    34    35   ar
     7    35    38    1
     8    38    39    1
     9    39    40    2
    10    40    41    1
    11    41    42    2
    12    42    43    1
    13    43    44    2
    14    35    36   ar
    15    36    37   ar
    16    29     1    1
    17     1     2    1
    18     2     3    1
    19     2     4    1
    20     4     5    1
    21     4    13    1
    22    13    14   ar
    23    14    15   ar
    24    15    16   ar
    25    16    17    1
    26    16    18   ar
    27    18    19   ar
    28    19    20    1
    29     4     6    1
    30     6     7    1
    31     7     8   am
    32     8     9    2
    33     8    10   am
    34    10    21    1
    35    21    22   ar
    36    22    23   ar
    37    23    24   ar
    38    24    25    1
    39    24    26   ar
    40    26    27   ar
    41    37    32   ar
    42     7     1    1
    43    27    21   ar
    44    43    38    1
    45    19    13   ar
    46    30    31    1
    47     5    11    1
    48    10    12    1
@<TRIPOS>MOLECULE
*****
 44 48 0 0 0
SMALL
GASTEIGER

@<TRIPOS>ATOM
      1 C         -27.8613   49.0312   -8.7992 C.3     1  UNL1        0.1890
      2 C         -29.3891   49.1401   -8.9504 C.3     1  UNL1        0.2176
      3 F         -29.9617   49.7556   -7.8451 F       1  UNL1       -0.2320
      4 C         -29.6143   49.9846  -10.2314 C.3     1  UNL1        0.1592
      5 O         -30.7229   50.8505  -10.1017 O.3     1  UNL1       -0.3781
      6 C         -28.3180   50.8151  -10.3826 C.3     1  UNL1        0.1293
      7 N         -27.3051   50.0871   -9.6379 N.am    1  UNL1       -0.2520
      8 C         -25.8945   50.3355   -9.7649 C.2     1  UNL1        0.3081
      9 O         -25.0784   49.4106   -9.5019 O.2     1  UNL1       -0.2522
     10 N         -25.4175   51.6490  -10.1009 N.am    1  UNL1       -0.2681
     11 H         -30.5579   51.4834   -9.3549 H       1  UNL1        0.2109
     12 H         -26.1149   52.4253  -10.1390 H       1  UNL1        0.1564
     13 C         -29.8461   49.0356  -11.4215 C.ar    1  UNL1        0.0336
     14 C         -29.8713   47.6318  -11.2441 C.ar    1  UNL1        0.0026
     15 C         -30.1331   46.7761  -12.3167 C.ar    1  UNL1        0.0295
     16 C         -30.4060   47.2981  -13.5796 C.ar    1  UNL1        0.1424
     17 F         -30.6645   46.4648  -14.6174 F       1  UNL1       -0.2041
     18 C         -30.4364   48.6791  -13.7688 C.ar    1  UNL1        0.0590
     19 C         -30.1763   49.5458  -12.7020 C.ar    1  UNL1        0.1407
     20 F         -30.2781   50.8804  -12.9260 F       1  UNL1       -0.2043
     21 C         -24.0271   52.0118  -10.0950 C.ar    1  UNL1        0.0516
     22 C         -23.2023   51.7324   -8.9912 C.ar    1  UNL1        0.0156
     23 C         -21.8483   52.0814   -9.0171 C.ar    1  UNL1        0.0127
     24 C         -21.3043   52.7009  -10.1467 C.ar    1  UNL1        0.0578
     25 CL        -19.6049   53.1332  -10.1788 Cl      1  UNL1       -0.0822
     26 C         -22.1160   52.9698  -11.2529 C.ar    1  UNL1        0.0127
     27 C         -23.4688   52.6186  -11.2307 C.ar    1  UNL1        0.0156
     28 O         -27.3990   50.3246   -6.8326 O.2     1  UNL1       -0.2729
     29 C         -27.4005   49.1855   -7.3709 C.2     1  UNL1        0.2482
     30 N         -26.9295   48.0464   -6.6389 N.am    1  UNL1       -0.2679
     31 H         -26.2389   47.4268   -7.1193 H       1  UNL1        0.1563
     32 C         -27.6460   47.4832   -5.5277 C.ar    1  UNL1        0.1346
     33 C         -27.0092   46.6919   -4.5559 C.ar    1  UNL1        0.0406
     34 C         -27.7335   46.2438   -3.4512 C.ar    1  UNL1        0.0736
     35 C         -29.0887   46.5751   -3.3133 C.ar    1  UNL1        0.2466
     36 C         -29.6906   47.3567   -4.3105 C.ar    1  UNL1        0.1691
     37 N         -28.9641   47.7869   -5.3754 N.ar    1  UNL1       -0.2228
     38 N         -29.8348   46.1527   -2.1524 N.am    1  UNL1       -0.0841
     39 C         -30.7428   45.1362   -2.2858 C.2     1  UNL1        0.2905
     40 C         -31.4730   44.6825   -1.1864 C.2     1  UNL1        0.0758
     41 C         -31.2750   45.2739    0.0580 C.2     1  UNL1        0.0161
     42 C         -30.3584   46.3146    0.1898 C.2     1  UNL1        0.1156
     43 C         -29.6436   46.7525   -0.9305 C.2     1  UNL1        0.4230
     44 O         -28.8372   47.7143   -0.8024 O.2     1  UNL1       -0.2135
@<TRIPOS>BOND
     1    28    29    2
     2    29    30   am
     3    30    32    1
     4    32    33   ar
     5    33    34   ar
     6    34    35   ar
     7    35    38    1
     8    38    39    1
     9    39    40    2
    10    40    41    1
    11    41    42    2
    12    42    43    1
    13    43    44    2
    14    35    36   ar
    15    36    37   ar
    16    29     1    1
    17     1     2    1
    18     2     3    1
    19     2     4    1
    20     4     5    1
    21     4    13    1
    22    13    14   ar
    23    14    15   ar
    24    15    16   ar
    25    16    17    1
    26    16    18   ar
    27    18    19   ar
    28    19    20    1
    29     4     6    1
    30     6     7    1
    31     7     8   am
    32     8     9    2
    33     8    10   am
    34    10    21    1
    35    21    22   ar
    36    22    23   ar
    37    23    24   ar
    38    24    25    1
    39    24    26   ar
    40    26    27   ar
    41    37    32   ar
    42     7     1    1
    43    27    21   ar
    44    43    38    1
    45    19    13   ar
    46    30    31    1
    47     5    11    1
    48    10    12    1
@<TRIPOS>MOLECULE
*****
 44 48 0 0 0
SMALL
GASTEIGER

@<TRIPOS>ATOM
      1 C         -28.0761   50.6596   -8.4555 C.3     1  UNL1        0.1890
      2 C         -28.8423   49.3582   -8.1589 C.3     1  UNL1        0.2176
      3 F         -29.4066   48.8320   -9.3135 F       1  UNL1       -0.2320
      4 C         -27.7871   48.3877   -7.5678 C.3     1  UNL1        0.1592
      5 O         -28.0003   47.0575   -7.9929 O.3     1  UNL1       -0.3781
      6 C         -26.4355   48.9011   -8.1175 C.3     1  UNL1        0.1293
      7 N         -26.6640   50.2935   -8.4629 N.am    1  UNL1       -0.2520
      8 C         -25.6053   51.2321   -8.7193 C.2     1  UNL1        0.3081
      9 O         -25.8118   52.4622   -8.5331 O.2     1  UNL1       -0.2522
     10 N         -24.3550   50.7821   -9.2672 N.am    1  UNL1       -0.2681
     11 H         -27.9222   47.0136   -8.9815 H       1  UNL1        0.2109
     12 H         -24.2867   49.7848   -9.5693 H       1  UNL1        0.1564
     13 C         -27.8575   48.4484   -6.0309 C.ar    1  UNL1        0.0336
     14 C         -28.9319   49.0923   -5.3723 C.ar    1  UNL1        0.0026
     15 C         -29.0193   49.1008   -3.9782 C.ar    1  UNL1        0.0295
     16 C         -28.0589   48.4437   -3.2115 C.ar    1  UNL1        0.1424
     17 F         -28.1496   48.4498   -1.8587 F       1  UNL1       -0.2041
     18 C         -27.0183   47.7597   -3.8385 C.ar    1  UNL1        0.0590
     19 C         -26.9209   47.7438   -5.2338 C.ar    1  UNL1        0.1407
     20 F         -25.9240   47.0134   -5.7946 F       1  UNL1       -0.2043
     21 C         -23.3109   51.6727   -9.6929 C.ar    1  UNL1        0.0516
     22 C         -23.4045   52.3860  -10.9009 C.ar    1  UNL1        0.0156
     23 C         -22.3816   53.2592  -11.2847 C.ar    1  UNL1        0.0127
     24 C         -21.2641   53.4360  -10.4628 C.ar    1  UNL1        0.0578
     25 CL        -19.9850   54.5353  -10.9438 Cl      1  UNL1       -0.0822
     26 C         -21.1709   52.7397   -9.2539 C.ar    1  UNL1        0.0127
     27 C         -22.1937   51.8693   -8.8665 C.ar    1  UNL1        0.0156
     28 O         -27.6475   52.0076  -10.3929 O.2     1  UNL1       -0.2729
     29 C         -28.4717   51.2871   -9.7693 C.2     1  UNL1        0.2482
     30 N         -29.7939   51.0963  -10.2895 N.am    1  UNL1       -0.2679
     31 H         -30.5892   51.2418   -9.6276 H       1  UNL1        0.1563
     32 C         -30.0630   50.3211  -11.4693 C.ar    1  UNL1        0.1346
     33 C         -29.5167   50.6562  -12.7204 C.ar    1  UNL1        0.0406
     34 C         -29.7388   49.8196  -13.8143 C.ar    1  UNL1        0.0736
     35 C         -30.5064   48.6555  -13.6690 C.ar    1  UNL1        0.2466
     36 C         -31.0439   48.3624  -12.4070 C.ar    1  UNL1        0.1691
     37 N         -30.8098   49.1890  -11.3540 N.ar    1  UNL1       -0.2228
     38 N         -30.7053   47.7616  -14.7844 N.am    1  UNL1       -0.0841
     39 C         -31.3831   48.2185  -15.8832 C.2     1  UNL1        0.2905
     40 C         -31.5826   47.3951  -16.9923 C.2     1  UNL1        0.0758
     41 C         -31.0873   46.0943  -16.9768 C.2     1  UNL1        0.0161
     42 C         -30.4069   45.6279  -15.8543 C.2     1  UNL1        0.1156
     43 C         -30.2257   46.4738  -14.7546 C.2     1  UNL1        0.4230
     44 O         -29.6321   46.0293  -13.7339 O.2     1  UNL1       -0.2135
@<TRIPOS>BOND
     1    28    29    2
     2    29    30   am
     3    30    32    1
     4    32    33   ar
     5    33    34   ar
     6    34    35   ar
     7    35    38    1
     8    38    39    1
     9    39    40    2
    10    40    41    1
    11    41    42    2
    12    42    43    1
    13    43    44    2
    14    35    36   ar
    15    36    37   ar
    16    29     1    1
    17     1     2    1
    18     2     3    1
    19     2     4    1
    20     4     5    1
    21     4    13    1
    22    13    14   ar
    23    14    15   ar
    24    15    16   ar
    25    16    17    1
    26    16    18   ar
    27    18    19   ar
    28    19    20    1
    29     4     6    1
    30     6     7    1
    31     7     8   am
    32     8     9    2
    33     8    10   am
    34    10    21    1
    35    21    22   ar
    36    22    23   ar
    37    23    24   ar
    38    24    25    1
    39    24    26   ar
    40    26    27   ar
    41    37    32   ar
    42     7     1    1
    43    27    21   ar
    44    43    38    1
    45    19    13   ar
    46    30    31    1
    47     5    11    1
    48    10    12    1
@<TRIPOS>MOLECULE
*****
 44 48 0 0 0
SMALL
GASTEIGER

@<TRIPOS>ATOM
      1 C         -29.4797   49.5919  -10.3267 C.3     1  UNL1        0.1890
      2 C         -30.8226   49.9076  -11.0092 C.3     1  UNL1        0.2176
      3 F         -31.5840   50.7798  -10.2425 F       1  UNL1       -0.2320
      4 C         -30.4489   50.5503  -12.3700 C.3     1  UNL1        0.1592
      5 O         -31.3420   51.5857  -12.7249 O.3     1  UNL1       -0.3781
      6 C         -29.0338   51.1345  -12.1486 C.3     1  UNL1        0.1293
      7 N         -28.4828   50.3945  -11.0266 N.am    1  UNL1       -0.2520
      8 C         -27.0868   50.3983  -10.6817 C.2     1  UNL1        0.3081
      9 O         -26.6025   49.4161  -10.0561 O.2     1  UNL1       -0.2522
     10 N         -26.2729   51.5480  -10.9676 N.am    1  UNL1       -0.2681
     11 H         -31.3022   52.3016  -12.0384 H       1  UNL1        0.2109
     12 H         -26.7497   52.4048  -11.3269 H       1  UNL1        0.1564
     13 C         -30.4716   49.4627  -13.4596 C.ar    1  UNL1        0.0336
     14 C         -30.1106   48.1260  -13.1671 C.ar    1  UNL1        0.0026
     15 C         -30.1819   47.1314  -14.1454 C.ar    1  UNL1        0.0295
     16 C         -30.6425   47.4379  -15.4245 C.ar    1  UNL1        0.1424
     17 F         -30.7149   46.4691  -16.3702 F       1  UNL1       -0.2041
     18 C         -31.0513   48.7370  -15.7229 C.ar    1  UNL1        0.0590
     19 C         -30.9850   49.7410  -14.7512 C.ar    1  UNL1        0.1407
     20 F         -31.4517   50.9734  -15.0755 F       1  UNL1       -0.2043
     21 C         -24.9155   51.6885  -10.5180 C.ar    1  UNL1        0.0516
     22 C         -23.8883   52.0702  -11.3990 C.ar    1  UNL1        0.0156
     23 C         -22.5779   52.2158  -10.9326 C.ar    1  UNL1        0.0127
     24 C         -22.2838   51.9930   -9.5837 C.ar    1  UNL1        0.0578
     25 CL        -20.6406   52.1809   -9.0002 Cl      1  UNL1       -0.0822
     26 C         -23.3029   51.6259   -8.6996 C.ar    1  UNL1        0.0127
     27 C         -24.6140   51.4834   -9.1627 C.ar    1  UNL1        0.0156
     28 O         -30.5725   50.1229   -8.2584 O.2     1  UNL1       -0.2729
     29 C         -29.4817   49.9103   -8.8520 C.2     1  UNL1        0.2482
     30 N         -28.2445   50.0082   -8.1345 N.am    1  UNL1       -0.2679
     31 H         -27.4874   50.5807   -8.5713 H       1  UNL1        0.1563
     32 C         -27.8454   49.0559   -7.1350 C.ar    1  UNL1        0.1346
     33 C         -26.5927   49.1237   -6.5008 C.ar    1  UNL1        0.0406
     34 C         -26.2915   48.2271   -5.4754 C.ar    1  UNL1        0.0736
     35 C         -27.2289   47.2612   -5.0835 C.ar    1  UNL1        0.2466
     36 C         -28.4630   47.2186   -5.7490 C.ar    1  UNL1        0.1691
     37 N         -28.7370   48.1056   -6.7414 N.ar    1  UNL1       -0.2228
     38 N         -26.9431   46.3579   -3.9949 N.am    1  UNL1       -0.0841
     39 C         -27.6668   46.4697   -2.8377 C.2     1  UNL1        0.2905
     40 C         -27.4374   45.6055   -1.7659 C.2     1  UNL1        0.0758
     41 C         -26.4594   44.6214   -1.8775 C.2     1  UNL1        0.0161
     42 C         -25.7172   44.5157   -3.0515 C.2     1  UNL1        0.1156
     43 C         -25.9651   45.3987   -4.1083 C.2     1  UNL1        0.4230
     44 O         -25.2665   45.3094   -5.1551 O.2     1  UNL1       -0.2135
@<TRIPOS>BOND
     1    28    29    2
     2    29    30   am
     3    30    32    1
     4    32    33   ar
     5    33    34   ar
     6    34    35   ar
     7    35    38    1
     8    38    39    1
     9    39    40    2
    10    40    41    1
    11    41    42    2
    12    42    43    1
    13    43    44    2
    14    35    36   ar
    15    36    37   ar
    16    29     1    1
    17     1     2    1
    18     2     3    1
    19     2     4    1
    20     4     5    1
    21     4    13    1
    22    13    14   ar
    23    14    15   ar
    24    15    16   ar
    25    16    17    1
    26    16    18   ar
    27    18    19   ar
    28    19    20    1
    29     4     6    1
    30     6     7    1
    31     7     8   am
    32     8     9    2
    33     8    10   am
    34    10    21    1
    35    21    22   ar
    36    22    23   ar
    37    23    24   ar
    38    24    25    1
    39    24    26   ar
    40    26    27   ar
    41    37    32   ar
    42     7     1    1
    43    27    21   ar
    44    43    38    1
    45    19    13   ar
    46    30    31    1
    47     5    11    1
    48    10    12    1
