@<TRIPOS>MOLECULE
*****
 38 42 0 0 0
SMALL
GASTEIGER

@<TRIPOS>ATOM
      1 C          50.0579   10.7665  -23.1385 C.2     1  UNL1        0.2490
      2 O          50.6409   10.2379  -22.1532 O.2     1  UNL1       -0.2699
      3 N          48.9121   11.6246  -22.9240 N.am    1  UNL1       -0.2698
      4 C          48.6563   12.7294  -23.8653 C.3     1  UNL1        0.1235
      5 C          47.3581   12.5147  -24.5919 C.ar    1  UNL1        0.0317
      6 C          47.3852   12.4023  -25.9942 C.ar    1  UNL1        0.0004
      7 C          46.2101   12.1774  -26.7278 C.ar    1  UNL1       -0.0000
      8 C          44.9902   12.0902  -26.0422 C.ar    1  UNL1        0.0031
      9 C          44.9504   12.2055  -24.6525 C.ar    1  UNL1        0.0366
     10 C          46.1201   12.4028  -23.9103 C.ar    1  UNL1        0.1362
     11 O          45.9816   12.4476  -22.5111 O.3     1  UNL1       -0.4739
     12 C          47.0250   12.5582  -21.5419 C.3     1  UNL1        0.2249
     13 C          48.0944   11.4502  -21.6994 C.3     1  UNL1        0.1195
     14 C          46.2620   12.0246  -28.2040 C.ar    1  UNL1        0.0015
     15 C          46.6026   10.7706  -28.7854 C.ar    1  UNL1        0.0016
     16 C          46.6570   10.6129  -30.1825 C.ar    1  UNL1        0.0206
     17 C          46.3662   11.7211  -30.9706 C.ar    1  UNL1        0.0985
     18 N          46.3595   11.7978  -32.3136 N.ar    1  UNL1       -0.2241
     19 C          46.0152   13.0931  -32.5401 C.ar    1  UNL1        0.1750
     20 N          45.8130   13.8052  -31.4055 N.ar    1  UNL1       -0.3349
     21 C          46.0380   12.9232  -30.4248 C.ar    1  UNL1        0.0757
     22 C          45.9725   13.1238  -29.0486 C.ar    1  UNL1        0.0185
     23 H          45.5438   14.8105  -31.3197 H       1  UNL1        0.1675
     24 C          51.5016   11.4198  -25.1229 C.ar    1  UNL1       -0.0165
     25 C          52.0047   11.1015  -26.3961 C.ar    1  UNL1        0.0142
     26 C          51.6471    9.9078  -27.0311 C.ar    1  UNL1        0.1054
     27 C          50.7425    9.0393  -26.4131 C.ar    1  UNL1        0.0185
     28 C          50.2196    9.3479  -25.1567 C.ar    1  UNL1        0.0055
     29 C          50.6006   10.5238  -24.4931 C.ar    1  UNL1        0.0497
     30 S          52.3068    9.5291  -28.6183 S.O2    1  UNL1        0.0104
     31 C          51.1114    8.5959  -29.5464 C.3     1  UNL1        0.1816
     32 O          52.6297   10.8038  -29.3466 O.2     1  UNL1       -0.1686
     33 O          53.5674    8.7234  -28.4732 O.2     1  UNL1       -0.1686
     34 C          51.8593   12.7612  -24.5254 C.3     1  UNL1        0.0265
     35 C          53.0825   13.4932  -22.4441 C.3     1  UNL1        0.0004
     36 C          53.1597   12.6636  -23.7222 C.3     1  UNL1        0.0047
     37 C          47.4494   10.0394  -21.6740 C.3     1  UNL1        0.0237
     38 C          47.9957    9.1489  -20.5576 C.3     1  UNL1        0.0019
@<TRIPOS>BOND
     1    35    36    1
     2    36    34    1
     3    34    24    1
     4    24    25   ar
     5    25    26   ar
     6    26    30    1
     7    30    31    1
     8    30    32    2
     9    30    33    2
    10    26    27   ar
    11    27    28   ar
    12    28    29   ar
    13    29     1    1
    14     1     2    2
    15     1     3   am
    16     3     4    1
    17     4     5    1
    18     5     6   ar
    19     6     7   ar
    20     7    14    1
    21    14    15   ar
    22    15    16   ar
    23    16    17   ar
    24    17    18   ar
    25    18    19   ar
    26    19    20   ar
    27    20    21   ar
    28    21    22   ar
    29     7     8   ar
    30     8     9   ar
    31     9    10   ar
    32    10    11    1
    33    11    12    1
    34    12    13    1
    35    13    37    1
    36    37    38    1
    37    29    24   ar
    38    13     3    1
    39    10     5   ar
    40    22    14   ar
    41    21    17   ar
    42    20    23    1
@<TRIPOS>MOLECULE
*****
 38 42 0 0 0
SMALL
GASTEIGER

@<TRIPOS>ATOM
      1 C          51.2177   12.9270  -23.1247 C.2     1  UNL1        0.2490
      2 O          51.9160   12.6941  -22.1009 O.2     1  UNL1       -0.2699
      3 N          50.2443   13.9982  -23.1062 N.am    1  UNL1       -0.2698
      4 C          49.9406   14.7140  -24.3582 C.3     1  UNL1        0.1235
      5 C          48.5095   14.4916  -24.7604 C.ar    1  UNL1        0.0317
      6 C          48.2488   13.8762  -25.9986 C.ar    1  UNL1        0.0004
      7 C          46.9350   13.6195  -26.4199 C.ar    1  UNL1       -0.0000
      8 C          45.8708   14.0106  -25.5950 C.ar    1  UNL1        0.0031
      9 C          46.1170   14.6263  -24.3676 C.ar    1  UNL1        0.0366
     10 C          47.4241   14.8619  -23.9270 C.ar    1  UNL1        0.1362
     11 O          47.5677   15.4346  -22.6502 O.3     1  UNL1       -0.4739
     12 C          48.7860   15.6963  -21.9518 C.3     1  UNL1        0.2249
     13 C          49.6668   14.4313  -21.8110 C.3     1  UNL1        0.1195
     14 C          46.6793   12.9359  -27.7132 C.ar    1  UNL1        0.0015
     15 C          46.9027   11.5360  -27.8430 C.ar    1  UNL1        0.0016
     16 C          46.6660   10.8766  -29.0631 C.ar    1  UNL1        0.0206
     17 C          46.2071   11.6385  -30.1320 C.ar    1  UNL1        0.0985
     18 N          45.9197   11.2207  -31.3780 N.ar    1  UNL1       -0.2241
     19 C          45.5239   12.3648  -31.9961 C.ar    1  UNL1        0.1750
     20 N          45.5562   13.4536  -31.1906 N.ar    1  UNL1       -0.3349
     21 C          45.9888   12.9764  -30.0178 C.ar    1  UNL1        0.0757
     22 C          46.2099   13.6688  -28.8303 C.ar    1  UNL1        0.0185
     23 H          45.3015   14.4369  -31.4325 H       1  UNL1        0.1675
     24 C          50.5722   11.0811  -24.7449 C.ar    1  UNL1       -0.0165
     25 C          50.8423   10.3794  -25.9324 C.ar    1  UNL1        0.0142
     26 C          51.9485   10.7063  -26.7233 C.ar    1  UNL1        0.1054
     27 C          52.8239   11.7136  -26.3064 C.ar    1  UNL1        0.0185
     28 C          52.5807   12.4086  -25.1211 C.ar    1  UNL1        0.0055
     29 C          51.4532   12.1158  -24.3392 C.ar    1  UNL1        0.0497
     30 S          52.2511    9.8206  -28.2138 S.O2    1  UNL1        0.0104
     31 C          50.7671    8.9763  -28.7097 C.3     1  UNL1        0.1816
     32 O          52.6725   10.7789  -29.2924 O.2     1  UNL1       -0.1686
     33 O          53.3506    8.8176  -28.0026 O.2     1  UNL1       -0.1686
     34 C          49.4101   10.6268  -23.8922 C.3     1  UNL1        0.0265
     35 C          49.3941    9.4350  -21.6688 C.3     1  UNL1        0.0004
     36 C          49.7614    9.3361  -23.1463 C.3     1  UNL1        0.0047
     37 C          48.8787   13.2685  -21.1524 C.3     1  UNL1        0.0237
     38 C          49.0877   13.1814  -19.6402 C.3     1  UNL1        0.0019
@<TRIPOS>BOND
     1    35    36    1
     2    36    34    1
     3    34    24    1
     4    24    25   ar
     5    25    26   ar
     6    26    30    1
     7    30    31    1
     8    30    32    2
     9    30    33    2
    10    26    27   ar
    11    27    28   ar
    12    28    29   ar
    13    29     1    1
    14     1     2    2
    15     1     3   am
    16     3     4    1
    17     4     5    1
    18     5     6   ar
    19     6     7   ar
    20     7    14    1
    21    14    15   ar
    22    15    16   ar
    23    16    17   ar
    24    17    18   ar
    25    18    19   ar
    26    19    20   ar
    27    20    21   ar
    28    21    22   ar
    29     7     8   ar
    30     8     9   ar
    31     9    10   ar
    32    10    11    1
    33    11    12    1
    34    12    13    1
    35    13    37    1
    36    37    38    1
    37    29    24   ar
    38    13     3    1
    39    10     5   ar
    40    22    14   ar
    41    21    17   ar
    42    20    23    1
@<TRIPOS>MOLECULE
*****
 38 42 0 0 0
SMALL
GASTEIGER

@<TRIPOS>ATOM
      1 C          49.2056   15.6247  -23.6536 C.2     1  UNL1        0.2490
      2 O          49.4837   15.9737  -22.4743 O.2     1  UNL1       -0.2699
      3 N          48.5447   16.5544  -24.5448 N.am    1  UNL1       -0.2698
      4 C          48.8114   16.4744  -25.9920 C.3     1  UNL1        0.1235
      5 C          47.5615   16.1031  -26.7400 C.ar    1  UNL1        0.0317
      6 C          47.5601   14.9166  -27.4961 C.ar    1  UNL1        0.0004
      7 C          46.4167   14.5033  -28.1972 C.ar    1  UNL1       -0.0000
      8 C          45.2695   15.3083  -28.1561 C.ar    1  UNL1        0.0031
      9 C          45.2610   16.4896  -27.4141 C.ar    1  UNL1        0.0366
     10 C          46.3873   16.8960  -26.6901 C.ar    1  UNL1        0.1362
     11 O          46.2591   18.0709  -25.9272 O.3     1  UNL1       -0.4739
     12 C          47.2303   18.6425  -25.0495 C.3     1  UNL1        0.2249
     13 C          47.7125   17.6402  -23.9730 C.3     1  UNL1        0.1195
     14 C          46.4212   13.2293  -28.9603 C.ar    1  UNL1        0.0015
     15 C          45.8379   13.1662  -30.2574 C.ar    1  UNL1        0.0016
     16 C          45.8340   11.9651  -30.9901 C.ar    1  UNL1        0.0206
     17 C          46.4189   10.8477  -30.4043 C.ar    1  UNL1        0.0985
     18 N          46.5248    9.6089  -30.9178 N.ar    1  UNL1       -0.2241
     19 C          47.1704    8.9287  -29.9338 C.ar    1  UNL1        0.1750
     20 N          47.4611    9.6898  -28.8514 N.ar    1  UNL1       -0.3349
     21 C          46.9804   10.8981  -29.1662 C.ar    1  UNL1        0.0757
     22 C          47.0062   12.0646  -28.4066 C.ar    1  UNL1        0.0185
     23 H          47.9482    9.3976  -27.9751 H       1  UNL1        0.1675
     24 C          48.6753   13.2285  -24.3064 C.ar    1  UNL1       -0.0165
     25 C          49.1319   11.9839  -24.7733 C.ar    1  UNL1        0.0142
     26 C          50.4849   11.7780  -25.0615 C.ar    1  UNL1        0.1054
     27 C          51.4041   12.8080  -24.8403 C.ar    1  UNL1        0.0185
     28 C          50.9707   14.0445  -24.3604 C.ar    1  UNL1        0.0055
     29 C          49.6107   14.2751  -24.1044 C.ar    1  UNL1        0.0497
     30 S          51.0239   10.2134  -25.6607 S.O2    1  UNL1        0.0104
     31 C          51.0065    9.0344  -24.3300 C.3     1  UNL1        0.1816
     32 O          50.1066    9.7512  -26.7582 O.2     1  UNL1       -0.1686
     33 O          52.4179   10.3254  -26.2118 O.2     1  UNL1       -0.1686
     34 C          47.2167   13.3635  -23.9344 C.3     1  UNL1        0.0265
     35 C          44.9386   12.9831  -24.9491 C.3     1  UNL1        0.0004
     36 C          46.3536   12.4342  -24.7930 C.3     1  UNL1        0.0047
     37 C          46.5171   17.0481  -23.1811 C.3     1  UNL1        0.0237
     38 C          45.5647   18.1163  -22.6426 C.3     1  UNL1        0.0019
@<TRIPOS>BOND
     1    35    36    1
     2    36    34    1
     3    34    24    1
     4    24    25   ar
     5    25    26   ar
     6    26    30    1
     7    30    31    1
     8    30    32    2
     9    30    33    2
    10    26    27   ar
    11    27    28   ar
    12    28    29   ar
    13    29     1    1
    14     1     2    2
    15     1     3   am
    16     3     4    1
    17     4     5    1
    18     5     6   ar
    19     6     7   ar
    20     7    14    1
    21    14    15   ar
    22    15    16   ar
    23    16    17   ar
    24    17    18   ar
    25    18    19   ar
    26    19    20   ar
    27    20    21   ar
    28    21    22   ar
    29     7     8   ar
    30     8     9   ar
    31     9    10   ar
    32    10    11    1
    33    11    12    1
    34    12    13    1
    35    13    37    1
    36    37    38    1
    37    29    24   ar
    38    13     3    1
    39    10     5   ar
    40    22    14   ar
    41    21    17   ar
    42    20    23    1
@<TRIPOS>MOLECULE
*****
 38 42 0 0 0
SMALL
GASTEIGER

@<TRIPOS>ATOM
      1 C          49.4899   14.6955  -26.2791 C.2     1  UNL1        0.2490
      2 O          49.9087   15.4856  -27.1681 O.2     1  UNL1       -0.2699
      3 N          48.2989   13.9078  -26.5163 N.am    1  UNL1       -0.2698
      4 C          48.1772   12.5821  -25.8840 C.3     1  UNL1        0.1235
      5 C          47.0320   12.5640  -24.9106 C.ar    1  UNL1        0.0317
      6 C          47.3055   12.2870  -23.5585 C.ar    1  UNL1        0.0004
      7 C          46.2830   12.2790  -22.5973 C.ar    1  UNL1       -0.0000
      8 C          44.9657   12.5282  -23.0080 C.ar    1  UNL1        0.0031
      9 C          44.6818   12.7988  -24.3468 C.ar    1  UNL1        0.0366
     10 C          45.6984   12.8355  -25.3076 C.ar    1  UNL1        0.1362
     11 O          45.3177   13.1746  -26.6188 O.3     1  UNL1       -0.4739
     12 C          46.1732   13.3546  -27.7484 C.3     1  UNL1        0.2249
     13 C          47.2866   14.3967  -27.4832 C.3     1  UNL1        0.1195
     14 C          46.5950   12.0209  -21.1686 C.ar    1  UNL1        0.0015
     15 C          45.5612   12.0501  -20.1903 C.ar    1  UNL1        0.0016
     16 C          45.8437   11.8091  -18.8332 C.ar    1  UNL1        0.0206
     17 C          47.1629   11.5416  -18.4844 C.ar    1  UNL1        0.0985
     18 N          47.6555   11.2870  -17.2588 N.ar    1  UNL1       -0.2241
     19 C          48.9810   11.1044  -17.4982 C.ar    1  UNL1        0.1750
     20 N          49.3176   11.2349  -18.8040 N.ar    1  UNL1       -0.3349
     21 C          48.1577   11.5098  -19.4118 C.ar    1  UNL1        0.0757
     22 C          47.9233   11.7425  -20.7643 C.ar    1  UNL1        0.0185
     23 H          50.2648   11.1417  -19.2336 H       1  UNL1        0.1675
     24 C          49.9857   15.3441  -23.8744 C.ar    1  UNL1       -0.0165
     25 C          50.7430   15.1373  -22.7085 C.ar    1  UNL1        0.0142
     26 C          51.7456   14.1630  -22.6675 C.ar    1  UNL1        0.1054
     27 C          52.0307   13.4147  -23.8135 C.ar    1  UNL1        0.0185
     28 C          51.3005   13.6190  -24.9849 C.ar    1  UNL1        0.0055
     29 C          50.2667   14.5666  -25.0267 C.ar    1  UNL1        0.0497
     30 S          52.6658   13.9160  -21.1877 S.O2    1  UNL1        0.0104
     31 C          51.6299   13.1338  -19.9727 C.3     1  UNL1        0.1816
     32 O          53.8561   13.0440  -21.4744 O.2     1  UNL1       -0.1686
     33 O          53.1510   15.2358  -20.6566 O.2     1  UNL1       -0.1686
     34 C          48.9739   16.4667  -23.8824 C.3     1  UNL1        0.0265
     35 C          46.5917   17.0921  -23.3363 C.3     1  UNL1        0.0004
     36 C          47.6746   16.0257  -23.2020 C.3     1  UNL1        0.0047
     37 C          46.6899   15.7475  -27.0077 C.3     1  UNL1        0.0237
     38 C          45.4579   16.1746  -27.8063 C.3     1  UNL1        0.0019
@<TRIPOS>BOND
     1    35    36    1
     2    36    34    1
     3    34    24    1
     4    24    25   ar
     5    25    26   ar
     6    26    30    1
     7    30    31    1
     8    30    32    2
     9    30    33    2
    10    26    27   ar
    11    27    28   ar
    12    28    29   ar
    13    29     1    1
    14     1     2    2
    15     1     3   am
    16     3     4    1
    17     4     5    1
    18     5     6   ar
    19     6     7   ar
    20     7    14    1
    21    14    15   ar
    22    15    16   ar
    23    16    17   ar
    24    17    18   ar
    25    18    19   ar
    26    19    20   ar
    27    20    21   ar
    28    21    22   ar
    29     7     8   ar
    30     8     9   ar
    31     9    10   ar
    32    10    11    1
    33    11    12    1
    34    12    13    1
    35    13    37    1
    36    37    38    1
    37    29    24   ar
    38    13     3    1
    39    10     5   ar
    40    22    14   ar
    41    21    17   ar
    42    20    23    1
@<TRIPOS>MOLECULE
*****
 38 42 0 0 0
SMALL
GASTEIGER

@<TRIPOS>ATOM
      1 C          48.5703   13.4341  -21.3038 C.2     1  UNL1        0.2490
      2 O          48.3285   14.0639  -20.2386 O.2     1  UNL1       -0.2699
      3 N          48.3290   12.0083  -21.3701 N.am    1  UNL1       -0.2698
      4 C          47.9460   11.4041  -22.6586 C.3     1  UNL1        0.1235
      5 C          49.0022   10.4423  -23.1261 C.ar    1  UNL1        0.0317
      6 C          49.6396   10.6920  -24.3554 C.ar    1  UNL1        0.0004
      7 C          50.6503    9.8446  -24.8350 C.ar    1  UNL1       -0.0000
      8 C          51.0050    8.7184  -24.0788 C.ar    1  UNL1        0.0031
      9 C          50.3761    8.4578  -22.8611 C.ar    1  UNL1        0.0366
     10 C          49.3864    9.3117  -22.3620 C.ar    1  UNL1        0.1362
     11 O          48.8550    8.9942  -21.0987 O.3     1  UNL1       -0.4739
     12 C          47.9011    9.7468  -20.3477 C.3     1  UNL1        0.2249
     13 C          48.3530   11.2098  -20.1209 C.3     1  UNL1        0.1195
     14 C          51.3380   10.1435  -26.1168 C.ar    1  UNL1        0.0015
     15 C          51.9735   11.4018  -26.3153 C.ar    1  UNL1        0.0016
     16 C          52.6269   11.6983  -27.5255 C.ar    1  UNL1        0.0206
     17 C          52.6301   10.7216  -28.5153 C.ar    1  UNL1        0.0985
     18 N          53.1869   10.7898  -29.7380 N.ar    1  UNL1       -0.2241
     19 C          52.8884    9.5766  -30.2736 C.ar    1  UNL1        0.1750
     20 N          52.1803    8.7770  -29.4401 N.ar    1  UNL1       -0.3349
     21 C          52.0273    9.5155  -28.3349 C.ar    1  UNL1        0.0757
     22 C          51.3696    9.1803  -27.1544 C.ar    1  UNL1        0.0185
     23 H          51.8353    7.8084  -29.6217 H       1  UNL1        0.1675
     24 C          50.3703   14.0441  -22.9881 C.ar    1  UNL1       -0.0165
     25 C          50.7462   14.7706  -24.1311 C.ar    1  UNL1        0.0142
     26 C          49.8355   15.6121  -24.7781 C.ar    1  UNL1        0.1054
     27 C          48.5477   15.7691  -24.2572 C.ar    1  UNL1        0.0185
     28 C          48.1631   15.0690  -23.1130 C.ar    1  UNL1        0.0055
     29 C          49.0555   14.1925  -22.4776 C.ar    1  UNL1        0.0497
     30 S          50.3307   16.4961  -26.2172 S.O2    1  UNL1        0.0104
     31 C          49.0254   17.5977  -26.7110 C.3     1  UNL1        0.1816
     32 O          51.5743   17.2863  -25.9199 O.2     1  UNL1       -0.1686
     33 O          50.6249   15.5358  -27.3356 O.2     1  UNL1       -0.1686
     34 C          51.4224   13.2166  -22.2865 C.3     1  UNL1        0.0265
     35 C          52.3194   14.1732  -20.1314 C.3     1  UNL1        0.0004
     36 C          52.4810   14.1204  -21.6476 C.3     1  UNL1        0.0047
     37 C          49.7582   11.2685  -19.4661 C.3     1  UNL1        0.0237
     38 C          49.7205   11.7004  -17.9999 C.3     1  UNL1        0.0019
@<TRIPOS>BOND
     1    35    36    1
     2    36    34    1
     3    34    24    1
     4    24    25   ar
     5    25    26   ar
     6    26    30    1
     7    30    31    1
     8    30    32    2
     9    30    33    2
    10    26    27   ar
    11    27    28   ar
    12    28    29   ar
    13    29     1    1
    14     1     2    2
    15     1     3   am
    16     3     4    1
    17     4     5    1
    18     5     6   ar
    19     6     7   ar
    20     7    14    1
    21    14    15   ar
    22    15    16   ar
    23    16    17   ar
    24    17    18   ar
    25    18    19   ar
    26    19    20   ar
    27    20    21   ar
    28    21    22   ar
    29     7     8   ar
    30     8     9   ar
    31     9    10   ar
    32    10    11    1
    33    11    12    1
    34    12    13    1
    35    13    37    1
    36    37    38    1
    37    29    24   ar
    38    13     3    1
    39    10     5   ar
    40    22    14   ar
    41    21    17   ar
    42    20    23    1
@<TRIPOS>MOLECULE
*****
 38 42 0 0 0
SMALL
GASTEIGER

@<TRIPOS>ATOM
      1 C          50.6984   12.8382  -25.7617 C.2     1  UNL1        0.2490
      2 O          51.1006   12.9883  -26.9474 O.2     1  UNL1       -0.2699
      3 N          51.1486   11.7027  -24.9849 N.am    1  UNL1       -0.2698
      4 C          51.2782   11.8389  -23.5232 C.3     1  UNL1        0.1235
      5 C          50.3126   10.9266  -22.8198 C.ar    1  UNL1        0.0317
      6 C          49.3447   11.4987  -21.9739 C.ar    1  UNL1        0.0004
      7 C          48.4002   10.7025  -21.3079 C.ar    1  UNL1       -0.0000
      8 C          48.4479    9.3114  -21.4765 C.ar    1  UNL1        0.0031
      9 C          49.4065    8.7326  -22.3085 C.ar    1  UNL1        0.0366
     10 C          50.3351    9.5204  -22.9977 C.ar    1  UNL1        0.1362
     11 O          51.2224    8.8467  -23.8567 O.3     1  UNL1       -0.4739
     12 C          52.1994    9.4292  -24.7207 C.3     1  UNL1        0.2249
     13 C          51.5845   10.4711  -25.6862 C.3     1  UNL1        0.1195
     14 C          47.3625   11.3261  -20.4479 C.ar    1  UNL1        0.0015
     15 C          47.7383   12.1717  -19.3660 C.ar    1  UNL1        0.0016
     16 C          46.7652   12.7673  -18.5427 C.ar    1  UNL1        0.0206
     17 C          45.4294   12.5018  -18.8236 C.ar    1  UNL1        0.0985
     18 N          44.3443   12.9582  -18.1726 N.ar    1  UNL1       -0.2241
     19 C          43.3187   12.3901  -18.8603 C.ar    1  UNL1        0.1750
     20 N          43.7249   11.6137  -19.8936 N.ar    1  UNL1       -0.3349
     21 C          45.0598   11.6966  -19.8560 C.ar    1  UNL1        0.0757
     22 C          45.9887   11.0871  -20.6951 C.ar    1  UNL1        0.0185
     23 H          43.1306   11.0761  -20.5630 H       1  UNL1        0.1675
     24 C          48.4363   13.6151  -24.9082 C.ar    1  UNL1       -0.0165
     25 C          47.6596   14.6298  -24.3229 C.ar    1  UNL1        0.0142
     26 C          48.2253   15.8650  -23.9905 C.ar    1  UNL1        0.1054
     27 C          49.5696   16.1121  -24.2844 C.ar    1  UNL1        0.0185
     28 C          50.3510   15.1221  -24.8813 C.ar    1  UNL1        0.0055
     29 C          49.8047   13.8658  -25.1842 C.ar    1  UNL1        0.0497
     30 S          47.2309   17.1102  -23.2431 S.O2    1  UNL1        0.0104
     31 C          47.2235   18.5575  -24.2757 C.3     1  UNL1        0.1816
     32 O          45.8267   16.6005  -23.0762 O.2     1  UNL1       -0.1686
     33 O          47.7801   17.4641  -21.8894 O.2     1  UNL1       -0.1686
     34 C          47.7492   12.3335  -25.3198 C.3     1  UNL1        0.0265
     35 C          45.2350   12.1281  -25.3430 C.3     1  UNL1        0.0004
     36 C          46.4912   12.1021  -24.4775 C.3     1  UNL1        0.0047
     37 C          50.4089    9.8622  -26.4950 C.3     1  UNL1        0.0237
     38 C          50.8226    9.3792  -27.8855 C.3     1  UNL1        0.0019
@<TRIPOS>BOND
     1    35    36    1
     2    36    34    1
     3    34    24    1
     4    24    25   ar
     5    25    26   ar
     6    26    30    1
     7    30    31    1
     8    30    32    2
     9    30    33    2
    10    26    27   ar
    11    27    28   ar
    12    28    29   ar
    13    29     1    1
    14     1     2    2
    15     1     3   am
    16     3     4    1
    17     4     5    1
    18     5     6   ar
    19     6     7   ar
    20     7    14    1
    21    14    15   ar
    22    15    16   ar
    23    16    17   ar
    24    17    18   ar
    25    18    19   ar
    26    19    20   ar
    27    20    21   ar
    28    21    22   ar
    29     7     8   ar
    30     8     9   ar
    31     9    10   ar
    32    10    11    1
    33    11    12    1
    34    12    13    1
    35    13    37    1
    36    37    38    1
    37    29    24   ar
    38    13     3    1
    39    10     5   ar
    40    22    14   ar
    41    21    17   ar
    42    20    23    1
@<TRIPOS>MOLECULE
*****
 38 42 0 0 0
SMALL
GASTEIGER

@<TRIPOS>ATOM
      1 C          46.3307   13.8056  -24.9264 C.2     1  UNL1        0.2490
      2 O          45.4791   14.6866  -24.6286 O.2     1  UNL1       -0.2699
      3 N          47.2824   13.3564  -23.9325 N.am    1  UNL1       -0.2698
      4 C          47.7781   11.9696  -23.9883 C.3     1  UNL1        0.1235
      5 C          49.2564   11.9472  -24.2595 C.ar    1  UNL1        0.0317
      6 C          49.7151   11.3007  -25.4220 C.ar    1  UNL1        0.0004
      7 C          51.0809   11.2662  -25.7431 C.ar    1  UNL1       -0.0000
      8 C          51.9973   11.8685  -24.8694 C.ar    1  UNL1        0.0031
      9 C          51.5545   12.5077  -23.7112 C.ar    1  UNL1        0.0366
     10 C          50.1926   12.5706  -23.3965 C.ar    1  UNL1        0.1362
     11 O          49.8434   13.2877  -22.2377 O.3     1  UNL1       -0.4739
     12 C          48.5277   13.5601  -21.7529 C.3     1  UNL1        0.2249
     13 C          47.6430   14.2596  -22.8132 C.3     1  UNL1        0.1195
     14 C          51.5440   10.6114  -26.9929 C.ar    1  UNL1        0.0015
     15 C          52.7208   11.0685  -27.6507 C.ar    1  UNL1        0.0016
     16 C          53.1693   10.4579  -28.8363 C.ar    1  UNL1        0.0206
     17 C          52.4252    9.3961  -29.3389 C.ar    1  UNL1        0.0985
     18 N          52.6655    8.6741  -30.4482 N.ar    1  UNL1       -0.2241
     19 C          51.6375    7.7848  -30.4579 C.ar    1  UNL1        0.1750
     20 N          50.7872    7.9298  -29.4133 N.ar    1  UNL1       -0.3349
     21 C          51.3003    8.9506  -28.7170 C.ar    1  UNL1        0.0757
     22 C          50.8207    9.5252  -27.5429 C.ar    1  UNL1        0.0185
     23 H          49.9299    7.3718  -29.2031 H       1  UNL1        0.1675
     24 C          46.5392   13.9939  -27.4503 C.ar    1  UNL1       -0.0165
     25 C          46.5284   13.3604  -28.7049 C.ar    1  UNL1        0.0142
     26 C          46.3073   11.9835  -28.8116 C.ar    1  UNL1        0.1054
     27 C          46.0488   11.2329  -27.6608 C.ar    1  UNL1        0.0185
     28 C          46.0385   11.8487  -26.4087 C.ar    1  UNL1        0.0055
     29 C          46.2971   13.2222  -26.2854 C.ar    1  UNL1        0.0497
     30 S          46.3162   11.2159  -30.3953 S.O2    1  UNL1        0.0104
     31 C          45.5484   12.2975  -31.5793 C.3     1  UNL1        0.1816
     32 O          47.7331   10.9350  -30.8110 O.2     1  UNL1       -0.1686
     33 O          45.5622    9.9166  -30.3420 O.2     1  UNL1       -0.1686
     34 C          46.7010   15.4959  -27.4069 C.3     1  UNL1        0.0265
     35 C          48.3437   17.3549  -26.9489 C.3     1  UNL1        0.0004
     36 C          48.1796   15.8752  -27.2824 C.3     1  UNL1        0.0047
     37 C          48.3225   15.5462  -23.3513 C.3     1  UNL1        0.0237
     38 C          47.5056   16.8119  -23.0892 C.3     1  UNL1        0.0019
@<TRIPOS>BOND
     1    35    36    1
     2    36    34    1
     3    34    24    1
     4    24    25   ar
     5    25    26   ar
     6    26    30    1
     7    30    31    1
     8    30    32    2
     9    30    33    2
    10    26    27   ar
    11    27    28   ar
    12    28    29   ar
    13    29     1    1
    14     1     2    2
    15     1     3   am
    16     3     4    1
    17     4     5    1
    18     5     6   ar
    19     6     7   ar
    20     7    14    1
    21    14    15   ar
    22    15    16   ar
    23    16    17   ar
    24    17    18   ar
    25    18    19   ar
    26    19    20   ar
    27    20    21   ar
    28    21    22   ar
    29     7     8   ar
    30     8     9   ar
    31     9    10   ar
    32    10    11    1
    33    11    12    1
    34    12    13    1
    35    13    37    1
    36    37    38    1
    37    29    24   ar
    38    13     3    1
    39    10     5   ar
    40    22    14   ar
    41    21    17   ar
    42    20    23    1
