@<TRIPOS>MOLECULE
*****
 45 50 0 0 0
SMALL
GASTEIGER

@<TRIPOS>ATOM
      1 C          60.3115   86.7152    8.0514 C.ar    1  UNL1        0.0702
      2 C          60.0148   87.1863    9.3388 C.ar    1  UNL1        0.0191
      3 C          60.3839   86.4436   10.4616 C.ar    1  UNL1        0.0356
      4 C          61.0674   85.2230   10.2992 C.ar    1  UNL1        0.1323
      5 N          61.3597   84.8028    9.0352 N.ar    1  UNL1       -0.2279
      6 C          61.0107   85.5093    7.9285 C.ar    1  UNL1        0.1149
      7 N          61.4652   84.4146   11.4362 N.pl3   1  UNL1       -0.2861
      8 C          62.6899   83.5958   11.3574 C.3     1  UNL1        0.0930
      9 C          63.0493   82.9473   12.6956 C.3     1  UNL1        0.0253
     10 C          61.8136   82.2628   13.2869 C.3     1  UNL1        0.0479
     11 C          60.6649   83.2720   13.5344 C.3     1  UNL1        0.0344
     12 C          60.7575   84.5831   12.7210 C.3     1  UNL1        0.1270
     13 I          61.6868   86.1535   13.8590 I       1  UNL1       -0.0531
     14 C          62.1838   81.5039   14.5763 C.3     1  UNL1        0.2054
     15 O          61.6352   80.1845   14.5719 O.3     1  UNL1       -0.4755
     16 C          60.8194   79.6413   13.5659 C.ar    1  UNL1        0.1388
     17 C          59.5050   79.1997   13.8066 C.ar    1  UNL1        0.0369
     18 C          58.7408   78.6709   12.7649 C.ar    1  UNL1        0.0033
     19 C          59.2737   78.5740   11.4777 C.ar    1  UNL1        0.0066
     20 C          60.5863   79.0048   11.2175 C.ar    1  UNL1        0.0785
     21 C          61.3449   79.5477   12.2711 C.ar    1  UNL1        0.0433
     22 C          61.1674   78.9163    9.8554 C.2     1  UNL1        0.3381
     23 O          60.7662   79.6985    8.9528 O.2     1  UNL1       -0.2451
     24 O          62.1657   77.9950    9.5407 O.3     1  UNL1       -0.4771
     25 H          62.6067   77.4089   10.2373 H       1  UNL1        0.2954
     26 C          60.0166   88.8974    6.7967 C.2     1  UNL1        0.2839
     27 O          59.8898   89.5883    7.8432 O.2     1  UNL1       -0.2665
     28 N          59.9691   87.4648    6.8730 N.am    1  UNL1       -0.2766
     29 H          59.5598   86.9475    6.0631 H       1  UNL1        0.1553
     30 C          57.6131   90.0364    4.9563 C.3     1  UNL1        0.0345
     31 C          59.0900   90.0901    4.7056 C.ar    1  UNL1        0.0202
     32 C          60.1287   89.5887    5.5003 C.ar    1  UNL1        0.1946
     33 O          61.2924   89.8086    4.9139 O.2     1  UNL1       -0.4492
     34 C          61.0641   90.4460    3.7917 C.ar    1  UNL1        0.1452
     35 C          62.0013   90.8845    2.8627 C.ar    1  UNL1        0.0375
     36 C          61.5332   91.5577    1.7206 C.ar    1  UNL1        0.0031
     37 C          60.1432   91.7812    1.5249 C.ar    1  UNL1        0.0002
     38 C          59.2228   91.3163    2.4948 C.ar    1  UNL1        0.0028
     39 C          59.7230   90.6523    3.6150 C.ar    1  UNL1        0.0337
     40 C          59.6603   92.4946    0.3153 C.ar    1  UNL1        0.0000
     41 C          60.5637   93.1761   -0.5223 C.ar    1  UNL1        0.0000
     42 C          60.1059   93.8479   -1.6600 C.ar    1  UNL1        0.0000
     43 C          58.7452   93.8469   -1.9747 C.ar    1  UNL1        0.0000
     44 C          57.8390   93.1743   -1.1520 C.ar    1  UNL1        0.0000
     45 C          58.2910   92.5016   -0.0126 C.ar    1  UNL1        0.0000
@<TRIPOS>BOND
     1    30    31    1
     2    31    32   ar
     3    32    26    1
     4    26    27    2
     5    26    28   am
     6    28     1    1
     7     1     2   ar
     8     2     3   ar
     9     3     4   ar
    10     4     7    1
    11     7     8    1
    12     8     9    1
    13     9    10    1
    14    10    14    1
    15    14    15    1
    16    15    16    1
    17    16    17   ar
    18    17    18   ar
    19    18    19   ar
    20    19    20   ar
    21    20    22    1
    22    22    23    2
    23    22    24    1
    24    20    21   ar
    25    10    11    1
    26    11    12    1
    27    12    13    1
    28     4     5   ar
    29     5     6   ar
    30    32    33   ar
    31    33    34   ar
    32    34    35   ar
    33    35    36   ar
    34    36    37   ar
    35    37    40    1
    36    40    41   ar
    37    41    42   ar
    38    42    43   ar
    39    43    44   ar
    40    44    45   ar
    41    37    38   ar
    42    38    39   ar
    43    39    31   ar
    44     6     1   ar
    45    39    34   ar
    46    12     7    1
    47    45    40   ar
    48    21    16   ar
    49    28    29    1
    50    24    25    1
