@<TRIPOS>MOLECULE
*****
 52 57 0 0 0
SMALL
GASTEIGER

@<TRIPOS>ATOM
      1 C          10.4974   79.4860   25.7232 C.ar    1  UNL1        0.0504
      2 C          10.2421   80.8641   25.7279 C.ar    1  UNL1        0.0148
      3 C          11.2261   81.7678   25.3190 C.ar    1  UNL1        0.0080
      4 C          12.4857   81.3099   24.8929 C.ar    1  UNL1        0.0808
      5 C          12.7442   79.9247   24.9003 C.ar    1  UNL1        0.1457
      6 F          13.9415   79.4370   24.4862 F       1  UNL1       -0.2040
      7 C          11.7563   79.0241   25.3102 C.ar    1  UNL1        0.0443
      8 C           9.0526   77.4978   25.2087 C.3     1  UNL1        0.1507
      9 C           7.6022   77.0399   25.4763 C.3     1  UNL1        0.1194
     10 N           7.3100   76.9744   26.9137 N.pl3   1  UNL1       -0.2893
     11 C           7.6559   78.1365   27.7356 C.3     1  UNL1        0.1136
     12 C           9.1331   78.4706   27.5658 C.3     1  UNL1        0.1126
     13 N           9.4779   78.5582   26.1410 N.pl3   1  UNL1       -0.2997
     14 C           6.5031   75.9158   27.4682 C.ar    1  UNL1        0.1318
     15 C           6.6537   74.5856   27.0446 C.ar    1  UNL1        0.0343
     16 C           5.8563   73.5884   27.6079 C.ar    1  UNL1        0.0083
     17 C           4.9205   73.9090   28.6026 C.ar    1  UNL1        0.0906
     18 C           4.7769   75.2550   28.9731 C.ar    1  UNL1        0.1041
     19 N           5.5638   76.2092   28.4096 N.ar    1  UNL1       -0.2292
     20 C           4.0185   72.8496   29.1823 C.3     1  UNL1        0.4200
     21 F           4.3969   71.5927   28.7431 F       1  UNL1       -0.1658
     22 F           4.0989   72.8883   30.5618 F       1  UNL1       -0.1658
     23 F           2.7054   73.0646   28.8007 F       1  UNL1       -0.1658
     24 C          10.6714   75.8036   23.9599 C.3     1  UNL1        0.0741
     25 C          10.0494   76.3531   25.2122 C.2     1  UNL1        0.1706
     26 O          10.3370   75.8276   26.2772 O.2     1  UNL1       -0.2943
     27 C          13.5296   82.2742   24.4691 C.2     1  UNL1        0.2483
     28 O          14.7458   81.9486   24.5490 O.2     1  UNL1       -0.2701
     29 N          13.1721   83.5711   23.9610 N.am    1  UNL1       -0.2945
     30 H          12.1731   83.7476   23.7121 H       1  UNL1        0.1501
     31 C          14.1735   84.6222   23.7366 C.3     1  UNL1        0.1535
     32 C          14.6901   84.5839   22.3150 C.2     1  UNL1        0.2443
     33 O          15.5319   83.7076   21.9771 O.2     1  UNL1       -0.2730
     34 N          14.1904   85.5267   21.3504 N.am    1  UNL1       -0.2825
     35 H          13.6901   86.3694   21.7136 H       1  UNL1        0.1549
     36 C          14.3743   85.4284   19.9259 C.ar    1  UNL1        0.0535
     37 C          14.9243   84.2837   19.3213 C.ar    1  UNL1        0.0353
     38 C          15.0386   84.2247   17.9302 C.ar    1  UNL1        0.1002
     39 N          14.6120   85.2635   17.1650 N.ar    1  UNL1       -0.2422
     40 C          14.0636   86.3764   17.7192 C.ar    1  UNL1        0.1002
     41 C          13.9277   86.4745   19.1058 C.ar    1  UNL1        0.0353
     42 C          13.5702   86.0016   24.0591 C.3     1  UNL1        0.0569
     43 C          14.4933   86.8172   24.9204 C.ar    1  UNL1       -0.0017
     44 C          14.3810   87.0093   26.2943 C.ar    1  UNL1        0.0681
     45 N          15.4523   87.6862   26.7663 N.ar    1  UNL1       -0.3523
     46 C          16.2455   87.9133   25.7051 C.ar    1  UNL1        0.0563
     47 C          17.4875   88.5466   25.6998 C.ar    1  UNL1        0.0170
     48 C          18.1692   88.6474   24.4735 C.ar    1  UNL1        0.0015
     49 C          17.6011   88.1186   23.2936 C.ar    1  UNL1        0.0001
     50 C          16.3467   87.4833   23.3292 C.ar    1  UNL1        0.0012
     51 C          15.6947   87.3974   24.5597 C.ar    1  UNL1        0.0131
     52 H          15.6350   87.9532   27.7591 H       1  UNL1        0.1660
@<TRIPOS>BOND
     1    24    25    1
     2    25    26    2
     3    25     8    1
     4     8     9    1
     5     9    10    1
     6    10    14    1
     7    14    15   ar
     8    15    16   ar
     9    16    17   ar
    10    17    20    1
    11    20    21    1
    12    20    22    1
    13    20    23    1
    14    17    18   ar
    15    18    19   ar
    16    10    11    1
    17    11    12    1
    18    12    13    1
    19    13     1    1
    20     1     2   ar
    21     2     3   ar
    22     3     4   ar
    23     4    27    1
    24    27    28    2
    25    27    29   am
    26    29    31    1
    27    31    42    1
    28    42    43    1
    29    43    44   ar
    30    44    45   ar
    31    45    46   ar
    32    46    47   ar
    33    47    48   ar
    34    48    49   ar
    35    49    50   ar
    36    50    51   ar
    37    31    32    1
    38    32    33    2
    39    32    34   am
    40    34    36    1
    41    36    37   ar
    42    37    38   ar
    43    38    39   ar
    44    39    40   ar
    45    40    41   ar
    46     4     5   ar
    47     5     6    1
    48     5     7   ar
    49    13     8    1
    50     7     1   ar
    51    19    14   ar
    52    51    43   ar
    53    41    36   ar
    54    51    46   ar
    55    29    30    1
    56    45    52    1
    57    34    35    1
@<TRIPOS>MOLECULE
*****
 52 57 0 0 0
SMALL
GASTEIGER

@<TRIPOS>ATOM
      1 C          10.5192   79.4191   25.7342 C.ar    1  UNL1        0.0504
      2 C          10.2734   80.7987   25.7614 C.ar    1  UNL1        0.0148
      3 C          11.2605   81.7018   25.3588 C.ar    1  UNL1        0.0080
      4 C          12.5138   81.2419   24.9166 C.ar    1  UNL1        0.0808
      5 C          12.7629   79.8550   24.9013 C.ar    1  UNL1        0.1457
      6 F          13.9537   79.3655   24.4710 F       1  UNL1       -0.2040
      7 C          11.7718   78.9550   25.3049 C.ar    1  UNL1        0.0443
      8 C           9.1083   77.4045   25.2286 C.3     1  UNL1        0.1507
      9 C           7.6550   76.9390   25.4655 C.3     1  UNL1        0.1194
     10 N           7.3215   76.9067   26.8950 N.pl3   1  UNL1       -0.2893
     11 C           7.6325   78.0924   27.6968 C.3     1  UNL1        0.1136
     12 C           9.1109   78.4368   27.5615 C.3     1  UNL1        0.1126
     13 N           9.4964   78.4921   26.1456 N.pl3   1  UNL1       -0.2997
     14 C           6.5084   75.8544   27.4525 C.ar    1  UNL1        0.1318
     15 C           6.6337   74.5262   27.0146 C.ar    1  UNL1        0.0343
     16 C           5.8312   73.5351   27.5814 C.ar    1  UNL1        0.0083
     17 C           4.9155   73.8595   28.5934 C.ar    1  UNL1        0.0906
     18 C           4.7967   75.2039   28.9781 C.ar    1  UNL1        0.1041
     19 N           5.5881   76.1522   28.4111 N.ar    1  UNL1       -0.2292
     20 C           4.0077   72.8075   29.1776 C.3     1  UNL1        0.4200
     21 F           2.6976   73.0210   28.7854 F       1  UNL1       -0.1658
     22 F           4.4128   71.5613   28.7374 F       1  UNL1       -0.1658
     23 F           4.0558   72.8351   30.5607 F       1  UNL1       -0.1658
     24 C          10.7783   75.6954   24.0706 C.3     1  UNL1        0.0741
     25 C          10.1150   76.2701   25.2901 C.2     1  UNL1        0.1706
     26 O          10.3763   75.7745   26.3759 O.2     1  UNL1       -0.2943
     27 C          13.5611   82.2053   24.4995 C.2     1  UNL1        0.2483
     28 O          14.7746   81.8637   24.5475 O.2     1  UNL1       -0.2701
     29 N          13.2099   83.5198   24.0337 N.am    1  UNL1       -0.2945
     30 H          12.2085   83.7145   23.8086 H       1  UNL1        0.1501
     31 C          14.2194   84.5650   23.8191 C.3     1  UNL1        0.1535
     32 C          14.6829   84.5832   22.3789 C.2     1  UNL1        0.2443
     33 O          15.5109   83.7216   21.9757 O.2     1  UNL1       -0.2730
     34 N          14.1486   85.5631   21.4715 N.am    1  UNL1       -0.2825
     35 H          13.6627   86.3905   21.8860 H       1  UNL1        0.1549
     36 C          14.2794   85.5212   20.0384 C.ar    1  UNL1        0.0535
     37 C          14.7606   84.3837   19.3655 C.ar    1  UNL1        0.0353
     38 C          14.8247   84.3824   17.9699 C.ar    1  UNL1        0.1002
     39 N          14.4156   85.4705   17.2662 N.ar    1  UNL1       -0.2422
     40 C          13.9330   86.5785   17.8873 C.ar    1  UNL1        0.1002
     41 C          13.8487   86.6199   19.2809 C.ar    1  UNL1        0.0353
     42 C          13.6510   85.9372   24.2250 C.3     1  UNL1        0.0569
     43 C          14.7224   86.8332   24.7804 C.ar    1  UNL1       -0.0017
     44 C          15.6837   87.5197   24.0443 C.ar    1  UNL1        0.0681
     45 N          16.4035   88.3337   24.8493 N.ar    1  UNL1       -0.3523
     46 C          15.8980   88.1761   26.0848 C.ar    1  UNL1        0.0563
     47 C          16.2901   88.8375   27.2478 C.ar    1  UNL1        0.0170
     48 C          15.5975   88.5444   28.4366 C.ar    1  UNL1        0.0015
     49 C          14.5403   87.6080   28.4361 C.ar    1  UNL1        0.0001
     50 C          14.1653   86.9568   27.2471 C.ar    1  UNL1        0.0012
     51 C          14.8696   87.2685   26.0838 C.ar    1  UNL1        0.0131
     52 H          17.1770   88.9732   24.5608 H       1  UNL1        0.1660
@<TRIPOS>BOND
     1    24    25    1
     2    25    26    2
     3    25     8    1
     4     8     9    1
     5     9    10    1
     6    10    14    1
     7    14    15   ar
     8    15    16   ar
     9    16    17   ar
    10    17    20    1
    11    20    21    1
    12    20    22    1
    13    20    23    1
    14    17    18   ar
    15    18    19   ar
    16    10    11    1
    17    11    12    1
    18    12    13    1
    19    13     1    1
    20     1     2   ar
    21     2     3   ar
    22     3     4   ar
    23     4    27    1
    24    27    28    2
    25    27    29   am
    26    29    31    1
    27    31    42    1
    28    42    43    1
    29    43    44   ar
    30    44    45   ar
    31    45    46   ar
    32    46    47   ar
    33    47    48   ar
    34    48    49   ar
    35    49    50   ar
    36    50    51   ar
    37    31    32    1
    38    32    33    2
    39    32    34   am
    40    34    36    1
    41    36    37   ar
    42    37    38   ar
    43    38    39   ar
    44    39    40   ar
    45    40    41   ar
    46     4     5   ar
    47     5     6    1
    48     5     7   ar
    49    13     8    1
    50     7     1   ar
    51    19    14   ar
    52    51    43   ar
    53    41    36   ar
    54    51    46   ar
    55    29    30    1
    56    45    52    1
    57    34    35    1
@<TRIPOS>MOLECULE
*****
 52 57 0 0 0
SMALL
GASTEIGER

@<TRIPOS>ATOM
      1 C          10.5815   79.3341   26.1822 C.ar    1  UNL1        0.0504
      2 C          10.1767   80.6760   26.1820 C.ar    1  UNL1        0.0148
      3 C          11.0168   81.6689   25.6716 C.ar    1  UNL1        0.0080
      4 C          12.2790   81.3382   25.1469 C.ar    1  UNL1        0.0808
      5 C          12.6888   79.9900   25.1589 C.ar    1  UNL1        0.1457
      6 F          13.8935   79.6232   24.6520 F       1  UNL1       -0.2040
      7 C          11.8445   78.9997   25.6705 C.ar    1  UNL1        0.0443
      8 C           9.8677   77.8904   28.1086 C.3     1  UNL1        0.1507
      9 C           9.3886   76.4395   28.3327 C.3     1  UNL1        0.1194
     10 N           8.1730   76.1443   27.5639 N.pl3   1  UNL1       -0.2893
     11 C           8.1638   76.4885   26.1402 C.3     1  UNL1        0.1136
     12 C           8.4918   77.9660   25.9616 C.3     1  UNL1        0.1126
     13 N           9.7096   78.3137   26.7050 N.pl3   1  UNL1       -0.2997
     14 C           7.1137   75.3363   28.1155 C.ar    1  UNL1        0.1318
     15 C           7.1507   74.8961   29.4483 C.ar    1  UNL1        0.0343
     16 C           6.1044   74.1185   29.9466 C.ar    1  UNL1        0.0083
     17 C           5.0142   73.7909   29.1267 C.ar    1  UNL1        0.0906
     18 C           5.0323   74.2213   27.7911 C.ar    1  UNL1        0.1041
     19 N           6.0627   74.9766   27.3277 N.ar    1  UNL1       -0.2292
     20 C           3.9030   72.9099   29.6376 C.3     1  UNL1        0.4200
     21 F           2.6990   73.5927   29.6363 F       1  UNL1       -0.1658
     22 F           3.7920   71.7987   28.8229 F       1  UNL1       -0.1658
     23 F           4.1648   72.4959   30.9323 F       1  UNL1       -0.1658
     24 C           9.9845   79.8536   29.8928 C.3     1  UNL1        0.0741
     25 C           9.2078   78.8872   29.0440 C.2     1  UNL1        0.1706
     26 O           7.9898   78.8849   29.1408 O.2     1  UNL1       -0.2943
     27 C          13.1704   82.3973   24.6152 C.2     1  UNL1        0.2483
     28 O          14.3479   82.1035   24.2704 O.2     1  UNL1       -0.2701
     29 N          12.7066   83.7518   24.4804 N.am    1  UNL1       -0.2945
     30 H          11.6829   83.9367   24.5753 H       1  UNL1        0.1501
     31 C          13.6187   84.8590   24.1641 C.3     1  UNL1        0.1535
     32 C          12.9235   85.9125   23.3299 C.2     1  UNL1        0.2443
     33 O          12.0214   86.6267   23.8464 O.2     1  UNL1       -0.2730
     34 N          13.3214   86.1147   21.9625 N.am    1  UNL1       -0.2825
     35 H          13.8872   85.3625   21.5082 H       1  UNL1        0.1549
     36 C          12.9540   87.2473   21.1531 C.ar    1  UNL1        0.0535
     37 C          11.7419   87.2944   20.4412 C.ar    1  UNL1        0.0353
     38 C          11.4161   88.4374   19.7071 C.ar    1  UNL1        0.1002
     39 N          12.2611   89.5014   19.6887 N.ar    1  UNL1       -0.2422
     40 C          13.4323   89.4911   20.3776 C.ar    1  UNL1        0.1002
     41 C          13.7945   88.3694   21.1271 C.ar    1  UNL1        0.0353
     42 C          14.1729   85.4721   25.4633 C.3     1  UNL1        0.0569
     43 C          14.5971   86.8997   25.2598 C.ar    1  UNL1       -0.0017
     44 C          14.1779   87.9967   26.0067 C.ar    1  UNL1        0.0681
     45 N          14.8565   89.1068   25.6383 N.ar    1  UNL1       -0.3523
     46 C          15.7083   88.7186   24.6736 C.ar    1  UNL1        0.0563
     47 C          16.6465   89.5069   24.0088 C.ar    1  UNL1        0.0170
     48 C          17.4675   88.8850   23.0507 C.ar    1  UNL1        0.0015
     49 C          17.3343   87.5049   22.7821 C.ar    1  UNL1        0.0001
     50 C          16.3797   86.7338   23.4695 C.ar    1  UNL1        0.0012
     51 C          15.5804   87.3777   24.4146 C.ar    1  UNL1        0.0131
     52 H          14.7548   90.0643   26.0424 H       1  UNL1        0.1660
@<TRIPOS>BOND
     1    24    25    1
     2    25    26    2
     3    25     8    1
     4     8     9    1
     5     9    10    1
     6    10    14    1
     7    14    15   ar
     8    15    16   ar
     9    16    17   ar
    10    17    20    1
    11    20    21    1
    12    20    22    1
    13    20    23    1
    14    17    18   ar
    15    18    19   ar
    16    10    11    1
    17    11    12    1
    18    12    13    1
    19    13     1    1
    20     1     2   ar
    21     2     3   ar
    22     3     4   ar
    23     4    27    1
    24    27    28    2
    25    27    29   am
    26    29    31    1
    27    31    42    1
    28    42    43    1
    29    43    44   ar
    30    44    45   ar
    31    45    46   ar
    32    46    47   ar
    33    47    48   ar
    34    48    49   ar
    35    49    50   ar
    36    50    51   ar
    37    31    32    1
    38    32    33    2
    39    32    34   am
    40    34    36    1
    41    36    37   ar
    42    37    38   ar
    43    38    39   ar
    44    39    40   ar
    45    40    41   ar
    46     4     5   ar
    47     5     6    1
    48     5     7   ar
    49    13     8    1
    50     7     1   ar
    51    19    14   ar
    52    51    43   ar
    53    41    36   ar
    54    51    46   ar
    55    29    30    1
    56    45    52    1
    57    34    35    1
@<TRIPOS>MOLECULE
*****
 52 57 0 0 0
SMALL
GASTEIGER

@<TRIPOS>ATOM
      1 C          10.9671   79.2292   25.9295 C.ar    1  UNL1        0.0504
      2 C          10.6006   80.5819   25.9474 C.ar    1  UNL1        0.0148
      3 C          11.4821   81.5604   25.4810 C.ar    1  UNL1        0.0080
      4 C          12.7482   81.2043   24.9830 C.ar    1  UNL1        0.0808
      5 C          13.1191   79.8449   24.9769 C.ar    1  UNL1        0.1457
      6 F          14.3263   79.4541   24.4945 F       1  UNL1       -0.2040
      7 C          12.2335   78.8691   25.4445 C.ar    1  UNL1        0.0443
      8 C          10.2243   77.6934   27.7720 C.3     1  UNL1        0.1507
      9 C           9.6692   76.2589   27.9093 C.3     1  UNL1        0.1194
     10 N           8.4183   76.0868   27.1601 N.pl3   1  UNL1       -0.2893
     11 C           8.3902   76.5315   25.7647 C.3     1  UNL1        0.1136
     12 C           8.7972   77.9976   25.6794 C.3     1  UNL1        0.1126
     13 N          10.0527   78.2238   26.4069 N.pl3   1  UNL1       -0.2997
     14 C           7.3299   75.3012   27.6867 C.ar    1  UNL1        0.1318
     15 C           6.8480   75.5038   28.9899 C.ar    1  UNL1        0.0343
     16 C           5.7902   74.7256   29.4624 C.ar    1  UNL1        0.0083
     17 C           5.2008   73.7571   28.6362 C.ar    1  UNL1        0.0906
     18 C           5.7344   73.5623   27.3529 C.ar    1  UNL1        0.1041
     19 N           6.7657   74.3314   26.9149 N.ar    1  UNL1       -0.2292
     20 C           4.0918   72.8760   29.1517 C.3     1  UNL1        0.4200
     21 F           4.0190   72.9406   30.5324 F       1  UNL1       -0.1658
     22 F           2.8891   73.2978   28.6166 F       1  UNL1       -0.1658
     23 F           4.3086   71.5574   28.7906 F       1  UNL1       -0.1658
     24 C           8.2227   79.1291   28.7634 C.3     1  UNL1        0.0741
     25 C           9.6483   78.6559   28.7946 C.2     1  UNL1        0.1706
     26 O          10.3828   79.0964   29.6661 O.2     1  UNL1       -0.2943
     27 C          13.6834   82.2480   24.4982 C.2     1  UNL1        0.2483
     28 O          14.9219   82.0093   24.4722 O.2     1  UNL1       -0.2701
     29 N          13.1953   83.5243   24.0501 N.am    1  UNL1       -0.2945
     30 H          12.1692   83.6328   23.8867 H       1  UNL1        0.1501
     31 C          14.0986   84.6482   23.7693 C.3     1  UNL1        0.1535
     32 C          14.5800   84.6114   22.3353 C.2     1  UNL1        0.2443
     33 O          15.4012   83.7259   21.9721 O.2     1  UNL1       -0.2730
     34 N          14.0700   85.5667   21.3886 N.am    1  UNL1       -0.2825
     35 H          13.5903   86.4140   21.7686 H       1  UNL1        0.1549
     36 C          14.2179   85.4745   19.9595 C.ar    1  UNL1        0.0535
     37 C          14.6167   84.2840   19.3254 C.ar    1  UNL1        0.0353
     38 C          14.7007   84.2385   17.9317 C.ar    1  UNL1        0.1002
     39 N          14.3898   85.3354   17.1923 N.ar    1  UNL1       -0.2422
     40 C          13.9881   86.4951   17.7754 C.ar    1  UNL1        0.1002
     41 C          13.8872   86.5822   19.1658 C.ar    1  UNL1        0.0353
     42 C          13.3898   85.9814   24.0712 C.3     1  UNL1        0.0569
     43 C          14.3512   87.0062   24.6047 C.ar    1  UNL1       -0.0017
     44 C          14.9948   87.9938   23.8647 C.ar    1  UNL1        0.0681
     45 N          15.6835   88.8231   24.6813 N.ar    1  UNL1       -0.3523
     46 C          15.4714   88.3751   25.9307 C.ar    1  UNL1        0.0563
     47 C          15.9456   88.9303   27.1183 C.ar    1  UNL1        0.0170
     48 C          15.5713   88.3161   28.3272 C.ar    1  UNL1        0.0015
     49 C          14.7403   87.1741   28.3219 C.ar    1  UNL1        0.0001
     50 C          14.2753   86.6364   27.1082 C.ar    1  UNL1        0.0012
     51 C          14.6623   87.2675   25.9256 C.ar    1  UNL1        0.0131
     52 H          16.2438   89.6571   24.3966 H       1  UNL1        0.1660
@<TRIPOS>BOND
     1    24    25    1
     2    25    26    2
     3    25     8    1
     4     8     9    1
     5     9    10    1
     6    10    14    1
     7    14    15   ar
     8    15    16   ar
     9    16    17   ar
    10    17    20    1
    11    20    21    1
    12    20    22    1
    13    20    23    1
    14    17    18   ar
    15    18    19   ar
    16    10    11    1
    17    11    12    1
    18    12    13    1
    19    13     1    1
    20     1     2   ar
    21     2     3   ar
    22     3     4   ar
    23     4    27    1
    24    27    28    2
    25    27    29   am
    26    29    31    1
    27    31    42    1
    28    42    43    1
    29    43    44   ar
    30    44    45   ar
    31    45    46   ar
    32    46    47   ar
    33    47    48   ar
    34    48    49   ar
    35    49    50   ar
    36    50    51   ar
    37    31    32    1
    38    32    33    2
    39    32    34   am
    40    34    36    1
    41    36    37   ar
    42    37    38   ar
    43    38    39   ar
    44    39    40   ar
    45    40    41   ar
    46     4     5   ar
    47     5     6    1
    48     5     7   ar
    49    13     8    1
    50     7     1   ar
    51    19    14   ar
    52    51    43   ar
    53    41    36   ar
    54    51    46   ar
    55    29    30    1
    56    45    52    1
    57    34    35    1
@<TRIPOS>MOLECULE
*****
 52 57 0 0 0
SMALL
GASTEIGER

@<TRIPOS>ATOM
      1 C           5.9417   76.5780   23.2276 C.ar    1  UNL1        0.0504
      2 C           7.1642   76.9814   22.6732 C.ar    1  UNL1        0.0148
      3 C           8.2254   77.3606   23.4991 C.ar    1  UNL1        0.0080
      4 C           8.0859   77.3401   24.8984 C.ar    1  UNL1        0.0808
      5 C           6.8522   76.9455   25.4534 C.ar    1  UNL1        0.1457
      6 F           6.6762   76.8992   26.7986 F       1  UNL1       -0.2040
      7 C           5.7930   76.5667   24.6228 C.ar    1  UNL1        0.0443
      8 C           5.1552   75.5024   21.0994 C.3     1  UNL1        0.1507
      9 C           4.0513   75.7312   20.0439 C.3     1  UNL1        0.1194
     10 N           2.7115   75.6981   20.6437 N.pl3   1  UNL1       -0.2893
     11 C           2.4764   76.5135   21.8377 C.3     1  UNL1        0.1136
     12 C           3.4896   76.1552   22.9182 C.3     1  UNL1        0.1126
     13 N           4.8524   76.1832   22.3718 N.pl3   1  UNL1       -0.2997
     14 C           1.5998   75.0808   19.9639 C.ar    1  UNL1        0.1318
     15 C           1.3805   73.6957   20.0335 C.ar    1  UNL1        0.0343
     16 C           0.2910   73.1359   19.3645 C.ar    1  UNL1        0.0083
     17 C          -0.5893   73.9528   18.6395 C.ar    1  UNL1        0.0906
     18 C          -0.3152   75.3272   18.5665 C.ar    1  UNL1        0.1041
     19 N           0.7526   75.8496   19.2252 N.ar    1  UNL1       -0.2292
     20 C          -1.7400   73.3544   17.8714 C.3     1  UNL1        0.4200
     21 F          -1.6701   73.7068   16.5346 F       1  UNL1       -0.1658
     22 F          -1.6910   71.9771   17.9777 F       1  UNL1       -0.1658
     23 F          -2.9486   73.8032   18.3750 F       1  UNL1       -0.1658
     24 C           6.8445   73.5087   21.5706 C.3     1  UNL1        0.0741
     25 C           5.4562   74.0340   21.3384 C.2     1  UNL1        0.1706
     26 O           4.5344   73.2326   21.3077 O.2     1  UNL1       -0.2943
     27 C           9.2125   77.7527   25.7699 C.2     1  UNL1        0.2483
     28 O          10.3354   78.0085   25.2549 O.2     1  UNL1       -0.2701
     29 N           9.0382   77.8725   27.1923 N.am    1  UNL1       -0.2945
     30 H           8.0665   77.8569   27.5755 H       1  UNL1        0.1501
     31 C          10.1750   78.0671   28.1020 C.3     1  UNL1        0.1535
     32 C          10.1338   79.4408   28.7349 C.2     1  UNL1        0.2443
     33 O          10.0626   80.4661   28.0039 O.2     1  UNL1       -0.2730
     34 N          10.1412   79.5649   30.1679 N.am    1  UNL1       -0.2825
     35 H          10.4381   78.7306   30.7231 H       1  UNL1        0.1549
     36 C           9.8249   80.7662   30.8956 C.ar    1  UNL1        0.0535
     37 C          10.1274   82.0448   30.3935 C.ar    1  UNL1        0.0353
     38 C           9.7574   83.1780   31.1218 C.ar    1  UNL1        0.1002
     39 N           9.1007   83.0460   32.3041 N.ar    1  UNL1       -0.2422
     40 C           8.7823   81.8249   32.8079 C.ar    1  UNL1        0.1002
     41 C           9.1307   80.6663   32.1099 C.ar    1  UNL1        0.0353
     42 C          10.1782   76.9702   29.1827 C.3     1  UNL1        0.0569
     43 C           8.8873   76.2004   29.1879 C.ar    1  UNL1       -0.0017
     44 C           8.6683   74.9578   28.6003 C.ar    1  UNL1        0.0681
     45 N           7.4343   74.4993   28.9097 N.ar    1  UNL1       -0.3523
     46 C           6.8765   75.4355   29.6966 C.ar    1  UNL1        0.0563
     47 C           5.6199   75.3924   30.2988 C.ar    1  UNL1        0.0170
     48 C           5.2457   76.4729   31.1182 C.ar    1  UNL1        0.0015
     49 C           6.1262   77.5594   31.3156 C.ar    1  UNL1        0.0001
     50 C           7.3890   77.5752   30.6963 C.ar    1  UNL1        0.0012
     51 C           7.7327   76.4895   29.8902 C.ar    1  UNL1        0.0131
     52 H           7.0140   73.5896   28.6163 H       1  UNL1        0.1660
@<TRIPOS>BOND
     1    24    25    1
     2    25    26    2
     3    25     8    1
     4     8     9    1
     5     9    10    1
     6    10    14    1
     7    14    15   ar
     8    15    16   ar
     9    16    17   ar
    10    17    20    1
    11    20    21    1
    12    20    22    1
    13    20    23    1
    14    17    18   ar
    15    18    19   ar
    16    10    11    1
    17    11    12    1
    18    12    13    1
    19    13     1    1
    20     1     2   ar
    21     2     3   ar
    22     3     4   ar
    23     4    27    1
    24    27    28    2
    25    27    29   am
    26    29    31    1
    27    31    42    1
    28    42    43    1
    29    43    44   ar
    30    44    45   ar
    31    45    46   ar
    32    46    47   ar
    33    47    48   ar
    34    48    49   ar
    35    49    50   ar
    36    50    51   ar
    37    31    32    1
    38    32    33    2
    39    32    34   am
    40    34    36    1
    41    36    37   ar
    42    37    38   ar
    43    38    39   ar
    44    39    40   ar
    45    40    41   ar
    46     4     5   ar
    47     5     6    1
    48     5     7   ar
    49    13     8    1
    50     7     1   ar
    51    19    14   ar
    52    51    43   ar
    53    41    36   ar
    54    51    46   ar
    55    29    30    1
    56    45    52    1
    57    34    35    1
@<TRIPOS>MOLECULE
*****
 52 57 0 0 0
SMALL
GASTEIGER

@<TRIPOS>ATOM
      1 C          10.6498   79.6407   25.8384 C.ar    1  UNL1        0.0504
      2 C          10.1487   80.9484   25.7810 C.ar    1  UNL1        0.0148
      3 C          10.9654   82.0018   25.3621 C.ar    1  UNL1        0.0080
      4 C          12.3006   81.7670   24.9880 C.ar    1  UNL1        0.0808
      5 C          12.8058   80.4533   25.0578 C.ar    1  UNL1        0.1457
      6 F          14.0847   80.1783   24.6952 F       1  UNL1       -0.2040
      7 C          11.9846   79.4023   25.4775 C.ar    1  UNL1        0.0443
      8 C          10.1589   77.8118   27.4874 C.3     1  UNL1        0.1507
      9 C           9.6153   76.3665   27.4620 C.3     1  UNL1        0.1194
     10 N           8.2701   76.3026   26.8771 N.pl3   1  UNL1       -0.2893
     11 C           8.0506   76.9709   25.5923 C.3     1  UNL1        0.1136
     12 C           8.4551   78.4366   25.6943 C.3     1  UNL1        0.1126
     13 N           9.8022   78.5575   26.2662 N.pl3   1  UNL1       -0.2997
     14 C           7.2592   75.4255   27.4137 C.ar    1  UNL1        0.1318
     15 C           6.8722   74.2581   26.7363 C.ar    1  UNL1        0.0343
     16 C           5.8925   73.4327   27.2899 C.ar    1  UNL1        0.0083
     17 C           5.3082   73.7578   28.5232 C.ar    1  UNL1        0.0906
     18 C           5.6979   74.9509   29.1509 C.ar    1  UNL1        0.1041
     19 N           6.6532   75.7397   28.5921 N.ar    1  UNL1       -0.2292
     20 C           4.2134   72.9017   29.1069 C.3     1  UNL1        0.4200
     21 F           2.9771   73.2940   28.6236 F       1  UNL1       -0.1658
     22 F           4.4345   71.5817   28.7610 F       1  UNL1       -0.1658
     23 F           4.1932   73.0094   30.4867 F       1  UNL1       -0.1658
     24 C           8.9572   77.9691   29.8500 C.3     1  UNL1        0.0741
     25 C           9.7409   78.5842   28.7254 C.2     1  UNL1        0.1706
     26 O          10.0226   79.7708   28.8006 O.2     1  UNL1       -0.2943
     27 C          13.1657   82.8903   24.5533 C.2     1  UNL1        0.2483
     28 O          14.2293   83.1364   25.1854 O.2     1  UNL1       -0.2701
     29 N          12.8111   83.6962   23.4162 N.am    1  UNL1       -0.2945
     30 H          12.0468   83.3590   22.7890 H       1  UNL1        0.1501
     31 C          13.5239   84.9384   23.0901 C.3     1  UNL1        0.1535
     32 C          13.5143   85.8931   24.2639 C.2     1  UNL1        0.2443
     33 O          12.5780   86.7293   24.3844 O.2     1  UNL1       -0.2730
     34 N          14.5561   85.8158   25.2527 N.am    1  UNL1       -0.2825
     35 H          15.4231   85.2896   25.0003 H       1  UNL1        0.1549
     36 C          14.5206   86.4539   26.5428 C.ar    1  UNL1        0.0535
     37 C          14.6704   87.8444   26.6924 C.ar    1  UNL1        0.0353
     38 C          14.5830   88.4156   27.9643 C.ar    1  UNL1        0.1002
     39 N          14.3452   87.6333   29.0497 N.ar    1  UNL1       -0.2422
     40 C          14.1822   86.2892   28.9352 C.ar    1  UNL1        0.1002
     41 C          14.2585   85.6784   27.6813 C.ar    1  UNL1        0.0353
     42 C          14.9677   84.6196   22.6600 C.3     1  UNL1        0.0569
     43 C          15.5843   85.7680   21.9116 C.ar    1  UNL1       -0.0017
     44 C          15.2620   86.1761   20.6205 C.ar    1  UNL1        0.0681
     45 N          15.9134   87.3197   20.3096 N.ar    1  UNL1       -0.3523
     46 C          16.6349   87.6436   21.3965 C.ar    1  UNL1        0.0563
     47 C          17.4432   88.7664   21.5690 C.ar    1  UNL1        0.0170
     48 C          18.0862   88.9296   22.8095 C.ar    1  UNL1        0.0015
     49 C          17.9083   87.9783   23.8380 C.ar    1  UNL1        0.0001
     50 C          17.0854   86.8556   23.6361 C.ar    1  UNL1        0.0012
     51 C          16.4601   86.7208   22.3962 C.ar    1  UNL1        0.0131
     52 H          15.8459   87.8538   19.4148 H       1  UNL1        0.1660
@<TRIPOS>BOND
     1    24    25    1
     2    25    26    2
     3    25     8    1
     4     8     9    1
     5     9    10    1
     6    10    14    1
     7    14    15   ar
     8    15    16   ar
     9    16    17   ar
    10    17    20    1
    11    20    21    1
    12    20    22    1
    13    20    23    1
    14    17    18   ar
    15    18    19   ar
    16    10    11    1
    17    11    12    1
    18    12    13    1
    19    13     1    1
    20     1     2   ar
    21     2     3   ar
    22     3     4   ar
    23     4    27    1
    24    27    28    2
    25    27    29   am
    26    29    31    1
    27    31    42    1
    28    42    43    1
    29    43    44   ar
    30    44    45   ar
    31    45    46   ar
    32    46    47   ar
    33    47    48   ar
    34    48    49   ar
    35    49    50   ar
    36    50    51   ar
    37    31    32    1
    38    32    33    2
    39    32    34   am
    40    34    36    1
    41    36    37   ar
    42    37    38   ar
    43    38    39   ar
    44    39    40   ar
    45    40    41   ar
    46     4     5   ar
    47     5     6    1
    48     5     7   ar
    49    13     8    1
    50     7     1   ar
    51    19    14   ar
    52    51    43   ar
    53    41    36   ar
    54    51    46   ar
    55    29    30    1
    56    45    52    1
    57    34    35    1
@<TRIPOS>MOLECULE
*****
 52 57 0 0 0
SMALL
GASTEIGER

@<TRIPOS>ATOM
      1 C           5.9275   76.6339   23.0038 C.ar    1  UNL1        0.0504
      2 C           7.0835   77.1719   22.4220 C.ar    1  UNL1        0.0148
      3 C           8.1576   77.5723   23.2208 C.ar    1  UNL1        0.0080
      4 C           8.0979   77.4387   24.6196 C.ar    1  UNL1        0.0808
      5 C           6.9300   76.9085   25.2032 C.ar    1  UNL1        0.1457
      6 F           6.8329   76.7503   26.5479 F       1  UNL1       -0.2040
      7 C           5.8578   76.5089   24.3996 C.ar    1  UNL1        0.0443
      8 C           5.1088   75.5293   20.9027 C.3     1  UNL1        0.1507
      9 C           3.9796   75.7348   19.8694 C.3     1  UNL1        0.1194
     10 N           2.6536   75.6907   20.4984 N.pl3   1  UNL1       -0.2893
     11 C           2.4341   76.5140   21.6898 C.3     1  UNL1        0.1136
     12 C           3.4747   76.1781   22.7512 C.3     1  UNL1        0.1126
     13 N           4.8250   76.2179   22.1753 N.pl3   1  UNL1       -0.2997
     14 C           1.5352   75.0536   19.8483 C.ar    1  UNL1        0.1318
     15 C           1.3054   73.6745   19.9777 C.ar    1  UNL1        0.0343
     16 C           0.2099   73.0951   19.3359 C.ar    1  UNL1        0.0083
     17 C          -0.6662   73.8871   18.5787 C.ar    1  UNL1        0.0906
     18 C          -0.3816   75.2549   18.4462 C.ar    1  UNL1        0.1041
     19 N           0.6920   75.7967   19.0794 N.ar    1  UNL1       -0.2292
     20 C          -1.8235   73.2654   17.8397 C.3     1  UNL1        0.4200
     21 F          -3.0277   73.7306   18.3390 F       1  UNL1       -0.1658
     22 F          -1.7353   73.5911   16.4992 F       1  UNL1       -0.1658
     23 F          -1.8031   71.8877   17.9716 F       1  UNL1       -0.1658
     24 C           6.8369   73.5513   21.2924 C.3     1  UNL1        0.0741
     25 C           5.4331   74.0669   21.1482 C.2     1  UNL1        0.1706
     26 O           4.5155   73.2617   21.1976 O.2     1  UNL1       -0.2943
     27 C           9.2370   77.8742   25.4632 C.2     1  UNL1        0.2483
     28 O           9.6164   79.0768   25.4228 O.2     1  UNL1       -0.2701
     29 N           9.9083   76.9452   26.3318 N.am    1  UNL1       -0.2945
     30 H           9.4608   76.0175   26.5056 H       1  UNL1        0.1501
     31 C          11.1644   77.2852   27.0133 C.3     1  UNL1        0.1535
     32 C          12.0509   78.1311   26.1256 C.2     1  UNL1        0.2443
     33 O          11.9592   79.3883   26.1634 O.2     1  UNL1       -0.2730
     34 N          13.0163   77.4947   25.2700 N.am    1  UNL1       -0.2825
     35 H          12.9007   76.4718   25.0890 H       1  UNL1        0.1549
     36 C          14.0973   78.1682   24.5986 C.ar    1  UNL1        0.0535
     37 C          14.5478   79.4393   24.9980 C.ar    1  UNL1        0.0353
     38 C          15.6303   80.0269   24.3387 C.ar    1  UNL1        0.1002
     39 N          16.2504   79.3700   23.3236 N.ar    1  UNL1       -0.2422
     40 C          15.8470   78.1353   22.9247 C.ar    1  UNL1        0.1002
     41 C          14.7710   77.5106   23.5594 C.ar    1  UNL1        0.0353
     42 C          10.8651   78.0141   28.3362 C.3     1  UNL1        0.0569
     43 C           9.5441   77.5869   28.9121 C.ar    1  UNL1       -0.0017
     44 C           8.4196   78.3906   29.0753 C.ar    1  UNL1        0.0681
     45 N           7.3683   77.6526   29.4985 N.ar    1  UNL1       -0.3523
     46 C           7.8156   76.3886   29.5929 C.ar    1  UNL1        0.0563
     47 C           7.0831   75.2589   29.9546 C.ar    1  UNL1        0.0170
     48 C           7.7452   74.0178   29.9546 C.ar    1  UNL1        0.0015
     49 C           9.1088   73.9345   29.5965 C.ar    1  UNL1        0.0001
     50 C           9.8226   75.0911   29.2343 C.ar    1  UNL1        0.0012
     51 C           9.1393   76.3075   29.2427 C.ar    1  UNL1        0.0131
     52 H           6.4000   77.9951   29.6870 H       1  UNL1        0.1660
@<TRIPOS>BOND
     1    24    25    1
     2    25    26    2
     3    25     8    1
     4     8     9    1
     5     9    10    1
     6    10    14    1
     7    14    15   ar
     8    15    16   ar
     9    16    17   ar
    10    17    20    1
    11    20    21    1
    12    20    22    1
    13    20    23    1
    14    17    18   ar
    15    18    19   ar
    16    10    11    1
    17    11    12    1
    18    12    13    1
    19    13     1    1
    20     1     2   ar
    21     2     3   ar
    22     3     4   ar
    23     4    27    1
    24    27    28    2
    25    27    29   am
    26    29    31    1
    27    31    42    1
    28    42    43    1
    29    43    44   ar
    30    44    45   ar
    31    45    46   ar
    32    46    47   ar
    33    47    48   ar
    34    48    49   ar
    35    49    50   ar
    36    50    51   ar
    37    31    32    1
    38    32    33    2
    39    32    34   am
    40    34    36    1
    41    36    37   ar
    42    37    38   ar
    43    38    39   ar
    44    39    40   ar
    45    40    41   ar
    46     4     5   ar
    47     5     6    1
    48     5     7   ar
    49    13     8    1
    50     7     1   ar
    51    19    14   ar
    52    51    43   ar
    53    41    36   ar
    54    51    46   ar
    55    29    30    1
    56    45    52    1
    57    34    35    1
@<TRIPOS>MOLECULE
*****
 52 57 0 0 0
SMALL
GASTEIGER

@<TRIPOS>ATOM
      1 C          11.4513   79.5542   25.2676 C.ar    1  UNL1        0.0504
      2 C          10.5187   79.4734   26.3107 C.ar    1  UNL1        0.0148
      3 C           9.8154   78.2884   26.5414 C.ar    1  UNL1        0.0080
      4 C          10.0342   77.1577   25.7342 C.ar    1  UNL1        0.0808
      5 C          10.9636   77.2449   24.6786 C.ar    1  UNL1        0.1457
      6 F          11.2155   76.1752   23.8817 F       1  UNL1       -0.2040
      7 C          11.6653   78.4329   24.4517 C.ar    1  UNL1        0.0443
      8 C          13.4837   80.9657   25.6947 C.3     1  UNL1        0.1507
      9 C          13.8127   82.4593   25.9091 C.3     1  UNL1        0.1194
     10 N          13.3931   83.2773   24.7643 N.pl3   1  UNL1       -0.2893
     11 C          12.0270   83.1050   24.2647 C.3     1  UNL1        0.1136
     12 C          11.7824   81.6413   23.9178 C.3     1  UNL1        0.1126
     13 N          12.1774   80.7768   25.0371 N.pl3   1  UNL1       -0.2997
     14 C          14.1991   84.3752   24.2907 C.ar    1  UNL1        0.1318
     15 C          14.3358   85.5555   25.0389 C.ar    1  UNL1        0.0343
     16 C          15.1277   86.5946   24.5484 C.ar    1  UNL1        0.0083
     17 C          15.7963   86.4563   23.3229 C.ar    1  UNL1        0.0906
     18 C          15.6058   85.2748   22.5899 C.ar    1  UNL1        0.1041
     19 N          14.8287   84.2768   23.0872 N.ar    1  UNL1       -0.2292
     20 C          16.6134   87.5902   22.7584 C.3     1  UNL1        0.4200
     21 F          17.8697   87.6224   23.3386 F       1  UNL1       -0.1658
     22 F          16.7513   87.4168   21.3940 F       1  UNL1       -0.1658
     23 F          15.9941   88.8046   22.9987 F       1  UNL1       -0.1658
     24 C          14.9691   78.8057   25.2723 C.3     1  UNL1        0.0741
     25 C          14.5712   80.2172   24.9458 C.2     1  UNL1        0.1706
     26 O          15.1782   80.7963   24.0574 O.2     1  UNL1       -0.2943
     27 C           9.2779   75.9056   25.9776 C.2     1  UNL1        0.2483
     28 O           9.5083   75.2329   27.0197 O.2     1  UNL1       -0.2701
     29 N           8.2806   75.4539   25.0452 N.am    1  UNL1       -0.2945
     30 H           7.9607   76.1155   24.3027 H       1  UNL1        0.1501
     31 C           7.6706   74.1212   25.1428 C.3     1  UNL1        0.1535
     32 C           6.4312   74.1547   26.0101 C.2     1  UNL1        0.2443
     33 O           5.2950   74.2733   25.4757 O.2     1  UNL1       -0.2730
     34 N           6.5564   74.0159   27.4362 N.am    1  UNL1       -0.2825
     35 H           7.5037   74.1600   27.8539 H       1  UNL1        0.1549
     36 C           5.4679   73.7490   28.3399 C.ar    1  UNL1        0.0535
     37 C           4.7422   72.5448   28.2995 C.ar    1  UNL1        0.0353
     38 C           3.7244   72.3203   29.2297 C.ar    1  UNL1        0.1002
     39 N           3.4434   73.2560   30.1741 N.ar    1  UNL1       -0.2422
     40 C           4.1362   74.4227   30.2471 C.ar    1  UNL1        0.1002
     41 C           5.1640   74.6853   29.3385 C.ar    1  UNL1        0.0353
     42 C           7.3363   73.5909   23.7364 C.3     1  UNL1        0.0569
     43 C           8.3897   73.9805   22.7376 C.ar    1  UNL1       -0.0017
     44 C           8.3638   75.0981   21.9085 C.ar    1  UNL1        0.0681
     45 N           9.5297   75.2130   21.2331 N.ar    1  UNL1       -0.3523
     46 C          10.2958   74.1848   21.6366 C.ar    1  UNL1        0.0563
     47 C          11.6040   73.9029   21.2459 C.ar    1  UNL1        0.0170
     48 C          12.2368   72.7869   21.8229 C.ar    1  UNL1        0.0015
     49 C          11.5559   71.9874   22.7671 C.ar    1  UNL1        0.0001
     50 C          10.2364   72.2967   23.1437 C.ar    1  UNL1        0.0012
     51 C           9.6351   73.4098   22.5555 C.ar    1  UNL1        0.0131
     52 H           9.7882   75.9648   20.5560 H       1  UNL1        0.1660
@<TRIPOS>BOND
     1    24    25    1
     2    25    26    2
     3    25     8    1
     4     8     9    1
     5     9    10    1
     6    10    14    1
     7    14    15   ar
     8    15    16   ar
     9    16    17   ar
    10    17    20    1
    11    20    21    1
    12    20    22    1
    13    20    23    1
    14    17    18   ar
    15    18    19   ar
    16    10    11    1
    17    11    12    1
    18    12    13    1
    19    13     1    1
    20     1     2   ar
    21     2     3   ar
    22     3     4   ar
    23     4    27    1
    24    27    28    2
    25    27    29   am
    26    29    31    1
    27    31    42    1
    28    42    43    1
    29    43    44   ar
    30    44    45   ar
    31    45    46   ar
    32    46    47   ar
    33    47    48   ar
    34    48    49   ar
    35    49    50   ar
    36    50    51   ar
    37    31    32    1
    38    32    33    2
    39    32    34   am
    40    34    36    1
    41    36    37   ar
    42    37    38   ar
    43    38    39   ar
    44    39    40   ar
    45    40    41   ar
    46     4     5   ar
    47     5     6    1
    48     5     7   ar
    49    13     8    1
    50     7     1   ar
    51    19    14   ar
    52    51    43   ar
    53    41    36   ar
    54    51    46   ar
    55    29    30    1
    56    45    52    1
    57    34    35    1
@<TRIPOS>MOLECULE
*****
 52 57 0 0 0
SMALL
GASTEIGER

@<TRIPOS>ATOM
      1 C           6.0279   76.3742   22.9387 C.ar    1  UNL1        0.0504
      2 C           6.0117   76.1334   24.3193 C.ar    1  UNL1        0.0148
      3 C           7.1109   76.4762   25.1108 C.ar    1  UNL1        0.0080
      4 C           8.2484   77.0712   24.5365 C.ar    1  UNL1        0.0808
      5 C           8.2673   77.3015   23.1464 C.ar    1  UNL1        0.1457
      6 F           9.3391   77.8842   22.5510 F       1  UNL1       -0.2040
      7 C           7.1647   76.9570   22.3584 C.ar    1  UNL1        0.0443
      8 C           5.1175   75.4240   20.8001 C.3     1  UNL1        0.1507
      9 C           3.9501   75.7078   19.8297 C.3     1  UNL1        0.1194
     10 N           2.6497   75.6272   20.5066 N.pl3   1  UNL1       -0.2893
     11 C           2.4844   76.3663   21.7604 C.3     1  UNL1        0.1136
     12 C           3.5633   75.9510   22.7534 C.3     1  UNL1        0.1126
     13 N           4.8901   76.0235   22.1280 N.pl3   1  UNL1       -0.2997
     14 C           1.5013   75.0434   19.8590 C.ar    1  UNL1        0.1318
     15 C           1.2109   73.6753   19.9834 C.ar    1  UNL1        0.0343
     16 C           0.0878   73.1482   19.3442 C.ar    1  UNL1        0.0083
     17 C          -0.7555   73.9818   18.5946 C.ar    1  UNL1        0.0906
     18 C          -0.4110   75.3362   18.4667 C.ar    1  UNL1        0.1041
     19 N           0.6885   75.8268   19.0973 N.ar    1  UNL1       -0.2292
     20 C          -1.9426   73.4156   17.8582 C.3     1  UNL1        0.4200
     21 F          -3.1250   73.8698   18.4163 F       1  UNL1       -0.1658
     22 F          -1.8880   73.8105   16.5346 F       1  UNL1       -0.1658
     23 F          -1.9390   72.0327   17.9170 F       1  UNL1       -0.1658
     24 C           6.8374   73.4230   21.0975 C.3     1  UNL1        0.0741
     25 C           5.4391   73.9463   20.9299 C.2     1  UNL1        0.1706
     26 O           4.5255   73.1378   20.8612 O.2     1  UNL1       -0.2943
     27 C           9.4160   77.4242   25.3798 C.2     1  UNL1        0.2483
     28 O           9.6993   76.7092   26.3798 O.2     1  UNL1       -0.2701
     29 N          10.2329   78.5656   25.0669 N.am    1  UNL1       -0.2945
     30 H          10.1112   79.0213   24.1348 H       1  UNL1        0.1501
     31 C          11.2576   79.0666   25.9925 C.3     1  UNL1        0.1535
     32 C          10.6262   79.6271   27.2481 C.2     1  UNL1        0.2443
     33 O          10.2166   80.8197   27.2654 O.2     1  UNL1       -0.2730
     34 N          10.4667   78.7835   28.4022 N.am    1  UNL1       -0.2825
     35 H          11.0220   77.8986   28.4337 H       1  UNL1        0.1549
     36 C           9.6438   79.0899   29.5431 C.ar    1  UNL1        0.0535
     37 C           9.8696   80.2244   30.3434 C.ar    1  UNL1        0.0353
     38 C           9.0123   80.4973   31.4122 C.ar    1  UNL1        0.1002
     39 N           7.9609   79.6765   31.6714 N.ar    1  UNL1       -0.2422
     40 C           7.7090   78.5811   30.9078 C.ar    1  UNL1        0.1002
     41 C           8.5394   78.2740   29.8275 C.ar    1  UNL1        0.0353
     42 C          12.2501   77.9413   26.3383 C.3     1  UNL1        0.0569
     43 C          13.1114   77.5866   25.1587 C.ar    1  UNL1       -0.0017
     44 C          12.8091   76.6545   24.1704 C.ar    1  UNL1        0.0681
     45 N          13.7422   76.6832   23.1919 N.ar    1  UNL1       -0.3523
     46 C          14.6245   77.6329   23.5477 C.ar    1  UNL1        0.0563
     47 C          15.7447   78.0544   22.8329 C.ar    1  UNL1        0.0170
     48 C          16.5184   79.0959   23.3766 C.ar    1  UNL1        0.0015
     49 C          16.1586   79.6864   24.6080 C.ar    1  UNL1        0.0001
     50 C          15.0217   79.2416   25.3066 C.ar    1  UNL1        0.0012
     51 C          14.2735   78.2079   24.7425 C.ar    1  UNL1        0.0131
     52 H          13.7561   76.1020   22.3245 H       1  UNL1        0.1660
@<TRIPOS>BOND
     1    24    25    1
     2    25    26    2
     3    25     8    1
     4     8     9    1
     5     9    10    1
     6    10    14    1
     7    14    15   ar
     8    15    16   ar
     9    16    17   ar
    10    17    20    1
    11    20    21    1
    12    20    22    1
    13    20    23    1
    14    17    18   ar
    15    18    19   ar
    16    10    11    1
    17    11    12    1
    18    12    13    1
    19    13     1    1
    20     1     2   ar
    21     2     3   ar
    22     3     4   ar
    23     4    27    1
    24    27    28    2
    25    27    29   am
    26    29    31    1
    27    31    42    1
    28    42    43    1
    29    43    44   ar
    30    44    45   ar
    31    45    46   ar
    32    46    47   ar
    33    47    48   ar
    34    48    49   ar
    35    49    50   ar
    36    50    51   ar
    37    31    32    1
    38    32    33    2
    39    32    34   am
    40    34    36    1
    41    36    37   ar
    42    37    38   ar
    43    38    39   ar
    44    39    40   ar
    45    40    41   ar
    46     4     5   ar
    47     5     6    1
    48     5     7   ar
    49    13     8    1
    50     7     1   ar
    51    19    14   ar
    52    51    43   ar
    53    41    36   ar
    54    51    46   ar
    55    29    30    1
    56    45    52    1
    57    34    35    1
