@<TRIPOS>MOLECULE
*****
 40 44 0 0 0
SMALL
GASTEIGER

@<TRIPOS>ATOM
      1 C         -29.8552   48.6302   -6.9002 C.3     1  UNL1        0.1332
      2 N         -28.4249   48.9199   -6.7937 N.ar    1  UNL1       -0.2977
      3 C         -27.5888   48.5965   -5.7657 C.ar    1  UNL1        0.2018
      4 N         -26.3496   49.1369   -5.8760 N.ar    1  UNL1       -0.2135
      5 C         -26.4113   49.7982   -7.0439 C.ar    1  UNL1        0.1000
      6 C         -25.3843   50.5338   -7.6462 C.ar    1  UNL1        0.0282
      7 C         -25.6415   51.1594   -8.8908 C.ar    1  UNL1        0.0888
      8 C         -26.9173   50.9738   -9.4761 C.ar    1  UNL1        0.1409
      9 C         -27.9136   50.2391   -8.8671 C.ar    1  UNL1        0.0429
     10 C         -27.6507   49.6597   -7.6154 C.ar    1  UNL1        0.0797
     11 C         -29.0894   50.1331   -9.7871 C.3     1  UNL1        0.1200
     12 BR        -29.3244   48.2622  -10.3077 Br      1  UNL1       -0.0730
     13 C         -28.6882   51.1084  -10.9602 C.3     1  UNL1        0.1468
     14 C         -28.7903   50.5006  -12.3684 C.3     1  UNL1        0.0448
     15 C         -29.5289   52.3945  -10.8970 C.3     1  UNL1        0.0448
     16 O         -27.3276   51.4504  -10.7032 O.3     1  UNL1       -0.4815
     17 C         -24.5872   51.9522   -9.5626 C.2     1  UNL1        0.2525
     18 O         -24.8525   53.1153   -9.9725 O.2     1  UNL1       -0.2697
     19 N         -23.2875   51.3898   -9.8043 N.am    1  UNL1       -0.2803
     20 H         -23.2209   50.3548   -9.9345 H       1  UNL1        0.1552
     21 C         -22.1018   52.1757  -10.0156 C.ar    1  UNL1        0.0505
     22 C         -21.7771   52.6834  -11.2857 C.ar    1  UNL1        0.0147
     23 C         -20.6417   53.4777  -11.4573 C.ar    1  UNL1        0.0012
     24 C         -19.8211   53.7766  -10.3677 C.ar    1  UNL1        0.0039
     25 C         -20.1237   53.2732   -9.0912 C.ar    1  UNL1        0.0726
     26 C         -21.2843   52.4973   -8.9206 C.ar    1  UNL1        0.0185
     27 C         -19.2732   53.6441   -7.9023 C.3     1  UNL1        0.4186
     28 F         -18.1186   52.8811   -7.8714 F       1  UNL1       -0.1659
     29 F         -19.9912   53.4219   -6.7423 F       1  UNL1       -0.1659
     30 F         -18.9078   54.9782   -7.9579 F       1  UNL1       -0.1659
     31 N         -27.9461   47.7575   -4.6576 N.pl3   1  UNL1       -0.2814
     32 H         -28.8765   47.9168   -4.2101 H       1  UNL1        0.1551
     33 C         -27.0930   46.7443   -4.1004 C.ar    1  UNL1        0.0889
     34 C         -27.2591   45.4132   -4.5184 C.ar    1  UNL1        0.1543
     35 F         -28.2008   45.1003   -5.4438 F       1  UNL1       -0.2028
     36 C         -26.4392   44.4037   -4.0071 C.ar    1  UNL1        0.0310
     37 C         -25.4581   44.7091   -3.0629 C.ar    1  UNL1        0.0033
     38 C         -25.3021   46.0229   -2.6169 C.ar    1  UNL1        0.0128
     39 C         -26.1176   47.0437   -3.1205 C.ar    1  UNL1        0.0733
     40 CL        -25.9303   48.6588   -2.4460 Cl      1  UNL1       -0.0809
@<TRIPOS>BOND
     1     1     2    1
     2     2     3   ar
     3     3    31    1
     4    31    33    1
     5    33    34   ar
     6    34    35    1
     7    34    36   ar
     8    36    37   ar
     9    37    38   ar
    10    38    39   ar
    11    39    40    1
    12     3     4   ar
    13     4     5   ar
    14     5     6   ar
    15     6     7   ar
    16     7    17    1
    17    17    18    2
    18    17    19   am
    19    19    21    1
    20    21    22   ar
    21    22    23   ar
    22    23    24   ar
    23    24    25   ar
    24    25    27    1
    25    27    28    1
    26    27    29    1
    27    27    30    1
    28    25    26   ar
    29     7     8   ar
    30     8     9   ar
    31     9    10   ar
    32     9    11    1
    33    11    12    1
    34    11    13    1
    35    13    14    1
    36    13    15    1
    37    13    16    1
    38    10     2   ar
    39    39    33   ar
    40    10     5   ar
    41    26    21   ar
    42    16     8    1
    43    31    32    1
    44    19    20    1
@<TRIPOS>MOLECULE
*****
 40 44 0 0 0
SMALL
GASTEIGER

@<TRIPOS>ATOM
      1 C         -30.6669   50.0989   -6.7795 C.3     1  UNL1        0.1332
      2 N         -29.2207   50.2442   -6.6108 N.ar    1  UNL1       -0.2977
      3 C         -28.4969   50.0548   -5.4704 C.ar    1  UNL1        0.2018
      4 N         -27.1950   50.4189   -5.5804 N.ar    1  UNL1       -0.2135
      5 C         -27.1007   50.8210   -6.8588 C.ar    1  UNL1        0.1000
      6 C         -25.9540   51.2943   -7.5067 C.ar    1  UNL1        0.0282
      7 C         -26.0532   51.6673   -8.8696 C.ar    1  UNL1        0.0888
      8 C         -27.3038   51.5047   -9.5131 C.ar    1  UNL1        0.1409
      9 C         -28.4205   51.0304   -8.8563 C.ar    1  UNL1        0.0429
     10 C         -28.3102   50.7031   -7.4953 C.ar    1  UNL1        0.0797
     11 C         -29.5416   50.8633   -9.8338 C.3     1  UNL1        0.1200
     12 BR        -29.9787   48.9624   -9.9830 Br      1  UNL1       -0.0730
     13 C         -28.9491   51.5180  -11.1409 C.3     1  UNL1        0.1468
     14 C         -29.0405   50.6415  -12.4003 C.3     1  UNL1        0.0448
     15 C         -29.6228   52.8735  -11.4123 C.3     1  UNL1        0.0448
     16 O         -27.5746   51.7537  -10.8420 O.3     1  UNL1       -0.4815
     17 C         -24.8680   52.1783   -9.5944 C.2     1  UNL1        0.2525
     18 O         -24.9581   53.2514  -10.2513 O.2     1  UNL1       -0.2697
     19 N         -23.6379   51.4360   -9.6057 N.am    1  UNL1       -0.2803
     20 H         -23.6955   50.3961   -9.5187 H       1  UNL1        0.1552
     21 C         -22.3514   52.0225   -9.8686 C.ar    1  UNL1        0.0505
     22 C         -21.9212   52.2848  -11.1810 C.ar    1  UNL1        0.0147
     23 C         -20.6846   52.8920  -11.4085 C.ar    1  UNL1        0.0012
     24 C         -19.8665   53.2464  -10.3336 C.ar    1  UNL1        0.0039
     25 C         -20.2745   52.9864   -9.0144 C.ar    1  UNL1        0.0726
     26 C         -21.5336   52.4003   -8.7918 C.ar    1  UNL1        0.0185
     27 C         -19.4205   53.4227   -7.8504 C.3     1  UNL1        0.4186
     28 F         -20.1410   53.3693   -6.6697 F       1  UNL1       -0.1659
     29 F         -18.9946   54.7209   -8.0600 F       1  UNL1       -0.1659
     30 F         -18.3143   52.6009   -7.7189 F       1  UNL1       -0.1659
     31 N         -29.0247   49.5139   -4.2503 N.pl3   1  UNL1       -0.2814
     32 H         -29.7102   50.0964   -3.7193 H       1  UNL1        0.1551
     33 C         -28.6415   48.2457   -3.6938 C.ar    1  UNL1        0.0889
     34 C         -27.4081   48.1420   -3.0290 C.ar    1  UNL1        0.1543
     35 F         -26.6051   49.2288   -2.9056 F       1  UNL1       -0.2028
     36 C         -27.0086   46.9277   -2.4646 C.ar    1  UNL1        0.0310
     37 C         -27.8268   45.8024   -2.5723 C.ar    1  UNL1        0.0033
     38 C         -29.0414   45.8841   -3.2559 C.ar    1  UNL1        0.0128
     39 C         -29.4532   47.0947   -3.8266 C.ar    1  UNL1        0.0733
     40 CL        -30.9493   47.1038   -4.7539 Cl      1  UNL1       -0.0809
@<TRIPOS>BOND
     1     1     2    1
     2     2     3   ar
     3     3    31    1
     4    31    33    1
     5    33    34   ar
     6    34    35    1
     7    34    36   ar
     8    36    37   ar
     9    37    38   ar
    10    38    39   ar
    11    39    40    1
    12     3     4   ar
    13     4     5   ar
    14     5     6   ar
    15     6     7   ar
    16     7    17    1
    17    17    18    2
    18    17    19   am
    19    19    21    1
    20    21    22   ar
    21    22    23   ar
    22    23    24   ar
    23    24    25   ar
    24    25    27    1
    25    27    28    1
    26    27    29    1
    27    27    30    1
    28    25    26   ar
    29     7     8   ar
    30     8     9   ar
    31     9    10   ar
    32     9    11    1
    33    11    12    1
    34    11    13    1
    35    13    14    1
    36    13    15    1
    37    13    16    1
    38    10     2   ar
    39    39    33   ar
    40    10     5   ar
    41    26    21   ar
    42    16     8    1
    43    31    32    1
    44    19    20    1
@<TRIPOS>MOLECULE
*****
 40 44 0 0 0
SMALL
GASTEIGER

@<TRIPOS>ATOM
      1 C         -30.5876   50.5180   -6.6397 C.3     1  UNL1        0.1332
      2 N         -29.1298   50.3968   -6.6751 N.ar    1  UNL1       -0.2977
      3 C         -28.2922   50.1667   -5.6235 C.ar    1  UNL1        0.2018
      4 N         -26.9766   50.2644   -5.9388 N.ar    1  UNL1       -0.2135
      5 C         -27.0005   50.5345   -7.2546 C.ar    1  UNL1        0.1000
      6 C         -25.8953   50.7244   -8.0919 C.ar    1  UNL1        0.0282
      7 C         -26.1250   50.9962   -9.4630 C.ar    1  UNL1        0.0888
      8 C         -27.4651   51.0239   -9.9189 C.ar    1  UNL1        0.1409
      9 C         -28.5400   50.8279   -9.0766 C.ar    1  UNL1        0.0429
     10 C         -28.2917   50.5986   -7.7137 C.ar    1  UNL1        0.0797
     11 C         -29.8039   50.7989   -9.8779 C.3     1  UNL1        0.1200
     12 BR        -30.5899   49.0113   -9.7634 Br      1  UNL1       -0.0730
     13 C         -29.3021   51.2182  -11.3134 C.3     1  UNL1        0.1468
     14 C         -29.7319   50.2749  -12.4484 C.3     1  UNL1        0.0448
     15 C         -29.7557   52.6507  -11.6408 C.3     1  UNL1        0.0448
     16 O         -27.8789   51.2099  -11.2210 O.3     1  UNL1       -0.4815
     17 C         -24.9868   51.2093  -10.3852 C.2     1  UNL1        0.2525
     18 O         -25.1440   51.0089  -11.6206 O.2     1  UNL1       -0.2697
     19 N         -23.6941   51.5829   -9.8819 N.am    1  UNL1       -0.2803
     20 H         -23.4372   51.2698   -8.9184 H       1  UNL1        0.1552
     21 C         -22.6861   52.2375  -10.6717 C.ar    1  UNL1        0.0505
     22 C         -22.9893   53.3621  -11.4589 C.ar    1  UNL1        0.0147
     23 C         -21.9847   54.0045  -12.1853 C.ar    1  UNL1        0.0012
     24 C         -20.6700   53.5366  -12.1332 C.ar    1  UNL1        0.0039
     25 C         -20.3472   52.4098  -11.3583 C.ar    1  UNL1        0.0726
     26 C         -21.3588   51.7849  -10.6071 C.ar    1  UNL1        0.0185
     27 C         -18.9182   51.9391  -11.2525 C.3     1  UNL1        0.4186
     28 F         -18.4939   51.3948  -12.4525 F       1  UNL1       -0.1659
     29 F         -18.8282   50.9768  -10.2644 F       1  UNL1       -0.1659
     30 F         -18.0775   52.9919  -10.9346 F       1  UNL1       -0.1659
     31 N         -28.7234   49.8391   -4.2945 N.pl3   1  UNL1       -0.2814
     32 H         -29.1717   50.5958   -3.7308 H       1  UNL1        0.1551
     33 C         -28.5420   48.5542   -3.6775 C.ar    1  UNL1        0.0889
     34 C         -29.5866   47.6169   -3.7434 C.ar    1  UNL1        0.1543
     35 F         -30.7379   47.9219   -4.3934 F       1  UNL1       -0.2028
     36 C         -29.4405   46.3530   -3.1654 C.ar    1  UNL1        0.0310
     37 C         -28.2590   46.0183   -2.5026 C.ar    1  UNL1        0.0033
     38 C         -27.2245   46.9506   -2.4040 C.ar    1  UNL1        0.0128
     39 C         -27.3583   48.2207   -2.9781 C.ar    1  UNL1        0.0733
     40 CL        -26.0545   49.3782   -2.7354 Cl      1  UNL1       -0.0809
@<TRIPOS>BOND
     1     1     2    1
     2     2     3   ar
     3     3    31    1
     4    31    33    1
     5    33    34   ar
     6    34    35    1
     7    34    36   ar
     8    36    37   ar
     9    37    38   ar
    10    38    39   ar
    11    39    40    1
    12     3     4   ar
    13     4     5   ar
    14     5     6   ar
    15     6     7   ar
    16     7    17    1
    17    17    18    2
    18    17    19   am
    19    19    21    1
    20    21    22   ar
    21    22    23   ar
    22    23    24   ar
    23    24    25   ar
    24    25    27    1
    25    27    28    1
    26    27    29    1
    27    27    30    1
    28    25    26   ar
    29     7     8   ar
    30     8     9   ar
    31     9    10   ar
    32     9    11    1
    33    11    12    1
    34    11    13    1
    35    13    14    1
    36    13    15    1
    37    13    16    1
    38    10     2   ar
    39    39    33   ar
    40    10     5   ar
    41    26    21   ar
    42    16     8    1
    43    31    32    1
    44    19    20    1
@<TRIPOS>MOLECULE
*****
 40 44 0 0 0
SMALL
GASTEIGER

@<TRIPOS>ATOM
      1 C         -30.8531   49.1961   -8.9388 C.3     1  UNL1        0.1332
      2 N         -29.7457   49.8029   -9.6781 N.ar    1  UNL1       -0.2977
      3 C         -29.7039   50.1034  -11.0079 C.ar    1  UNL1        0.2018
      4 N         -28.4847   50.5116  -11.4398 N.ar    1  UNL1       -0.2135
      5 C         -27.7456   50.4951  -10.3180 C.ar    1  UNL1        0.1000
      6 C         -26.3955   50.8432  -10.1981 C.ar    1  UNL1        0.0282
      7 C         -25.7887   50.7664   -8.9204 C.ar    1  UNL1        0.0888
      8 C         -26.5956   50.3755   -7.8246 C.ar    1  UNL1        0.1409
      9 C         -27.9270   50.0422   -7.9648 C.ar    1  UNL1        0.0429
     10 C         -28.4989   50.0875   -9.2464 C.ar    1  UNL1        0.0797
     11 C         -28.5241   49.7926   -6.6152 C.3     1  UNL1        0.1200
     12 BR        -29.8748   51.1605   -6.2533 Br      1  UNL1       -0.0730
     13 C         -27.2591   49.8362   -5.6739 C.3     1  UNL1        0.1468
     14 C         -27.3887   50.7721   -4.4614 C.3     1  UNL1        0.0448
     15 C         -26.9038   48.4203   -5.1902 C.3     1  UNL1        0.0448
     16 O         -26.1992   50.3036   -6.5059 O.3     1  UNL1       -0.4815
     17 C         -24.3617   51.1197   -8.7465 C.2     1  UNL1        0.2525
     18 O         -23.7304   50.6761   -7.7486 O.2     1  UNL1       -0.2697
     19 N         -23.7077   52.0076   -9.6674 N.am    1  UNL1       -0.2803
     20 H         -24.2923   52.7290  -10.1473 H       1  UNL1        0.1552
     21 C         -22.2833   52.0534   -9.8606 C.ar    1  UNL1        0.0505
     22 C         -21.6911   51.5939  -11.0500 C.ar    1  UNL1        0.0147
     23 C         -20.3096   51.6861  -11.2299 C.ar    1  UNL1        0.0012
     24 C         -19.5053   52.2385  -10.2309 C.ar    1  UNL1        0.0039
     25 C         -20.0764   52.6970   -9.0317 C.ar    1  UNL1        0.0726
     26 C         -21.4717   52.6267   -8.8690 C.ar    1  UNL1        0.0185
     27 C         -19.2179   53.3488   -7.9768 C.3     1  UNL1        0.4186
     28 F         -17.9557   52.7810   -7.9559 F       1  UNL1       -0.1659
     29 F         -19.8095   53.1777   -6.7393 F       1  UNL1       -0.1659
     30 F         -19.0782   54.7032   -8.2264 F       1  UNL1       -0.1659
     31 N         -30.8261   50.0181  -11.8985 N.pl3   1  UNL1       -0.2814
     32 H         -31.7200   50.4654  -11.5949 H       1  UNL1        0.1551
     33 C         -30.8107   49.3251  -13.1571 C.ar    1  UNL1        0.0889
     34 C         -31.2081   50.0141  -14.3154 C.ar    1  UNL1        0.1543
     35 F         -31.5840   51.3157  -14.2406 F       1  UNL1       -0.2028
     36 C         -31.1938   49.3756  -15.5582 C.ar    1  UNL1        0.0310
     37 C         -30.7994   48.0405  -15.6553 C.ar    1  UNL1        0.0033
     38 C         -30.4305   47.3354  -14.5082 C.ar    1  UNL1        0.0128
     39 C         -30.4411   47.9632  -13.2566 C.ar    1  UNL1        0.0733
     40 CL        -30.0554   46.9900  -11.8414 Cl      1  UNL1       -0.0809
@<TRIPOS>BOND
     1     1     2    1
     2     2     3   ar
     3     3    31    1
     4    31    33    1
     5    33    34   ar
     6    34    35    1
     7    34    36   ar
     8    36    37   ar
     9    37    38   ar
    10    38    39   ar
    11    39    40    1
    12     3     4   ar
    13     4     5   ar
    14     5     6   ar
    15     6     7   ar
    16     7    17    1
    17    17    18    2
    18    17    19   am
    19    19    21    1
    20    21    22   ar
    21    22    23   ar
    22    23    24   ar
    23    24    25   ar
    24    25    27    1
    25    27    28    1
    26    27    29    1
    27    27    30    1
    28    25    26   ar
    29     7     8   ar
    30     8     9   ar
    31     9    10   ar
    32     9    11    1
    33    11    12    1
    34    11    13    1
    35    13    14    1
    36    13    15    1
    37    13    16    1
    38    10     2   ar
    39    39    33   ar
    40    10     5   ar
    41    26    21   ar
    42    16     8    1
    43    31    32    1
    44    19    20    1
@<TRIPOS>MOLECULE
*****
 40 44 0 0 0
SMALL
GASTEIGER

@<TRIPOS>ATOM
      1 C         -25.8143   51.1185  -12.2377 C.3     1  UNL1        0.1332
      2 N         -25.3278   51.2101  -10.8607 N.ar    1  UNL1       -0.2977
      3 C         -24.1011   51.6348  -10.4425 C.ar    1  UNL1        0.2018
      4 N         -23.8825   51.4579   -9.1155 N.ar    1  UNL1       -0.2135
      5 C         -25.0409   50.9298   -8.6864 C.ar    1  UNL1        0.1000
      6 C         -25.3592   50.5607   -7.3745 C.ar    1  UNL1        0.0282
      7 C         -26.6440   50.0227   -7.1166 C.ar    1  UNL1        0.0888
      8 C         -27.5513   49.9226   -8.1989 C.ar    1  UNL1        0.1409
      9 C         -27.2182   50.2983   -9.4840 C.ar    1  UNL1        0.0429
     10 C         -25.9264   50.7927   -9.7252 C.ar    1  UNL1        0.0797
     11 C         -28.4222   50.1833  -10.3658 C.3     1  UNL1        0.1200
     12 BR        -28.9333   51.9683  -10.9817 Br      1  UNL1       -0.0730
     13 C         -29.4676   49.4778   -9.4183 C.3     1  UNL1        0.1468
     14 C         -30.8317   50.1803   -9.3259 C.3     1  UNL1        0.0448
     15 C         -29.6743   48.0152   -9.8459 C.3     1  UNL1        0.0448
     16 O         -28.8570   49.4849   -8.1294 O.3     1  UNL1       -0.4815
     17 C         -27.0231   49.6134   -5.7455 C.2     1  UNL1        0.2525
     18 O         -26.4711   50.1702   -4.7573 O.2     1  UNL1       -0.2697
     19 N         -27.9662   48.5510   -5.5307 N.am    1  UNL1       -0.2803
     20 H         -28.0278   47.8003   -6.2553 H       1  UNL1        0.1552
     21 C         -28.7245   48.3864   -4.3199 C.ar    1  UNL1        0.0505
     22 C         -29.6843   49.3339   -3.9231 C.ar    1  UNL1        0.0147
     23 C         -30.4363   49.1314   -2.7642 C.ar    1  UNL1        0.0012
     24 C         -30.2432   47.9842   -1.9917 C.ar    1  UNL1        0.0039
     25 C         -29.2840   47.0284   -2.3668 C.ar    1  UNL1        0.0726
     26 C         -28.5501   47.2253   -3.5503 C.ar    1  UNL1        0.0185
     27 C         -29.1160   45.7603   -1.5678 C.3     1  UNL1        0.4186
     28 F         -27.7973   45.3399   -1.5919 F       1  UNL1       -0.1659
     29 F         -29.9142   44.7712   -2.1110 F       1  UNL1       -0.1659
     30 F         -29.4814   45.9605   -0.2477 F       1  UNL1       -0.1659
     31 N         -23.1098   52.2282  -11.2939 N.pl3   1  UNL1       -0.2814
     32 H         -23.3064   52.2552  -12.3196 H       1  UNL1        0.1551
     33 C         -21.8521   52.7482  -10.8331 C.ar    1  UNL1        0.0889
     34 C         -20.7530   51.8782  -10.7373 C.ar    1  UNL1        0.1543
     35 F         -20.8812   50.5744  -11.0902 F       1  UNL1       -0.2028
     36 C         -19.5115   52.3519  -10.3048 C.ar    1  UNL1        0.0310
     37 C         -19.3587   53.6924   -9.9484 C.ar    1  UNL1        0.0033
     38 C         -20.4500   54.5610  -10.0106 C.ar    1  UNL1        0.0128
     39 C         -21.6996   54.0990  -10.4415 C.ar    1  UNL1        0.0733
     40 CL        -23.0531   55.2240  -10.4060 Cl      1  UNL1       -0.0809
@<TRIPOS>BOND
     1     1     2    1
     2     2     3   ar
     3     3    31    1
     4    31    33    1
     5    33    34   ar
     6    34    35    1
     7    34    36   ar
     8    36    37   ar
     9    37    38   ar
    10    38    39   ar
    11    39    40    1
    12     3     4   ar
    13     4     5   ar
    14     5     6   ar
    15     6     7   ar
    16     7    17    1
    17    17    18    2
    18    17    19   am
    19    19    21    1
    20    21    22   ar
    21    22    23   ar
    22    23    24   ar
    23    24    25   ar
    24    25    27    1
    25    27    28    1
    26    27    29    1
    27    27    30    1
    28    25    26   ar
    29     7     8   ar
    30     8     9   ar
    31     9    10   ar
    32     9    11    1
    33    11    12    1
    34    11    13    1
    35    13    14    1
    36    13    15    1
    37    13    16    1
    38    10     2   ar
    39    39    33   ar
    40    10     5   ar
    41    26    21   ar
    42    16     8    1
    43    31    32    1
    44    19    20    1
@<TRIPOS>MOLECULE
*****
 40 44 0 0 0
SMALL
GASTEIGER

@<TRIPOS>ATOM
      1 C         -25.8791   51.2404  -12.1626 C.3     1  UNL1        0.1332
      2 N         -25.3017   51.1792  -10.8195 N.ar    1  UNL1       -0.2977
      3 C         -24.0727   51.6205  -10.4256 C.ar    1  UNL1        0.2018
      4 N         -23.7514   51.2835   -9.1516 N.ar    1  UNL1       -0.2135
      5 C         -24.8467   50.6322   -8.7261 C.ar    1  UNL1        0.1000
      6 C         -25.0510   50.0737   -7.4592 C.ar    1  UNL1        0.0282
      7 C         -26.2838   49.4274   -7.1964 C.ar    1  UNL1        0.0888
      8 C         -27.2589   49.4149   -8.2227 C.ar    1  UNL1        0.1409
      9 C         -27.0384   49.9773   -9.4631 C.ar    1  UNL1        0.0429
     10 C         -25.7951   50.5788   -9.7159 C.ar    1  UNL1        0.0797
     11 C         -28.2940   49.9052  -10.2746 C.3     1  UNL1        0.1200
     12 BR        -28.9419   51.7205  -10.6082 Br      1  UNL1       -0.0730
     13 C         -29.2305   49.0168   -9.3679 C.3     1  UNL1        0.1468
     14 C         -30.6201   49.6145   -9.0946 C.3     1  UNL1        0.0448
     15 C         -29.3889   47.6136   -9.9767 C.3     1  UNL1        0.0448
     16 O         -28.5313   48.8914   -8.1311 O.3     1  UNL1       -0.4815
     17 C         -26.5423   48.8175   -5.8725 C.2     1  UNL1        0.2525
     18 O         -27.2219   49.4518   -5.0199 O.2     1  UNL1       -0.2697
     19 N         -25.9790   47.5412   -5.5295 N.am    1  UNL1       -0.2803
     20 H         -25.0739   47.2717   -5.9775 H       1  UNL1        0.1552
     21 C         -26.5108   46.6798   -4.5080 C.ar    1  UNL1        0.0505
     22 C         -25.7115   46.2260   -3.4443 C.ar    1  UNL1        0.0147
     23 C         -26.2615   45.4233   -2.4429 C.ar    1  UNL1        0.0012
     24 C         -27.6110   45.0674   -2.4885 C.ar    1  UNL1        0.0039
     25 C         -28.4256   45.5044   -3.5468 C.ar    1  UNL1        0.0726
     26 C         -27.8716   46.3358   -4.5367 C.ar    1  UNL1        0.0185
     27 C         -29.8965   45.1718   -3.5664 C.3     1  UNL1        0.4186
     28 F         -30.1474   44.1206   -4.4314 F       1  UNL1       -0.1659
     29 F         -30.6079   46.2801   -3.9861 F       1  UNL1       -0.1659
     30 F         -30.3335   44.8066   -2.3047 F       1  UNL1       -0.1659
     31 N         -23.1774   52.3818  -11.2493 N.pl3   1  UNL1       -0.2814
     32 H         -23.4792   52.5910  -12.2273 H       1  UNL1        0.1551
     33 C         -21.8808   52.8377  -10.8302 C.ar    1  UNL1        0.0889
     34 C         -20.8235   51.9141  -10.7720 C.ar    1  UNL1        0.1543
     35 F         -21.0279   50.6192  -11.1216 F       1  UNL1       -0.2028
     36 C         -19.5464   52.3247  -10.3808 C.ar    1  UNL1        0.0310
     37 C         -19.3155   53.6550  -10.0285 C.ar    1  UNL1        0.0033
     38 C         -20.3639   54.5768  -10.0534 C.ar    1  UNL1        0.0128
     39 C         -21.6485   54.1783  -10.4427 C.ar    1  UNL1        0.0733
     40 CL        -22.9426   55.3689  -10.3610 Cl      1  UNL1       -0.0809
@<TRIPOS>BOND
     1     1     2    1
     2     2     3   ar
     3     3    31    1
     4    31    33    1
     5    33    34   ar
     6    34    35    1
     7    34    36   ar
     8    36    37   ar
     9    37    38   ar
    10    38    39   ar
    11    39    40    1
    12     3     4   ar
    13     4     5   ar
    14     5     6   ar
    15     6     7   ar
    16     7    17    1
    17    17    18    2
    18    17    19   am
    19    19    21    1
    20    21    22   ar
    21    22    23   ar
    22    23    24   ar
    23    24    25   ar
    24    25    27    1
    25    27    28    1
    26    27    29    1
    27    27    30    1
    28    25    26   ar
    29     7     8   ar
    30     8     9   ar
    31     9    10   ar
    32     9    11    1
    33    11    12    1
    34    11    13    1
    35    13    14    1
    36    13    15    1
    37    13    16    1
    38    10     2   ar
    39    39    33   ar
    40    10     5   ar
    41    26    21   ar
    42    16     8    1
    43    31    32    1
    44    19    20    1
