@<TRIPOS>MOLECULE
*****
 40 44 0 0 0
SMALL
GASTEIGER

@<TRIPOS>ATOM
      1 C         -30.5251   49.5158   -7.3105 C.3     1  UNL1        0.1332
      2 N         -29.0664   49.5631   -7.2069 N.ar    1  UNL1       -0.2977
      3 C         -28.2722   49.1078   -6.1950 C.ar    1  UNL1        0.2018
      4 N         -26.9495   49.3479   -6.3862 N.ar    1  UNL1       -0.2135
      5 C         -26.9219   49.9486   -7.5881 C.ar    1  UNL1        0.0999
      6 C         -25.7902   50.3778   -8.2936 C.ar    1  UNL1        0.0282
      7 C         -25.9711   50.9351   -9.5846 C.ar    1  UNL1        0.0888
      8 C         -27.2931   51.0539  -10.0787 C.ar    1  UNL1        0.1401
      9 C         -28.3881   50.6368   -9.3568 C.ar    1  UNL1        0.0327
     10 C         -28.1891   50.0721   -8.0932 C.ar    1  UNL1        0.0789
     11 C         -29.6356   50.9007  -10.1259 C.3     1  UNL1        0.0709
     12 C         -29.0928   51.5040  -11.4628 C.3     1  UNL1        0.1375
     13 C         -29.6561   52.9083  -11.7177 C.3     1  UNL1        0.0439
     14 C         -29.3960   50.5819  -12.6518 C.3     1  UNL1        0.0439
     15 O         -27.6773   51.5900  -11.2901 O.3     1  UNL1       -0.4824
     16 C         -24.8005   51.3866  -10.3660 C.2     1  UNL1        0.2525
     17 O         -24.7357   51.0908  -11.5900 O.2     1  UNL1       -0.2697
     18 N         -23.7490   52.1506   -9.7472 N.am    1  UNL1       -0.2803
     19 H         -23.8097   52.3563   -8.7256 H       1  UNL1        0.1552
     20 C         -22.5639   52.5896  -10.4315 C.ar    1  UNL1        0.0505
     21 C         -22.6321   53.4645  -11.5289 C.ar    1  UNL1        0.0147
     22 C         -21.4633   53.8832  -12.1681 C.ar    1  UNL1        0.0012
     23 C         -20.2170   53.4541  -11.7065 C.ar    1  UNL1        0.0039
     24 C         -20.1255   52.6216  -10.5781 C.ar    1  UNL1        0.0726
     25 C         -21.3080   52.1829   -9.9558 C.ar    1  UNL1        0.0185
     26 C         -18.7836   52.1267  -10.0996 C.3     1  UNL1        0.4186
     27 F         -18.4068   52.8446   -8.9801 F       1  UNL1       -0.1659
     28 F         -17.8242   52.2895  -11.0841 F       1  UNL1       -0.1659
     29 F         -18.8445   50.7826   -9.7739 F       1  UNL1       -0.1659
     30 N         -28.7474   48.4096   -5.0349 N.pl3   1  UNL1       -0.2814
     31 H         -29.6726   48.6968   -4.6439 H       1  UNL1        0.1551
     32 C         -28.0129   47.3846   -4.3460 C.ar    1  UNL1        0.0889
     33 C         -27.0348   47.7641   -3.4118 C.ar    1  UNL1        0.1548
     34 F         -26.8036   49.0774   -3.1607 F       1  UNL1       -0.2028
     35 C         -26.3109   46.7956   -2.7116 C.ar    1  UNL1        0.0377
     36 C         -26.5434   45.4392   -2.9480 C.ar    1  UNL1        0.0377
     37 BR        -25.5512   44.1185   -1.9893 Br      1  UNL1       -0.0489
     38 C         -27.4919   45.0489   -3.8965 C.ar    1  UNL1        0.0195
     39 C         -28.2233   46.0101   -4.6050 C.ar    1  UNL1        0.0738
     40 CL        -29.3305   45.4489   -5.8530 Cl      1  UNL1       -0.0809
@<TRIPOS>BOND
     1     1     2    1
     2     2     3   ar
     3     3    30    1
     4    30    32    1
     5    32    33   ar
     6    33    34    1
     7    33    35   ar
     8    35    36   ar
     9    36    37    1
    10    36    38   ar
    11    38    39   ar
    12    39    40    1
    13     3     4   ar
    14     4     5   ar
    15     5     6   ar
    16     6     7   ar
    17     7    16    1
    18    16    17    2
    19    16    18   am
    20    18    20    1
    21    20    21   ar
    22    21    22   ar
    23    22    23   ar
    24    23    24   ar
    25    24    26    1
    26    26    27    1
    27    26    28    1
    28    26    29    1
    29    24    25   ar
    30     7     8   ar
    31     8     9   ar
    32     9    10   ar
    33     9    11    1
    34    11    12    1
    35    12    13    1
    36    12    14    1
    37    12    15    1
    38    10     2   ar
    39    39    32   ar
    40    10     5   ar
    41    25    20   ar
    42    15     8    1
    43    30    31    1
    44    18    19    1
@<TRIPOS>MOLECULE
*****
 40 44 0 0 0
SMALL
GASTEIGER

@<TRIPOS>ATOM
      1 C         -29.8270   47.5680   -8.6376 C.3     1  UNL1        0.1332
      2 N         -28.4680   47.8903   -8.2021 N.ar    1  UNL1       -0.2977
      3 C         -27.7015   47.2528   -7.2704 C.ar    1  UNL1        0.2018
      4 N         -26.4926   47.8354   -7.0637 N.ar    1  UNL1       -0.2135
      5 C         -26.4983   48.8603   -7.9330 C.ar    1  UNL1        0.0999
      6 C         -25.4646   49.7764   -8.1676 C.ar    1  UNL1        0.0282
      7 C         -25.6451   50.7527   -9.1797 C.ar    1  UNL1        0.0888
      8 C         -26.8764   50.7657   -9.8794 C.ar    1  UNL1        0.1401
      9 C         -27.8807   49.8620   -9.6174 C.ar    1  UNL1        0.0327
     10 C         -27.6776   48.8941   -8.6289 C.ar    1  UNL1        0.0789
     11 C         -29.0507   50.1314  -10.4982 C.3     1  UNL1        0.0709
     12 C         -28.5520   51.3270  -11.3744 C.3     1  UNL1        0.1375
     13 C         -29.4643   52.5521  -11.2289 C.3     1  UNL1        0.0439
     14 C         -28.4313   50.9219  -12.8499 C.3     1  UNL1        0.0439
     15 O         -27.2534   51.6463  -10.8720 O.3     1  UNL1       -0.4824
     16 C         -24.5720   51.7278   -9.4665 C.2     1  UNL1        0.2525
     17 O         -24.8796   52.9396   -9.6303 O.2     1  UNL1       -0.2697
     18 N         -23.1980   51.3088   -9.5589 N.am    1  UNL1       -0.2803
     19 H         -22.9717   50.2955   -9.4507 H       1  UNL1        0.1552
     20 C         -22.1074   52.1905   -9.8732 C.ar    1  UNL1        0.0505
     21 C         -21.9115   52.6794  -11.1759 C.ar    1  UNL1        0.0147
     22 C         -20.8495   53.5437  -11.4503 C.ar    1  UNL1        0.0012
     23 C         -19.9886   53.9469  -10.4271 C.ar    1  UNL1        0.0039
     24 C         -20.1997   53.5108   -9.1081 C.ar    1  UNL1        0.0726
     25 C         -21.2554   52.6199   -8.8443 C.ar    1  UNL1        0.0185
     26 C         -19.2504   53.9146   -8.0079 C.3     1  UNL1        0.4186
     27 F         -19.8316   53.6438   -6.7834 F       1  UNL1       -0.1659
     28 F         -18.9643   55.2670   -8.0823 F       1  UNL1       -0.1659
     29 F         -18.0598   53.2152   -8.1065 F       1  UNL1       -0.1659
     30 N         -28.0877   46.0593   -6.5736 N.pl3   1  UNL1       -0.2814
     31 H         -28.1313   45.1720   -7.1232 H       1  UNL1        0.1551
     32 C         -28.4705   46.0146   -5.1892 C.ar    1  UNL1        0.0889
     33 C         -29.8215   46.2037   -4.8538 C.ar    1  UNL1        0.1548
     34 F         -30.7441   46.4108   -5.8271 F       1  UNL1       -0.2028
     35 C         -30.2336   46.1521   -3.5198 C.ar    1  UNL1        0.0377
     36 C         -29.3004   45.9281   -2.5056 C.ar    1  UNL1        0.0377
     37 BR        -29.8679   45.8591   -0.6832 Br      1  UNL1       -0.0489
     38 C         -27.9494   45.7689   -2.8235 C.ar    1  UNL1        0.0195
     39 C         -27.5239   45.8191   -4.1566 C.ar    1  UNL1        0.0738
     40 CL        -25.7964   45.7081   -4.4756 Cl      1  UNL1       -0.0809
@<TRIPOS>BOND
     1     1     2    1
     2     2     3   ar
     3     3    30    1
     4    30    32    1
     5    32    33   ar
     6    33    34    1
     7    33    35   ar
     8    35    36   ar
     9    36    37    1
    10    36    38   ar
    11    38    39   ar
    12    39    40    1
    13     3     4   ar
    14     4     5   ar
    15     5     6   ar
    16     6     7   ar
    17     7    16    1
    18    16    17    2
    19    16    18   am
    20    18    20    1
    21    20    21   ar
    22    21    22   ar
    23    22    23   ar
    24    23    24   ar
    25    24    26    1
    26    26    27    1
    27    26    28    1
    28    26    29    1
    29    24    25   ar
    30     7     8   ar
    31     8     9   ar
    32     9    10   ar
    33     9    11    1
    34    11    12    1
    35    12    13    1
    36    12    14    1
    37    12    15    1
    38    10     2   ar
    39    39    32   ar
    40    10     5   ar
    41    25    20   ar
    42    15     8    1
    43    30    31    1
    44    18    19    1
@<TRIPOS>MOLECULE
*****
 40 44 0 0 0
SMALL
GASTEIGER

@<TRIPOS>ATOM
      1 C         -31.1106   50.6946   -6.9812 C.3     1  UNL1        0.1332
      2 N         -29.6664   50.7643   -6.7573 N.ar    1  UNL1       -0.2977
      3 C         -28.9797   50.6037   -5.5891 C.ar    1  UNL1        0.2018
      4 N         -27.6388   50.7778   -5.7132 N.ar    1  UNL1       -0.2135
      5 C         -27.4861   51.0233   -7.0257 C.ar    1  UNL1        0.0999
      6 C         -26.2836   51.2377   -7.7119 C.ar    1  UNL1        0.0282
      7 C         -26.3316   51.4175   -9.1174 C.ar    1  UNL1        0.0888
      8 C         -27.5999   51.3992   -9.7475 C.ar    1  UNL1        0.1401
      9 C         -28.7669   51.2009   -9.0455 C.ar    1  UNL1        0.0327
     10 C         -28.6987   51.0063   -7.6625 C.ar    1  UNL1        0.0789
     11 C         -29.9321   51.2459   -9.9716 C.3     1  UNL1        0.0709
     12 C         -29.2542   51.4550  -11.3654 C.3     1  UNL1        0.1375
     13 C         -29.7516   52.7361  -12.0480 C.3     1  UNL1        0.0439
     14 C         -29.4758   50.2415  -12.2786 C.3     1  UNL1        0.0439
     15 O         -27.8581   51.5812  -11.0902 O.3     1  UNL1       -0.4824
     16 C         -25.0830   51.6323   -9.8786 C.2     1  UNL1        0.2525
     17 O         -24.9906   51.1553  -11.0422 O.2     1  UNL1       -0.2697
     18 N         -23.9876   52.3718   -9.3082 N.am    1  UNL1       -0.2803
     19 H         -24.0756   52.7300   -8.3317 H       1  UNL1        0.1552
     20 C         -22.7306   52.5870   -9.9708 C.ar    1  UNL1        0.0505
     21 C         -22.6634   53.1903  -11.2381 C.ar    1  UNL1        0.0147
     22 C         -21.4272   53.3970  -11.8538 C.ar    1  UNL1        0.0012
     23 C         -20.2474   53.0270  -11.2043 C.ar    1  UNL1        0.0039
     24 C         -20.2910   52.4709   -9.9145 C.ar    1  UNL1        0.0726
     25 C         -21.5409   52.2417   -9.3118 C.ar    1  UNL1        0.0185
     26 C         -19.0216   52.0364   -9.2257 C.3     1  UNL1        0.4186
     27 F         -18.1597   53.1135   -9.1387 F       1  UNL1       -0.1659
     28 F         -18.4044   51.0209   -9.9356 F       1  UNL1       -0.1659
     29 F         -19.2908   51.5701   -7.9504 F       1  UNL1       -0.1659
     30 N         -29.5773   50.2543   -4.3322 N.pl3   1  UNL1       -0.2814
     31 H         -29.7669   51.0278   -3.6561 H       1  UNL1        0.1551
     32 C         -29.8791   48.9107   -3.9217 C.ar    1  UNL1        0.0889
     33 C         -29.3874   47.8416   -4.6891 C.ar    1  UNL1        0.1548
     34 F         -28.6304   48.0822   -5.7892 F       1  UNL1       -0.2028
     35 C         -29.6478   46.5215   -4.3127 C.ar    1  UNL1        0.0377
     36 C         -30.4149   46.2542   -3.1770 C.ar    1  UNL1        0.0377
     37 BR        -30.7691   44.4482   -2.6665 Br      1  UNL1       -0.0489
     38 C         -30.9352   47.3087   -2.4226 C.ar    1  UNL1        0.0195
     39 C         -30.6817   48.6360   -2.7899 C.ar    1  UNL1        0.0738
     40 CL        -31.4488   49.9122   -1.8512 Cl      1  UNL1       -0.0809
@<TRIPOS>BOND
     1     1     2    1
     2     2     3   ar
     3     3    30    1
     4    30    32    1
     5    32    33   ar
     6    33    34    1
     7    33    35   ar
     8    35    36   ar
     9    36    37    1
    10    36    38   ar
    11    38    39   ar
    12    39    40    1
    13     3     4   ar
    14     4     5   ar
    15     5     6   ar
    16     6     7   ar
    17     7    16    1
    18    16    17    2
    19    16    18   am
    20    18    20    1
    21    20    21   ar
    22    21    22   ar
    23    22    23   ar
    24    23    24   ar
    25    24    26    1
    26    26    27    1
    27    26    28    1
    28    26    29    1
    29    24    25   ar
    30     7     8   ar
    31     8     9   ar
    32     9    10   ar
    33     9    11    1
    34    11    12    1
    35    12    13    1
    36    12    14    1
    37    12    15    1
    38    10     2   ar
    39    39    32   ar
    40    10     5   ar
    41    25    20   ar
    42    15     8    1
    43    30    31    1
    44    18    19    1
@<TRIPOS>MOLECULE
*****
 40 44 0 0 0
SMALL
GASTEIGER

@<TRIPOS>ATOM
      1 C         -24.0395   52.7530  -11.4442 C.3     1  UNL1        0.1332
      2 N         -23.7687   52.1065  -10.1599 N.ar    1  UNL1       -0.2977
      3 C         -22.6230   52.1368   -9.4193 C.ar    1  UNL1        0.2018
      4 N         -22.6817   51.3877   -8.2883 N.ar    1  UNL1       -0.2135
      5 C         -23.9336   50.8996   -8.3136 C.ar    1  UNL1        0.0999
      6 C         -24.5442   50.0865   -7.3499 C.ar    1  UNL1        0.0282
      7 C         -25.9038   49.7284   -7.5325 C.ar    1  UNL1        0.0888
      8 C         -26.5626   50.1905   -8.6981 C.ar    1  UNL1        0.1401
      9 C         -25.9328   50.9765   -9.6360 C.ar    1  UNL1        0.0327
     10 C         -24.5973   51.3355   -9.4297 C.ar    1  UNL1        0.0789
     11 C         -26.8709   51.2919  -10.7486 C.3     1  UNL1        0.0709
     12 C         -28.1947   50.5982  -10.2878 C.3     1  UNL1        0.1375
     13 C         -28.6773   49.5652  -11.3147 C.3     1  UNL1        0.0439
     14 C         -29.2955   51.6312  -10.0101 C.3     1  UNL1        0.0439
     15 O         -27.8655   49.9302   -9.0688 O.3     1  UNL1       -0.4824
     16 C         -26.5872   48.8835   -6.5307 C.2     1  UNL1        0.2525
     17 O         -27.2506   47.8870   -6.9266 O.2     1  UNL1       -0.2697
     18 N         -26.5016   49.1869   -5.1261 N.am    1  UNL1       -0.2803
     19 H         -25.9727   50.0349   -4.8250 H       1  UNL1        0.1552
     20 C         -27.1700   48.4364   -4.0988 C.ar    1  UNL1        0.0505
     21 C         -28.3826   48.8755   -3.5408 C.ar    1  UNL1        0.0147
     22 C         -29.0157   48.1203   -2.5514 C.ar    1  UNL1        0.0012
     23 C         -28.4603   46.9114   -2.1263 C.ar    1  UNL1        0.0039
     24 C         -27.2763   46.4295   -2.7097 C.ar    1  UNL1        0.0726
     25 C         -26.6306   47.2083   -3.6868 C.ar    1  UNL1        0.0185
     26 C         -26.6543   45.1431   -2.2271 C.3     1  UNL1        0.4186
     27 F         -26.9860   44.1226   -3.0984 F       1  UNL1       -0.1659
     28 F         -27.1149   44.8233   -0.9615 F       1  UNL1       -0.1659
     29 F         -25.2759   45.2565   -2.1693 F       1  UNL1       -0.1659
     30 N         -21.4545   52.8995   -9.7536 N.pl3   1  UNL1       -0.2814
     31 H         -21.5767   53.7126  -10.3981 H       1  UNL1        0.1551
     32 C         -20.1249   52.5867   -9.3073 C.ar    1  UNL1        0.0889
     33 C         -19.7522   52.9299   -7.9970 C.ar    1  UNL1        0.1548
     34 F         -20.6424   53.5337   -7.1698 F       1  UNL1       -0.2028
     35 C         -18.4730   52.6282   -7.5229 C.ar    1  UNL1        0.0377
     36 C         -17.5472   51.9964   -8.3557 C.ar    1  UNL1        0.0377
     37 BR        -15.7994   51.5865   -7.7039 Br      1  UNL1       -0.0489
     38 C         -17.8956   51.6773   -9.6705 C.ar    1  UNL1        0.0195
     39 C         -19.1742   51.9751  -10.1574 C.ar    1  UNL1        0.0738
     40 CL        -19.5117   51.6339  -11.8509 Cl      1  UNL1       -0.0809
@<TRIPOS>BOND
     1     1     2    1
     2     2     3   ar
     3     3    30    1
     4    30    32    1
     5    32    33   ar
     6    33    34    1
     7    33    35   ar
     8    35    36   ar
     9    36    37    1
    10    36    38   ar
    11    38    39   ar
    12    39    40    1
    13     3     4   ar
    14     4     5   ar
    15     5     6   ar
    16     6     7   ar
    17     7    16    1
    18    16    17    2
    19    16    18   am
    20    18    20    1
    21    20    21   ar
    22    21    22   ar
    23    22    23   ar
    24    23    24   ar
    25    24    26    1
    26    26    27    1
    27    26    28    1
    28    26    29    1
    29    24    25   ar
    30     7     8   ar
    31     8     9   ar
    32     9    10   ar
    33     9    11    1
    34    11    12    1
    35    12    13    1
    36    12    14    1
    37    12    15    1
    38    10     2   ar
    39    39    32   ar
    40    10     5   ar
    41    25    20   ar
    42    15     8    1
    43    30    31    1
    44    18    19    1
@<TRIPOS>MOLECULE
*****
 40 44 0 0 0
SMALL
GASTEIGER

@<TRIPOS>ATOM
      1 C         -25.9750   51.5604  -11.3027 C.3     1  UNL1        0.1332
      2 N         -25.4244   51.1109  -10.0239 N.ar    1  UNL1       -0.2977
      3 C         -24.3284   51.5797   -9.3598 C.ar    1  UNL1        0.2018
      4 N         -24.0563   50.9102   -8.2102 N.ar    1  UNL1       -0.2135
      5 C         -25.0504   50.0083   -8.1431 C.ar    1  UNL1        0.0999
      6 C         -25.2788   49.0753   -7.1232 C.ar    1  UNL1        0.0282
      7 C         -26.4280   48.2494   -7.2092 C.ar    1  UNL1        0.0888
      8 C         -27.2682   48.3943   -8.3402 C.ar    1  UNL1        0.1401
      9 C         -27.0109   49.3099   -9.3349 C.ar    1  UNL1        0.0327
     10 C         -25.8833   50.1292   -9.2238 C.ar    1  UNL1        0.0789
     11 C         -28.0563   49.2209  -10.3916 C.3     1  UNL1        0.0709
     12 C         -29.0186   48.1233   -9.8301 C.3     1  UNL1        0.1375
     13 C         -29.1527   46.9413  -10.7992 C.3     1  UNL1        0.0439
     14 C         -30.3999   48.7088   -9.5059 C.3     1  UNL1        0.0439
     15 O         -28.4092   47.6715   -8.6196 O.3     1  UNL1       -0.4824
     16 C         -26.7108   47.2626   -6.1458 C.2     1  UNL1        0.2525
     17 O         -27.3160   46.1988   -6.4490 O.2     1  UNL1       -0.2697
     18 N         -26.3058   47.5050   -4.7859 N.am    1  UNL1       -0.2803
     19 H         -25.8342   48.4068   -4.5536 H       1  UNL1        0.1552
     20 C         -26.5803   46.6124   -3.6935 C.ar    1  UNL1        0.0505
     21 C         -25.5963   45.7446   -3.1904 C.ar    1  UNL1        0.0147
     22 C         -25.8878   44.8956   -2.1207 C.ar    1  UNL1        0.0012
     23 C         -27.1522   44.9197   -1.5281 C.ar    1  UNL1        0.0039
     24 C         -28.1327   45.8179   -1.9826 C.ar    1  UNL1        0.0726
     25 C         -27.8403   46.6512   -3.0772 C.ar    1  UNL1        0.0185
     26 C         -29.5105   45.8207   -1.3693 C.3     1  UNL1        0.4186
     27 F         -29.3986   45.6816    0.0014 F       1  UNL1       -0.1659
     28 F         -30.2689   44.7757   -1.8684 F       1  UNL1       -0.1659
     29 F         -30.1697   47.0052   -1.6500 F       1  UNL1       -0.1659
     30 N         -23.5290   52.6922   -9.7867 N.pl3   1  UNL1       -0.2814
     31 H         -24.0007   53.6201   -9.8747 H       1  UNL1        0.1551
     32 C         -22.1424   52.6031  -10.1532 C.ar    1  UNL1        0.0889
     33 C         -21.2078   52.2165   -9.1782 C.ar    1  UNL1        0.1548
     34 F         -21.6176   51.9211   -7.9187 F       1  UNL1       -0.2028
     35 C         -19.8531   52.1043   -9.5012 C.ar    1  UNL1        0.0377
     36 C         -19.4144   52.3927  -10.7950 C.ar    1  UNL1        0.0377
     37 BR        -17.5615   52.2389  -11.2322 Br      1  UNL1       -0.0489
     38 C         -20.3295   52.8076  -11.7657 C.ar    1  UNL1        0.0195
     39 C         -21.6896   52.9244  -11.4541 C.ar    1  UNL1        0.0738
     40 CL        -22.7700   53.5455  -12.6971 Cl      1  UNL1       -0.0809
@<TRIPOS>BOND
     1     1     2    1
     2     2     3   ar
     3     3    30    1
     4    30    32    1
     5    32    33   ar
     6    33    34    1
     7    33    35   ar
     8    35    36   ar
     9    36    37    1
    10    36    38   ar
    11    38    39   ar
    12    39    40    1
    13     3     4   ar
    14     4     5   ar
    15     5     6   ar
    16     6     7   ar
    17     7    16    1
    18    16    17    2
    19    16    18   am
    20    18    20    1
    21    20    21   ar
    22    21    22   ar
    23    22    23   ar
    24    23    24   ar
    25    24    26    1
    26    26    27    1
    27    26    28    1
    28    26    29    1
    29    24    25   ar
    30     7     8   ar
    31     8     9   ar
    32     9    10   ar
    33     9    11    1
    34    11    12    1
    35    12    13    1
    36    12    14    1
    37    12    15    1
    38    10     2   ar
    39    39    32   ar
    40    10     5   ar
    41    25    20   ar
    42    15     8    1
    43    30    31    1
    44    18    19    1
@<TRIPOS>MOLECULE
*****
 40 44 0 0 0
SMALL
GASTEIGER

@<TRIPOS>ATOM
      1 C         -24.1270   52.6168  -11.3911 C.3     1  UNL1        0.1332
      2 N         -23.8648   51.9982  -10.0914 N.ar    1  UNL1       -0.2977
      3 C         -22.7270   52.0516   -9.3399 C.ar    1  UNL1        0.2018
      4 N         -22.7920   51.3248   -8.1948 N.ar    1  UNL1       -0.2135
      5 C         -24.0401   50.8272   -8.2230 C.ar    1  UNL1        0.0999
      6 C         -24.6548   50.0291   -7.2493 C.ar    1  UNL1        0.0282
      7 C         -26.0099   49.6576   -7.4385 C.ar    1  UNL1        0.0888
      8 C         -26.6599   50.0914   -8.6197 C.ar    1  UNL1        0.1401
      9 C         -26.0262   50.8631   -9.5668 C.ar    1  UNL1        0.0327
     10 C         -24.6954   51.2359   -9.3542 C.ar    1  UNL1        0.0789
     11 C         -26.9550   51.1494  -10.6949 C.3     1  UNL1        0.0709
     12 C         -28.2785   50.4555  -10.2337 C.3     1  UNL1        0.1375
     13 C         -28.7432   49.3987  -11.2445 C.3     1  UNL1        0.0439
     14 C         -29.3893   51.4858   -9.9879 C.3     1  UNL1        0.0439
     15 O         -27.9571   49.8144   -8.9983 O.3     1  UNL1       -0.4824
     16 C         -26.6975   48.8279   -6.4269 C.2     1  UNL1        0.2525
     17 O         -27.2748   47.7703   -6.7984 O.2     1  UNL1       -0.2697
     18 N         -26.7124   49.2144   -5.0403 N.am    1  UNL1       -0.2803
     19 H         -26.2546   50.1101   -4.7618 H       1  UNL1        0.1552
     20 C         -27.3924   48.4811   -4.0081 C.ar    1  UNL1        0.0505
     21 C         -26.8284   47.3295   -3.4333 C.ar    1  UNL1        0.0147
     22 C         -27.5068   46.6430   -2.4242 C.ar    1  UNL1        0.0012
     23 C         -28.7397   47.1093   -1.9625 C.ar    1  UNL1        0.0039
     24 C         -29.2950   48.2885   -2.4878 C.ar    1  UNL1        0.0726
     25 C         -28.6186   48.9599   -3.5221 C.ar    1  UNL1        0.0185
     26 C         -30.6431   48.7743   -2.0178 C.3     1  UNL1        0.4186
     27 F         -31.0516   49.8257   -2.8168 F       1  UNL1       -0.1659
     28 F         -30.5755   49.2058   -0.7042 F       1  UNL1       -0.1659
     29 F         -31.5827   47.7604   -2.0915 F       1  UNL1       -0.1659
     30 N         -21.5605   52.8159   -9.6777 N.pl3   1  UNL1       -0.2814
     31 H         -21.6872   53.6342  -10.3146 H       1  UNL1        0.1551
     32 C         -20.2277   52.4984   -9.2447 C.ar    1  UNL1        0.0889
     33 C         -19.8458   52.8255   -7.9329 C.ar    1  UNL1        0.1548
     34 F         -20.7306   53.4183   -7.0920 F       1  UNL1       -0.2028
     35 C         -18.5632   52.5187   -7.4716 C.ar    1  UNL1        0.0377
     36 C         -17.6430   51.8979   -8.3187 C.ar    1  UNL1        0.0377
     37 BR        -15.8904   51.4810   -7.6844 Br      1  UNL1       -0.0489
     38 C         -18.0005   51.5950   -9.6349 C.ar    1  UNL1        0.0195
     39 C         -19.2827   51.8980  -10.1091 C.ar    1  UNL1        0.0738
     40 CL        -19.6320   51.5778  -11.8043 Cl      1  UNL1       -0.0809
@<TRIPOS>BOND
     1     1     2    1
     2     2     3   ar
     3     3    30    1
     4    30    32    1
     5    32    33   ar
     6    33    34    1
     7    33    35   ar
     8    35    36   ar
     9    36    37    1
    10    36    38   ar
    11    38    39   ar
    12    39    40    1
    13     3     4   ar
    14     4     5   ar
    15     5     6   ar
    16     6     7   ar
    17     7    16    1
    18    16    17    2
    19    16    18   am
    20    18    20    1
    21    20    21   ar
    22    21    22   ar
    23    22    23   ar
    24    23    24   ar
    25    24    26    1
    26    26    27    1
    27    26    28    1
    28    26    29    1
    29    24    25   ar
    30     7     8   ar
    31     8     9   ar
    32     9    10   ar
    33     9    11    1
    34    11    12    1
    35    12    13    1
    36    12    14    1
    37    12    15    1
    38    10     2   ar
    39    39    32   ar
    40    10     5   ar
    41    25    20   ar
    42    15     8    1
    43    30    31    1
    44    18    19    1
@<TRIPOS>MOLECULE
*****
 40 44 0 0 0
SMALL
GASTEIGER

@<TRIPOS>ATOM
      1 C         -23.6760   52.1335  -11.6717 C.3     1  UNL1        0.1332
      2 N         -23.6253   51.7346  -10.2650 N.ar    1  UNL1       -0.2977
      3 C         -22.5568   51.7498   -9.4163 C.ar    1  UNL1        0.2018
      4 N         -22.8340   51.2679   -8.1775 N.ar    1  UNL1       -0.2135
      5 C         -24.1432   50.9736   -8.2536 C.ar    1  UNL1        0.0999
      6 C         -24.9593   50.4759   -7.2294 C.ar    1  UNL1        0.0282
      7 C         -26.3393   50.2905   -7.4962 C.ar    1  UNL1        0.0888
      8 C         -26.8118   50.5923   -8.7969 C.ar    1  UNL1        0.1401
      9 C         -25.9835   51.0663   -9.7885 C.ar    1  UNL1        0.0327
     10 C         -24.6290   51.2611   -9.5016 C.ar    1  UNL1        0.0789
     11 C         -26.7593   51.2782  -11.0418 C.3     1  UNL1        0.0709
     12 C         -28.2141   50.8962  -10.6131 C.3     1  UNL1        0.1375
     13 C         -28.7740   49.7548  -11.4723 C.3     1  UNL1        0.0439
     14 C         -29.1469   52.1138  -10.6672 C.3     1  UNL1        0.0439
     15 O         -28.1041   50.4543   -9.2591 O.3     1  UNL1       -0.4824
     16 C         -27.2354   49.7806   -6.4372 C.2     1  UNL1        0.2525
     17 O         -27.1663   48.5631   -6.1164 O.2     1  UNL1       -0.2697
     18 N         -28.1733   50.6524   -5.7795 N.am    1  UNL1       -0.2803
     19 H         -28.2340   51.6490   -6.0841 H       1  UNL1        0.1552
     20 C         -29.1019   50.2210   -4.7711 C.ar    1  UNL1        0.0505
     21 C         -30.4263   50.6899   -4.7447 C.ar    1  UNL1        0.0147
     22 C         -31.3102   50.2452   -3.7594 C.ar    1  UNL1        0.0012
     23 C         -30.8910   49.3133   -2.8073 C.ar    1  UNL1        0.0039
     24 C         -29.5864   48.7928   -2.8491 C.ar    1  UNL1        0.0726
     25 C         -28.6941   49.2650   -3.8283 C.ar    1  UNL1        0.0185
     26 C         -29.1193   47.8145   -1.8007 C.3     1  UNL1        0.4186
     27 F         -29.1109   48.4389   -0.5675 F       1  UNL1       -0.1659
     28 F         -27.8418   47.3650   -2.0874 F       1  UNL1       -0.1659
     29 F         -29.9610   46.7169   -1.7446 F       1  UNL1       -0.1659
     30 N         -21.2537   52.2475   -9.7529 N.pl3   1  UNL1       -0.2814
     31 H         -20.7119   51.7289  -10.4802 H       1  UNL1        0.1551
     32 C         -20.6253   53.3735   -9.1189 C.ar    1  UNL1        0.0889
     33 C         -20.8584   54.6588   -9.6359 C.ar    1  UNL1        0.1548
     34 F         -21.6745   54.8262  -10.7070 F       1  UNL1       -0.2028
     35 C         -20.2767   55.7790   -9.0368 C.ar    1  UNL1        0.0377
     36 C         -19.4435   55.6275   -7.9266 C.ar    1  UNL1        0.0377
     37 BR        -18.6497   57.1613   -7.1112 Br      1  UNL1       -0.0489
     38 C         -19.1795   54.3519   -7.4216 C.ar    1  UNL1        0.0195
     39 C         -19.7561   53.2215   -8.0135 C.ar    1  UNL1        0.0738
     40 CL        -19.3027   51.6405   -7.3865 Cl      1  UNL1       -0.0809
@<TRIPOS>BOND
     1     1     2    1
     2     2     3   ar
     3     3    30    1
     4    30    32    1
     5    32    33   ar
     6    33    34    1
     7    33    35   ar
     8    35    36   ar
     9    36    37    1
    10    36    38   ar
    11    38    39   ar
    12    39    40    1
    13     3     4   ar
    14     4     5   ar
    15     5     6   ar
    16     6     7   ar
    17     7    16    1
    18    16    17    2
    19    16    18   am
    20    18    20    1
    21    20    21   ar
    22    21    22   ar
    23    22    23   ar
    24    23    24   ar
    25    24    26    1
    26    26    27    1
    27    26    28    1
    28    26    29    1
    29    24    25   ar
    30     7     8   ar
    31     8     9   ar
    32     9    10   ar
    33     9    11    1
    34    11    12    1
    35    12    13    1
    36    12    14    1
    37    12    15    1
    38    10     2   ar
    39    39    32   ar
    40    10     5   ar
    41    25    20   ar
    42    15     8    1
    43    30    31    1
    44    18    19    1
@<TRIPOS>MOLECULE
*****
 40 44 0 0 0
SMALL
GASTEIGER

@<TRIPOS>ATOM
      1 C         -24.2650   51.5361  -11.4992 C.3     1  UNL1        0.1332
      2 N         -24.1108   51.3297  -10.0589 N.ar    1  UNL1       -0.2977
      3 C         -22.9908   51.4831   -9.2946 C.ar    1  UNL1        0.2018
      4 N         -23.1718   51.1645   -7.9872 N.ar    1  UNL1       -0.2135
      5 C         -24.4729   50.8320   -7.9343 C.ar    1  UNL1        0.0999
      6 C         -25.2046   50.4564   -6.8002 C.ar    1  UNL1        0.0282
      7 C         -26.5923   50.2047   -6.9455 C.ar    1  UNL1        0.0888
      8 C         -27.1573   50.3192   -8.2392 C.ar    1  UNL1        0.1401
      9 C         -26.4106   50.6759   -9.3387 C.ar    1  UNL1        0.0327
     10 C         -25.0473   50.9390   -9.1732 C.ar    1  UNL1        0.0789
     11 C         -27.2721   50.7004  -10.5531 C.3     1  UNL1        0.0709
     12 C         -28.6830   50.3450   -9.9796 C.3     1  UNL1        0.1375
     13 C         -29.2600   49.0864  -10.6409 C.3     1  UNL1        0.0439
     14 C         -29.6562   51.5223  -10.1296 C.3     1  UNL1        0.0439
     15 O         -28.4716   50.0904   -8.5899 O.3     1  UNL1       -0.4824
     16 C         -27.4013   49.8198   -5.7699 C.2     1  UNL1        0.2525
     17 O         -27.1298   50.3331   -4.6506 O.2     1  UNL1       -0.2697
     18 N         -28.4812   48.8760   -5.8928 N.am    1  UNL1       -0.2803
     19 H         -28.6667   48.4408   -6.8233 H       1  UNL1        0.1552
     20 C         -29.2843   48.4242   -4.7899 C.ar    1  UNL1        0.0505
     21 C         -30.4462   49.1109   -4.3989 C.ar    1  UNL1        0.0147
     22 C         -31.2135   48.6429   -3.3302 C.ar    1  UNL1        0.0012
     23 C         -30.8445   47.4759   -2.6573 C.ar    1  UNL1        0.0039
     24 C         -29.7156   46.7464   -3.0673 C.ar    1  UNL1        0.0726
     25 C         -28.9331   47.2381   -4.1275 C.ar    1  UNL1        0.0185
     26 C         -29.2934   45.5065   -2.3198 C.3     1  UNL1        0.4186
     27 F         -28.1433   44.9986   -2.8942 F       1  UNL1       -0.1659
     28 F         -30.2866   44.5436   -2.3715 F       1  UNL1       -0.1659
     29 F         -29.0427   45.7973   -0.9898 F       1  UNL1       -0.1659
     30 N         -21.7289   51.9619   -9.7820 N.pl3   1  UNL1       -0.2814
     31 H         -21.3138   51.4744  -10.6074 H       1  UNL1        0.1551
     32 C         -20.9757   53.0262   -9.1781 C.ar    1  UNL1        0.0889
     33 C         -20.1376   52.7301   -8.0903 C.ar    1  UNL1        0.1548
     34 F         -20.0367   51.4565   -7.6329 F       1  UNL1       -0.2028
     35 C         -19.3785   53.7361   -7.4870 C.ar    1  UNL1        0.0377
     36 C         -19.4601   55.0504   -7.9516 C.ar    1  UNL1        0.0377
     37 BR        -18.4214   56.4227   -7.1237 Br      1  UNL1       -0.0489
     38 C         -20.3129   55.3633   -9.0131 C.ar    1  UNL1        0.0195
     39 C         -21.0791   54.3640   -9.6255 C.ar    1  UNL1        0.0738
     40 CL        -22.2033   54.8462  -10.8911 Cl      1  UNL1       -0.0809
@<TRIPOS>BOND
     1     1     2    1
     2     2     3   ar
     3     3    30    1
     4    30    32    1
     5    32    33   ar
     6    33    34    1
     7    33    35   ar
     8    35    36   ar
     9    36    37    1
    10    36    38   ar
    11    38    39   ar
    12    39    40    1
    13     3     4   ar
    14     4     5   ar
    15     5     6   ar
    16     6     7   ar
    17     7    16    1
    18    16    17    2
    19    16    18   am
    20    18    20    1
    21    20    21   ar
    22    21    22   ar
    23    22    23   ar
    24    23    24   ar
    25    24    26    1
    26    26    27    1
    27    26    28    1
    28    26    29    1
    29    24    25   ar
    30     7     8   ar
    31     8     9   ar
    32     9    10   ar
    33     9    11    1
    34    11    12    1
    35    12    13    1
    36    12    14    1
    37    12    15    1
    38    10     2   ar
    39    39    32   ar
    40    10     5   ar
    41    25    20   ar
    42    15     8    1
    43    30    31    1
    44    18    19    1
@<TRIPOS>MOLECULE
*****
 40 44 0 0 0
SMALL
GASTEIGER

@<TRIPOS>ATOM
      1 C         -24.0527   52.0305  -11.8274 C.3     1  UNL1        0.1332
      2 N         -23.8225   51.7553  -10.4089 N.ar    1  UNL1       -0.2977
      3 C         -22.6845   51.9476   -9.6808 C.ar    1  UNL1        0.2018
      4 N         -22.7860   51.5434   -8.3885 N.ar    1  UNL1       -0.2135
      5 C         -24.0566   51.1134   -8.3051 C.ar    1  UNL1        0.0999
      6 C         -24.7104   50.6216   -7.1678 C.ar    1  UNL1        0.0282
      7 C         -26.0815   50.2768   -7.2739 C.ar    1  UNL1        0.0888
      8 C         -26.7082   50.4219   -8.5357 C.ar    1  UNL1        0.1401
      9 C         -26.0367   50.8941   -9.6403 C.ar    1  UNL1        0.0327
     10 C         -24.6898   51.2473   -9.5123 C.ar    1  UNL1        0.0789
     11 C         -26.9490   50.9233  -10.8168 C.3     1  UNL1        0.0709
     12 C         -28.3051   50.4331  -10.2112 C.3     1  UNL1        0.1375
     13 C         -28.8186   49.1745  -10.9231 C.3     1  UNL1        0.0439
     14 C         -29.3654   51.5420  -10.2534 C.3     1  UNL1        0.0439
     15 O         -28.0166   50.1170   -8.8483 O.3     1  UNL1       -0.4824
     16 C         -26.8097   49.7677   -6.0928 C.2     1  UNL1        0.2525
     17 O         -26.3817   50.0582   -4.9429 O.2     1  UNL1       -0.2697
     18 N         -27.9872   48.9538   -6.2448 N.am    1  UNL1       -0.2803
     19 H         -28.3042   48.7006   -7.2065 H       1  UNL1        0.1552
     20 C         -28.7234   48.3909   -5.1463 C.ar    1  UNL1        0.0505
     21 C         -29.9326   48.9564   -4.7072 C.ar    1  UNL1        0.0147
     22 C         -30.6324   48.3818   -3.6442 C.ar    1  UNL1        0.0012
     23 C         -30.1476   47.2275   -3.0251 C.ar    1  UNL1        0.0039
     24 C         -28.9680   46.6172   -3.4842 C.ar    1  UNL1        0.0726
     25 C         -28.2550   47.2164   -4.5381 C.ar    1  UNL1        0.0185
     26 C         -28.4223   45.3922   -2.7944 C.3     1  UNL1        0.4186
     27 F         -28.4687   45.5821   -1.4260 F       1  UNL1       -0.1659
     28 F         -27.1110   45.1621   -3.1737 F       1  UNL1       -0.1659
     29 F         -29.1688   44.2728   -3.1199 F       1  UNL1       -0.1659
     30 N         -21.4821   52.5448  -10.1874 N.pl3   1  UNL1       -0.2814
     31 H         -21.5572   53.1177  -11.0577 H       1  UNL1        0.1551
     32 C         -20.1787   52.3618   -9.6107 C.ar    1  UNL1        0.0889
     33 C         -19.4019   51.2676  -10.0265 C.ar    1  UNL1        0.1548
     34 F         -19.8762   50.4113  -10.9663 F       1  UNL1       -0.2028
     35 C         -18.1239   51.0657   -9.4992 C.ar    1  UNL1        0.0377
     36 C         -17.6142   51.9430   -8.5400 C.ar    1  UNL1        0.0377
     37 BR        -15.8671   51.6630   -7.8212 Br      1  UNL1       -0.0489
     38 C         -18.3888   53.0176   -8.0958 C.ar    1  UNL1        0.0195
     39 C         -19.6713   53.2301   -8.6162 C.ar    1  UNL1        0.0738
     40 CL        -20.6278   54.5444   -7.9409 Cl      1  UNL1       -0.0809
@<TRIPOS>BOND
     1     1     2    1
     2     2     3   ar
     3     3    30    1
     4    30    32    1
     5    32    33   ar
     6    33    34    1
     7    33    35   ar
     8    35    36   ar
     9    36    37    1
    10    36    38   ar
    11    38    39   ar
    12    39    40    1
    13     3     4   ar
    14     4     5   ar
    15     5     6   ar
    16     6     7   ar
    17     7    16    1
    18    16    17    2
    19    16    18   am
    20    18    20    1
    21    20    21   ar
    22    21    22   ar
    23    22    23   ar
    24    23    24   ar
    25    24    26    1
    26    26    27    1
    27    26    28    1
    28    26    29    1
    29    24    25   ar
    30     7     8   ar
    31     8     9   ar
    32     9    10   ar
    33     9    11    1
    34    11    12    1
    35    12    13    1
    36    12    14    1
    37    12    15    1
    38    10     2   ar
    39    39    32   ar
    40    10     5   ar
    41    25    20   ar
    42    15     8    1
    43    30    31    1
    44    18    19    1
