@<TRIPOS>MOLECULE
*****
 33 34 0 0 0
SMALL
GASTEIGER

@<TRIPOS>ATOM
      1 C          47.5136   11.8759  -25.5073 C.3     1  UNL1        0.0197
      2 C          48.9818   11.9650  -25.0123 C.3     1  UNL1        0.0187
      3 C          49.8905   10.7882  -25.4191 C.3     1  UNL1        0.0722
      4 N          50.0961    9.8226  -24.3159 N.3     1  UNL1       -0.2712
      5 C          51.4250    9.1982  -24.4440 C.3     1  UNL1        0.0896
      6 C          49.9446   10.4483  -22.9766 C.3     1  UNL1        0.0768
      7 C          49.1714    9.5176  -22.0341 C.3     1  UNL1        0.0438
      8 C          46.3652   11.7499  -19.6140 C.ar    1  UNL1        0.1724
      9 C          46.1794   11.6350  -21.0046 C.ar    1  UNL1        0.0397
     10 C          47.0771   10.8987  -21.7788 C.ar    1  UNL1       -0.0009
     11 C          48.1802   10.2727  -21.1831 C.ar    1  UNL1       -0.0176
     12 C          48.3650   10.3801  -19.7959 C.ar    1  UNL1        0.0358
     13 C          47.4582   11.1135  -19.0061 C.ar    1  UNL1        0.1721
     14 C          44.1096   12.1750  -18.6173 C.3     1  UNL1        0.2526
     15 O          45.4866   12.4858  -18.8033 O.3     1  UNL1       -0.4684
     16 O          47.6096   11.2347  -17.6155 O.3     1  UNL1       -0.4684
     17 C          48.7574   11.7787  -16.9723 C.3     1  UNL1        0.2526
     18 C          46.9291   13.1623  -26.1779 C.3     1  UNL1        0.0981
     19 C          46.6150   12.8703  -27.6617 C.ar    1  UNL1       -0.0065
     20 C          46.1021   13.8517  -28.5385 C.ar    1  UNL1        0.0000
     21 C          45.8120   13.5443  -29.8682 C.ar    1  UNL1        0.0398
     22 C          46.0188   12.2467  -30.3643 C.ar    1  UNL1        0.1724
     23 C          46.5240   11.2556  -29.5144 C.ar    1  UNL1        0.1721
     24 C          46.8237   11.5715  -28.1759 C.ar    1  UNL1        0.0367
     25 O          45.7361   11.9036  -31.6960 O.3     1  UNL1       -0.4684
     26 C          45.1241   12.7750  -32.6412 C.3     1  UNL1        0.2526
     27 O          46.7235    9.9680  -30.0391 O.3     1  UNL1       -0.4684
     28 C          47.8169    9.1182  -29.7064 C.3     1  UNL1        0.2526
     29 C          45.6023   13.6174  -25.4479 C.3     1  UNL1        0.0169
     30 C          45.8755   14.6010  -24.2900 C.3     1  UNL1        0.0014
     31 C          44.7362   12.4514  -24.9236 C.3     1  UNL1        0.0014
     32 C          47.9347   14.2463  -26.0260 C.1     1  UNL1        0.0752
     33 N          48.7152   15.0932  -25.9087 N.1     1  UNL1       -0.1956
@<TRIPOS>BOND
     1    14    15    1
     2    15     8    1
     3     8     9   ar
     4     9    10   ar
     5    10    11   ar
     6    11     7    1
     7     7     6    1
     8     6     4    1
     9     4     5    1
    10     4     3    1
    11     3     2    1
    12     2     1    1
    13     1    18    1
    14    18    32    1
    15    32    33    3
    16    18    19    1
    17    19    20   ar
    18    20    21   ar
    19    21    22   ar
    20    22    25    1
    21    25    26    1
    22    22    23   ar
    23    23    27    1
    24    27    28    1
    25    23    24   ar
    26    18    29    1
    27    29    30    1
    28    29    31    1
    29    11    12   ar
    30    12    13   ar
    31    13    16    1
    32    16    17    1
    33    13     8   ar
    34    24    19   ar
@<TRIPOS>MOLECULE
*****
 33 34 0 0 0
SMALL
GASTEIGER

@<TRIPOS>ATOM
      1 C          48.4145   12.1459  -25.3402 C.3     1  UNL1        0.0197
      2 C          49.7028   12.9762  -25.5838 C.3     1  UNL1        0.0187
      3 C          51.0144   12.1675  -25.6236 C.3     1  UNL1        0.0722
      4 N          50.7789   10.7068  -25.6742 N.3     1  UNL1       -0.2712
      5 C          51.2702   10.1690  -26.9555 C.3     1  UNL1        0.0896
      6 C          51.4089    9.9892  -24.5356 C.3     1  UNL1        0.0768
      7 C          50.4002    9.0415  -23.8748 C.3     1  UNL1        0.0438
      8 C          48.5024   10.8236  -20.4197 C.ar    1  UNL1        0.1724
      9 C          48.2561    9.4800  -20.7594 C.ar    1  UNL1        0.0397
     10 C          48.8845    8.9039  -21.8642 C.ar    1  UNL1       -0.0009
     11 C          49.7611    9.6586  -22.6551 C.ar    1  UNL1       -0.0176
     12 C          50.0138   10.9969  -22.3156 C.ar    1  UNL1        0.0358
     13 C          49.3909   11.5829  -21.1964 C.ar    1  UNL1        0.1721
     14 C          46.5734   11.9918  -19.3352 C.3     1  UNL1        0.2526
     15 O          47.8854   11.4389  -19.3191 O.3     1  UNL1       -0.4684
     16 O          49.6272   12.9161  -20.8249 O.3     1  UNL1       -0.4684
     17 C          49.3406   14.0456  -21.6430 C.3     1  UNL1        0.2526
     18 C          47.0586   12.8686  -25.6330 C.3     1  UNL1        0.0981
     19 C          46.6994   12.7007  -27.1257 C.ar    1  UNL1       -0.0065
     20 C          46.3317   13.7894  -27.9470 C.ar    1  UNL1        0.0000
     21 C          45.9946   13.5952  -29.2870 C.ar    1  UNL1        0.0398
     22 C          46.0077   12.3081  -29.8490 C.ar    1  UNL1        0.1724
     23 C          46.3662   11.2123  -29.0548 C.ar    1  UNL1        0.1721
     24 C          46.7141   11.4131  -27.7058 C.ar    1  UNL1        0.0367
     25 O          45.6727   12.0776  -31.1927 O.3     1  UNL1       -0.4684
     26 C          45.6700   13.0774  -32.2065 C.3     1  UNL1        0.2526
     27 O          46.3736    9.9376  -29.6448 O.3     1  UNL1       -0.4684
     28 C          47.5492    9.2122  -29.9912 C.3     1  UNL1        0.2526
     29 C          45.8989   12.2561  -24.7495 C.3     1  UNL1        0.0169
     30 C          44.5752   13.0375  -24.8924 C.3     1  UNL1        0.0014
     31 C          46.2463   12.1251  -23.2507 C.3     1  UNL1        0.0014
     32 C          47.2194   14.2977  -25.2577 C.1     1  UNL1        0.0752
     33 N          47.3470   15.4098  -24.9624 N.1     1  UNL1       -0.1956
@<TRIPOS>BOND
     1    14    15    1
     2    15     8    1
     3     8     9   ar
     4     9    10   ar
     5    10    11   ar
     6    11     7    1
     7     7     6    1
     8     6     4    1
     9     4     5    1
    10     4     3    1
    11     3     2    1
    12     2     1    1
    13     1    18    1
    14    18    32    1
    15    32    33    3
    16    18    19    1
    17    19    20   ar
    18    20    21   ar
    19    21    22   ar
    20    22    25    1
    21    25    26    1
    22    22    23   ar
    23    23    27    1
    24    27    28    1
    25    23    24   ar
    26    18    29    1
    27    29    30    1
    28    29    31    1
    29    11    12   ar
    30    12    13   ar
    31    13    16    1
    32    16    17    1
    33    13     8   ar
    34    24    19   ar
@<TRIPOS>MOLECULE
*****
 33 34 0 0 0
SMALL
GASTEIGER

@<TRIPOS>ATOM
      1 C          48.0948   16.1876  -27.1880 C.3     1  UNL1        0.0197
      2 C          46.7580   15.4666  -26.8693 C.3     1  UNL1        0.0187
      3 C          46.4527   14.2257  -27.7312 C.3     1  UNL1        0.0722
      4 N          46.2468   13.0064  -26.9174 N.3     1  UNL1       -0.2712
      5 C          46.3434   11.8134  -27.7774 C.3     1  UNL1        0.0896
      6 C          47.2056   12.9087  -25.7863 C.3     1  UNL1        0.0768
      7 C          46.4546   12.7458  -24.4590 C.3     1  UNL1        0.0438
      8 C          48.5417   10.1344  -21.7131 C.ar    1  UNL1        0.1724
      9 C          47.2954   10.6897  -21.3670 C.ar    1  UNL1        0.0397
     10 C          46.6172   11.5170  -22.2630 C.ar    1  UNL1       -0.0009
     11 C          47.1728   11.8132  -23.5149 C.ar    1  UNL1       -0.0176
     12 C          48.4124   11.2562  -23.8657 C.ar    1  UNL1        0.0358
     13 C          49.0988   10.4126  -22.9707 C.ar    1  UNL1        0.1721
     14 C          49.8463    9.7349  -19.6155 C.3     1  UNL1        0.2526
     15 O          49.2558    9.3022  -20.8367 O.3     1  UNL1       -0.4684
     16 O          50.3366    9.8333  -23.2930 O.3     1  UNL1       -0.4684
     17 C          50.4988    8.6687  -24.0958 C.3     1  UNL1        0.2526
     18 C          48.7671   16.9563  -26.0034 C.3     1  UNL1        0.0981
     19 C          49.2703   15.9419  -24.9529 C.ar    1  UNL1       -0.0065
     20 C          48.7976   15.9270  -23.6220 C.ar    1  UNL1        0.0000
     21 C          49.2910   15.0073  -22.6960 C.ar    1  UNL1        0.0398
     22 C          50.2758   14.0769  -23.0663 C.ar    1  UNL1        0.1724
     23 C          50.7624   14.0732  -24.3790 C.ar    1  UNL1        0.1721
     24 C          50.2561   14.9967  -25.3128 C.ar    1  UNL1        0.0367
     25 O          50.7947   13.1393  -22.1594 O.3     1  UNL1       -0.4684
     26 C          50.8718   13.3359  -20.7513 C.3     1  UNL1        0.2526
     27 O          51.7446   13.1293  -24.7214 O.3     1  UNL1       -0.4684
     28 C          51.6233   12.1804  -25.7766 C.3     1  UNL1        0.2526
     29 C          49.9898   17.8160  -26.5197 C.3     1  UNL1        0.0169
     30 C          50.9542   18.2107  -25.3807 C.3     1  UNL1        0.0014
     31 C          49.5863   19.0860  -27.2999 C.3     1  UNL1        0.0014
     32 C          47.7551   17.8862  -25.4374 C.1     1  UNL1        0.0752
     33 N          46.9698   18.6126  -24.9950 N.1     1  UNL1       -0.1956
@<TRIPOS>BOND
     1    14    15    1
     2    15     8    1
     3     8     9   ar
     4     9    10   ar
     5    10    11   ar
     6    11     7    1
     7     7     6    1
     8     6     4    1
     9     4     5    1
    10     4     3    1
    11     3     2    1
    12     2     1    1
    13     1    18    1
    14    18    32    1
    15    32    33    3
    16    18    19    1
    17    19    20   ar
    18    20    21   ar
    19    21    22   ar
    20    22    25    1
    21    25    26    1
    22    22    23   ar
    23    23    27    1
    24    27    28    1
    25    23    24   ar
    26    18    29    1
    27    29    30    1
    28    29    31    1
    29    11    12   ar
    30    12    13   ar
    31    13    16    1
    32    16    17    1
    33    13     8   ar
    34    24    19   ar
@<TRIPOS>MOLECULE
*****
 33 34 0 0 0
SMALL
GASTEIGER

@<TRIPOS>ATOM
      1 C          48.2633   16.2962  -26.8092 C.3     1  UNL1        0.0197
      2 C          46.7839   15.8278  -26.8323 C.3     1  UNL1        0.0187
      3 C          46.4156   14.8525  -27.9677 C.3     1  UNL1        0.0722
      4 N          45.8036   13.6018  -27.4649 N.3     1  UNL1       -0.2712
      5 C          46.3355   12.4515  -28.2175 C.3     1  UNL1        0.0896
      6 C          46.0168   13.4102  -26.0068 C.3     1  UNL1        0.0768
      7 C          46.9934   12.2548  -25.7547 C.3     1  UNL1        0.0438
      8 C          48.2810   12.1042  -21.6275 C.ar    1  UNL1        0.1724
      9 C          47.4281   13.1306  -22.0752 C.ar    1  UNL1        0.0397
     10 C          47.0006   13.1650  -23.4031 C.ar    1  UNL1       -0.0009
     11 C          47.4229   12.1838  -24.3100 C.ar    1  UNL1       -0.0176
     12 C          48.2683   11.1554  -23.8654 C.ar    1  UNL1        0.0358
     13 C          48.6966   11.1082  -22.5244 C.ar    1  UNL1        0.1721
     14 C          47.8881   11.9281  -19.1624 C.3     1  UNL1        0.2526
     15 O          48.7358   12.0390  -20.3010 O.3     1  UNL1       -0.4684
     16 O          49.5361   10.0897  -22.0454 O.3     1  UNL1       -0.4684
     17 C          49.9638    8.9684  -22.8115 C.3     1  UNL1        0.2526
     18 C          48.8870   16.5526  -25.3979 C.3     1  UNL1        0.0981
     19 C          49.7598   15.3437  -24.9951 C.ar    1  UNL1       -0.0065
     20 C          50.2162   14.3891  -25.9308 C.ar    1  UNL1        0.0000
     21 C          50.9868   13.2989  -25.5253 C.ar    1  UNL1        0.0398
     22 C          51.3219   13.1228  -24.1728 C.ar    1  UNL1        0.1724
     23 C          50.8794   14.0539  -23.2256 C.ar    1  UNL1        0.1721
     24 C          50.1095   15.1572  -23.6395 C.ar    1  UNL1        0.0367
     25 O          52.0941   12.0367  -23.7310 O.3     1  UNL1       -0.4684
     26 C          52.9397   11.2545  -24.5680 C.3     1  UNL1        0.2526
     27 O          51.2327   13.8538  -21.8809 O.3     1  UNL1       -0.4684
     28 C          52.4811   14.2286  -21.3070 C.3     1  UNL1        0.2526
     29 C          49.7830   17.8555  -25.4133 C.3     1  UNL1        0.0169
     30 C          48.9882   19.1112  -25.8311 C.3     1  UNL1        0.0014
     31 C          51.0470   17.7445  -26.2932 C.3     1  UNL1        0.0014
     32 C          47.7685   16.7725  -24.4441 C.1     1  UNL1        0.0752
     33 N          46.9000   16.9453  -23.6985 N.1     1  UNL1       -0.1956
@<TRIPOS>BOND
     1    14    15    1
     2    15     8    1
     3     8     9   ar
     4     9    10   ar
     5    10    11   ar
     6    11     7    1
     7     7     6    1
     8     6     4    1
     9     4     5    1
    10     4     3    1
    11     3     2    1
    12     2     1    1
    13     1    18    1
    14    18    32    1
    15    32    33    3
    16    18    19    1
    17    19    20   ar
    18    20    21   ar
    19    21    22   ar
    20    22    25    1
    21    25    26    1
    22    22    23   ar
    23    23    27    1
    24    27    28    1
    25    23    24   ar
    26    18    29    1
    27    29    30    1
    28    29    31    1
    29    11    12   ar
    30    12    13   ar
    31    13    16    1
    32    16    17    1
    33    13     8   ar
    34    24    19   ar
@<TRIPOS>MOLECULE
*****
 33 34 0 0 0
SMALL
GASTEIGER

@<TRIPOS>ATOM
      1 C          47.9733   16.2705  -27.2696 C.3     1  UNL1        0.0197
      2 C          46.6472   15.5130  -26.9941 C.3     1  UNL1        0.0187
      3 C          46.4279   14.2361  -27.8294 C.3     1  UNL1        0.0722
      4 N          46.1402   13.0514  -26.9897 N.3     1  UNL1       -0.2712
      5 C          46.2885   11.8252  -27.7939 C.3     1  UNL1        0.0896
      6 C          47.0038   12.9867  -25.7822 C.3     1  UNL1        0.0768
      7 C          46.1518   13.0572  -24.5089 C.3     1  UNL1        0.0438
      8 C          47.8004   10.6530  -21.3125 C.ar    1  UNL1        0.1724
      9 C          48.2428   10.4837  -22.6381 C.ar    1  UNL1        0.0397
     10 C          47.7213   11.2739  -23.6633 C.ar    1  UNL1       -0.0009
     11 C          46.7438   12.2393  -23.3876 C.ar    1  UNL1       -0.0176
     12 C          46.3050   12.4150  -22.0660 C.ar    1  UNL1        0.0358
     13 C          46.8332   11.6279  -21.0241 C.ar    1  UNL1        0.1721
     14 C          49.6808    9.6756  -19.9818 C.3     1  UNL1        0.2526
     15 O          48.2977    9.8739  -20.2560 O.3     1  UNL1       -0.4684
     16 O          46.4218   11.7830  -19.6907 O.3     1  UNL1       -0.4684
     17 C          45.0813   12.0365  -19.2832 C.3     1  UNL1        0.2526
     18 C          48.5710   17.0794  -26.0718 C.3     1  UNL1        0.0981
     19 C          48.9911   16.1026  -24.9515 C.ar    1  UNL1       -0.0065
     20 C          48.4928   16.1968  -23.6333 C.ar    1  UNL1        0.0000
     21 C          48.9114   15.3074  -22.6431 C.ar    1  UNL1        0.0398
     22 C          49.8447   14.2992  -22.9347 C.ar    1  UNL1        0.1724
     23 C          50.3554   14.1867  -24.2333 C.ar    1  UNL1        0.1721
     24 C          49.9243   15.0802  -25.2318 C.ar    1  UNL1        0.0367
     25 O          50.2880   13.3892  -21.9619 O.3     1  UNL1       -0.4684
     26 C          50.0971   13.5500  -20.5600 C.3     1  UNL1        0.2526
     27 O          51.2848   13.1668  -24.4963 O.3     1  UNL1       -0.4684
     28 C          51.1031   12.1341  -25.4601 C.3     1  UNL1        0.2526
     29 C          49.8346   17.9094  -26.5354 C.3     1  UNL1        0.0169
     30 C          50.7510   18.2949  -25.3545 C.3     1  UNL1        0.0014
     31 C          49.4955   19.1801  -27.3445 C.3     1  UNL1        0.0014
     32 C          47.5321   18.0379  -25.6122 C.1     1  UNL1        0.0752
     33 N          46.7259   18.7868  -25.2527 N.1     1  UNL1       -0.1956
@<TRIPOS>BOND
     1    14    15    1
     2    15     8    1
     3     8     9   ar
     4     9    10   ar
     5    10    11   ar
     6    11     7    1
     7     7     6    1
     8     6     4    1
     9     4     5    1
    10     4     3    1
    11     3     2    1
    12     2     1    1
    13     1    18    1
    14    18    32    1
    15    32    33    3
    16    18    19    1
    17    19    20   ar
    18    20    21   ar
    19    21    22   ar
    20    22    25    1
    21    25    26    1
    22    22    23   ar
    23    23    27    1
    24    27    28    1
    25    23    24   ar
    26    18    29    1
    27    29    30    1
    28    29    31    1
    29    11    12   ar
    30    12    13   ar
    31    13    16    1
    32    16    17    1
    33    13     8   ar
    34    24    19   ar
@<TRIPOS>MOLECULE
*****
 33 34 0 0 0
SMALL
GASTEIGER

@<TRIPOS>ATOM
      1 C          48.1578   11.7453  -25.6079 C.3     1  UNL1        0.0197
      2 C          49.6266   12.0315  -25.1968 C.3     1  UNL1        0.0187
      3 C          50.5959   10.8404  -25.3301 C.3     1  UNL1        0.0722
      4 N          50.9717   10.5695  -26.7362 N.3     1  UNL1       -0.2712
      5 C          52.2962   11.1520  -27.0170 C.3     1  UNL1        0.0896
      6 C          50.9652    9.1186  -27.0574 C.3     1  UNL1        0.0768
      7 C          49.9856    8.8268  -28.2008 C.3     1  UNL1        0.0438
      8 C          51.9704    7.1638  -31.6664 C.ar    1  UNL1        0.1724
      9 C          52.7024    7.8620  -30.6875 C.ar    1  UNL1        0.0397
     10 C          52.0609    8.3811  -29.5621 C.ar    1  UNL1       -0.0009
     11 C          50.6785    8.2222  -29.3972 C.ar    1  UNL1       -0.0176
     12 C          49.9466    7.5212  -30.3682 C.ar    1  UNL1        0.0358
     13 C          50.5882    6.9860  -31.5022 C.ar    1  UNL1        0.1721
     14 C          53.9282    6.1793  -32.8745 C.3     1  UNL1        0.2526
     15 O          52.5796    6.6319  -32.8138 O.3     1  UNL1       -0.4684
     16 O          49.8873    6.2734  -32.4883 O.3     1  UNL1       -0.4684
     17 C          48.4776    6.0737  -32.4921 C.3     1  UNL1        0.2526
     18 C          47.2436   12.9953  -25.8276 C.3     1  UNL1        0.0981
     19 C          46.7117   12.9938  -27.2776 C.ar    1  UNL1       -0.0065
     20 C          46.2785   14.1690  -27.9305 C.ar    1  UNL1        0.0000
     21 C          45.7855   14.1245  -29.2350 C.ar    1  UNL1        0.0398
     22 C          45.7033   12.9057  -29.9279 C.ar    1  UNL1        0.1724
     23 C          46.1241   11.7264  -29.3015 C.ar    1  UNL1        0.1721
     24 C          46.6290   11.7763  -27.9886 C.ar    1  UNL1        0.0367
     25 O          45.2111   12.8255  -31.2402 O.3     1  UNL1       -0.4684
     26 C          45.8585   13.3814  -32.3801 C.3     1  UNL1        0.2526
     27 O          46.0333   10.5229  -30.0201 O.3     1  UNL1       -0.4684
     28 C          47.0862    9.5719  -30.1437 C.3     1  UNL1        0.2526
     29 C          46.0192   12.9725  -24.8272 C.3     1  UNL1        0.0169
     30 C          46.4169   12.4729  -23.4217 C.3     1  UNL1        0.0014
     31 C          44.8080   12.1557  -25.3272 C.3     1  UNL1        0.0014
     32 C          48.0563   14.2049  -25.5353 C.1     1  UNL1        0.0752
     33 N          48.6867   15.1493  -25.3096 N.1     1  UNL1       -0.1956
@<TRIPOS>BOND
     1    14    15    1
     2    15     8    1
     3     8     9   ar
     4     9    10   ar
     5    10    11   ar
     6    11     7    1
     7     7     6    1
     8     6     4    1
     9     4     5    1
    10     4     3    1
    11     3     2    1
    12     2     1    1
    13     1    18    1
    14    18    32    1
    15    32    33    3
    16    18    19    1
    17    19    20   ar
    18    20    21   ar
    19    21    22   ar
    20    22    25    1
    21    25    26    1
    22    22    23   ar
    23    23    27    1
    24    27    28    1
    25    23    24   ar
    26    18    29    1
    27    29    30    1
    28    29    31    1
    29    11    12   ar
    30    12    13   ar
    31    13    16    1
    32    16    17    1
    33    13     8   ar
    34    24    19   ar
@<TRIPOS>MOLECULE
*****
 33 34 0 0 0
SMALL
GASTEIGER

@<TRIPOS>ATOM
      1 C          50.6745   12.8166  -25.6967 C.3     1  UNL1        0.0197
      2 C          50.1021   14.0980  -25.0342 C.3     1  UNL1        0.0187
      3 C          48.6767   14.4895  -25.4713 C.3     1  UNL1        0.0722
      4 N          47.6317   13.8055  -24.6765 N.3     1  UNL1       -0.2712
      5 C          47.3388   14.5889  -23.4629 C.3     1  UNL1        0.0896
      6 C          46.3875   13.5710  -25.4546 C.3     1  UNL1        0.0768
      7 C          46.3745   12.1493  -26.0297 C.3     1  UNL1        0.0438
      8 C          46.2766   12.1451  -30.3547 C.ar    1  UNL1        0.1724
      9 C          45.9891   13.3186  -29.6324 C.ar    1  UNL1        0.0397
     10 C          46.0396   13.3201  -28.2378 C.ar    1  UNL1       -0.0009
     11 C          46.3677   12.1509  -27.5386 C.ar    1  UNL1       -0.0176
     12 C          46.6609   10.9807  -28.2559 C.ar    1  UNL1        0.0358
     13 C          46.6214   10.9734  -29.6639 C.ar    1  UNL1        0.1721
     14 C          45.5816   13.0738  -32.5720 C.3     1  UNL1        0.2526
     15 O          46.2313   12.1036  -31.7571 O.3     1  UNL1       -0.4684
     16 O          46.9164    9.8223  -30.4119 O.3     1  UNL1       -0.4684
     17 C          47.9255    8.8763  -30.0745 C.3     1  UNL1        0.2526
     18 C          51.1251   11.6765  -24.7254 C.3     1  UNL1        0.0981
     19 C          50.0559   11.4853  -23.6272 C.ar    1  UNL1       -0.0065
     20 C          48.8454   10.7942  -23.8557 C.ar    1  UNL1        0.0000
     21 C          47.8947   10.6592  -22.8435 C.ar    1  UNL1        0.0398
     22 C          48.1184   11.2140  -21.5728 C.ar    1  UNL1        0.1724
     23 C          49.3093   11.9059  -21.3221 C.ar    1  UNL1        0.1721
     24 C          50.2700   12.0327  -22.3430 C.ar    1  UNL1        0.0367
     25 O          47.1824   11.0977  -20.5329 O.3     1  UNL1       -0.4684
     26 C          46.0548   11.9505  -20.3632 C.3     1  UNL1        0.2526
     27 O          49.5069   12.4471  -20.0411 O.3     1  UNL1       -0.4684
     28 C          49.9162   13.7864  -19.7819 C.3     1  UNL1        0.2526
     29 C          51.3095   10.3163  -25.5106 C.3     1  UNL1        0.0169
     30 C          52.0873    9.2646  -24.6908 C.3     1  UNL1        0.0014
     31 C          51.9770   10.4695  -26.8945 C.3     1  UNL1        0.0014
     32 C          52.4425   12.0636  -24.1565 C.1     1  UNL1        0.0752
     33 N          53.4693   12.3675  -23.7165 N.1     1  UNL1       -0.1956
@<TRIPOS>BOND
     1    14    15    1
     2    15     8    1
     3     8     9   ar
     4     9    10   ar
     5    10    11   ar
     6    11     7    1
     7     7     6    1
     8     6     4    1
     9     4     5    1
    10     4     3    1
    11     3     2    1
    12     2     1    1
    13     1    18    1
    14    18    32    1
    15    32    33    3
    16    18    19    1
    17    19    20   ar
    18    20    21   ar
    19    21    22   ar
    20    22    25    1
    21    25    26    1
    22    22    23   ar
    23    23    27    1
    24    27    28    1
    25    23    24   ar
    26    18    29    1
    27    29    30    1
    28    29    31    1
    29    11    12   ar
    30    12    13   ar
    31    13    16    1
    32    16    17    1
    33    13     8   ar
    34    24    19   ar
@<TRIPOS>MOLECULE
*****
 33 34 0 0 0
SMALL
GASTEIGER

@<TRIPOS>ATOM
      1 C          50.0176   12.9121  -25.7612 C.3     1  UNL1        0.0197
      2 C          50.0452   14.4137  -25.3704 C.3     1  UNL1        0.0187
      3 C          49.6477   15.3968  -26.4891 C.3     1  UNL1        0.0722
      4 N          48.3903   16.1185  -26.1899 N.3     1  UNL1       -0.2712
      5 C          48.1601   17.1582  -27.2088 C.3     1  UNL1        0.0896
      6 C          47.2186   15.2084  -26.1044 C.3     1  UNL1        0.0768
      7 C          46.4486   15.1994  -27.4307 C.3     1  UNL1        0.0438
      8 C          46.3412   11.2446  -29.1808 C.ar    1  UNL1        0.1724
      9 C          46.7312   11.4248  -27.8404 C.ar    1  UNL1        0.0397
     10 C          46.7469   12.7003  -27.2745 C.ar    1  UNL1       -0.0009
     11 C          46.3840   13.8189  -28.0365 C.ar    1  UNL1       -0.0176
     12 C          45.9887   13.6421  -29.3716 C.ar    1  UNL1        0.0358
     13 C          45.9610   12.3569  -29.9473 C.ar    1  UNL1        0.1721
     14 C          47.4766    9.2509  -30.1799 C.3     1  UNL1        0.2526
     15 O          46.3176    9.9782  -29.7860 O.3     1  UNL1       -0.4684
     16 O          45.5638   12.1442  -31.2771 O.3     1  UNL1       -0.4684
     17 C          45.7264   13.0890  -32.3297 C.3     1  UNL1        0.2526
     18 C          50.1583   11.8879  -24.5875 C.3     1  UNL1        0.0981
     19 C          49.0198   12.1150  -23.5688 C.ar    1  UNL1       -0.0065
     20 C          49.2628   12.4382  -22.2155 C.ar    1  UNL1        0.0000
     21 C          48.2077   12.6164  -21.3201 C.ar    1  UNL1        0.0398
     22 C          46.8767   12.4723  -21.7445 C.ar    1  UNL1        0.1724
     23 C          46.6098   12.1497  -23.0804 C.ar    1  UNL1        0.1721
     24 C          47.6764   11.9792  -23.9829 C.ar    1  UNL1        0.0367
     25 O          45.7922   12.6433  -20.8695 O.3     1  UNL1       -0.4684
     26 C          45.6244   11.9366  -19.6449 C.3     1  UNL1        0.2526
     27 O          45.2690   12.0153  -23.4769 O.3     1  UNL1       -0.4684
     28 C          44.6494   12.7761  -24.5092 C.3     1  UNL1        0.2526
     29 C          50.0791   10.4047  -25.1300 C.3     1  UNL1        0.0169
     30 C          50.4595    9.3639  -24.0552 C.3     1  UNL1        0.0014
     31 C          50.9214   10.1485  -26.3986 C.3     1  UNL1        0.0014
     32 C          51.4985   12.0848  -23.9758 C.1     1  UNL1        0.0752
     33 N          52.5406   12.2388  -23.4958 N.1     1  UNL1       -0.1956
@<TRIPOS>BOND
     1    14    15    1
     2    15     8    1
     3     8     9   ar
     4     9    10   ar
     5    10    11   ar
     6    11     7    1
     7     7     6    1
     8     6     4    1
     9     4     5    1
    10     4     3    1
    11     3     2    1
    12     2     1    1
    13     1    18    1
    14    18    32    1
    15    32    33    3
    16    18    19    1
    17    19    20   ar
    18    20    21   ar
    19    21    22   ar
    20    22    25    1
    21    25    26    1
    22    22    23   ar
    23    23    27    1
    24    27    28    1
    25    23    24   ar
    26    18    29    1
    27    29    30    1
    28    29    31    1
    29    11    12   ar
    30    12    13   ar
    31    13    16    1
    32    16    17    1
    33    13     8   ar
    34    24    19   ar
@<TRIPOS>MOLECULE
*****
 33 34 0 0 0
SMALL
GASTEIGER

@<TRIPOS>ATOM
      1 C          48.2609   10.3559  -21.4532 C.3     1  UNL1        0.0197
      2 C          49.5123    9.5437  -21.8809 C.3     1  UNL1        0.0187
      3 C          49.8863    9.6400  -23.3731 C.3     1  UNL1        0.0722
      4 N          51.1542   10.3715  -23.5942 N.3     1  UNL1       -0.2712
      5 C          51.9640    9.6672  -24.6044 C.3     1  UNL1        0.0896
      6 C          50.9328   11.7837  -24.0004 C.3     1  UNL1        0.0768
      7 C          49.7034   11.8936  -24.9107 C.3     1  UNL1        0.0438
      8 C          49.2784   15.8728  -26.5538 C.ar    1  UNL1        0.1724
      9 C          50.4090   15.5305  -25.7883 C.ar    1  UNL1        0.0397
     10 C          50.5507   14.2404  -25.2755 C.ar    1  UNL1       -0.0009
     11 C          49.5646   13.2723  -25.5079 C.ar    1  UNL1       -0.0176
     12 C          48.4390   13.6086  -26.2760 C.ar    1  UNL1        0.0358
     13 C          48.2931   14.9057  -26.8051 C.ar    1  UNL1        0.1721
     14 C          49.5315   18.3601  -26.4479 C.3     1  UNL1        0.2526
     15 O          49.0985   17.1610  -27.0819 O.3     1  UNL1       -0.4684
     16 O          47.1837   15.2729  -27.5834 O.3     1  UNL1       -0.4684
     17 C          45.9511   15.7533  -27.0570 C.3     1  UNL1        0.2526
     18 C          48.5271   11.6468  -20.6111 C.3     1  UNL1        0.0981
     19 C          48.2543   12.8930  -21.4818 C.ar    1  UNL1       -0.0065
     20 C          49.0402   14.0639  -21.4021 C.ar    1  UNL1        0.0000
     21 C          48.7502   15.1774  -22.1914 C.ar    1  UNL1        0.0398
     22 C          47.6637   15.1606  -23.0811 C.ar    1  UNL1        0.1724
     23 C          46.8680   14.0127  -23.1765 C.ar    1  UNL1        0.1721
     24 C          47.1687   12.8882  -22.3851 C.ar    1  UNL1        0.0367
     25 O          47.3435   16.2638  -23.8882 O.3     1  UNL1       -0.4684
     26 C          46.7341   17.4603  -23.4145 C.3     1  UNL1        0.2526
     27 O          45.7902   14.0238  -24.0773 O.3     1  UNL1       -0.4684
     28 C          45.0934   12.8635  -24.5209 C.3     1  UNL1        0.2526
     29 C          47.5864   11.6870  -19.3407 C.3     1  UNL1        0.0169
     30 C          46.1087   11.9375  -19.7105 C.3     1  UNL1        0.0014
     31 C          48.0163   12.7095  -18.2665 C.3     1  UNL1        0.0014
     32 C          49.9362   11.5955  -20.1409 C.1     1  UNL1        0.0752
     33 N          51.0340   11.5594  -19.7753 N.1     1  UNL1       -0.1956
@<TRIPOS>BOND
     1    14    15    1
     2    15     8    1
     3     8     9   ar
     4     9    10   ar
     5    10    11   ar
     6    11     7    1
     7     7     6    1
     8     6     4    1
     9     4     5    1
    10     4     3    1
    11     3     2    1
    12     2     1    1
    13     1    18    1
    14    18    32    1
    15    32    33    3
    16    18    19    1
    17    19    20   ar
    18    20    21   ar
    19    21    22   ar
    20    22    25    1
    21    25    26    1
    22    22    23   ar
    23    23    27    1
    24    27    28    1
    25    23    24   ar
    26    18    29    1
    27    29    30    1
    28    29    31    1
    29    11    12   ar
    30    12    13   ar
    31    13    16    1
    32    16    17    1
    33    13     8   ar
    34    24    19   ar
