@<TRIPOS>MOLECULE
*****
 50 55 0 0 0
SMALL
GASTEIGER

@<TRIPOS>ATOM
      1 O          12.1444   75.0197   23.8798 O.2     1  UNL1       -0.2701
      2 C          11.2984   75.9542   23.9318 C.2     1  UNL1        0.2483
      3 N          11.6254   77.1743   24.6153 N.am    1  UNL1       -0.2945
      4 H          11.0537   78.0275   24.4198 H       1  UNL1        0.1501
      5 C           9.9919   75.7877   23.2559 C.ar    1  UNL1        0.0808
      6 C           9.8868   74.9251   22.1529 C.ar    1  UNL1        0.0080
      7 C           8.6653   74.7540   21.4972 C.ar    1  UNL1        0.0148
      8 C           7.5159   75.4334   21.9370 C.ar    1  UNL1        0.0502
      9 C           7.6186   76.2861   23.0497 C.ar    1  UNL1        0.0443
     10 C           8.8402   76.4597   23.7078 C.ar    1  UNL1        0.1457
     11 F           8.8771   77.2438   24.8144 F       1  UNL1       -0.2040
     12 N           6.2520   75.2618   21.2577 N.pl3   1  UNL1       -0.3040
     13 C           6.0039   74.0626   20.4448 C.3     1  UNL1        0.1123
     14 C           4.5196   73.6818   20.4765 C.3     1  UNL1        0.1136
     15 N           3.6502   74.8350   20.1880 N.pl3   1  UNL1       -0.2897
     16 C           4.2209   76.1896   20.1677 C.3     1  UNL1        0.1136
     17 C           5.2628   76.3508   21.2787 C.3     1  UNL1        0.1123
     18 C           2.2755   74.6330   19.7890 C.ar    1  UNL1        0.1327
     19 C           1.5628   75.6213   19.0917 C.ar    1  UNL1        0.0343
     20 C           0.2374   75.3889   18.7247 C.ar    1  UNL1        0.0091
     21 C          -0.3895   74.1729   19.0460 C.ar    1  UNL1        0.0999
     22 C           0.3616   73.2033   19.7428 C.ar    1  UNL1        0.1436
     23 CL         -0.3178   71.6446   20.1922 Cl      1  UNL1       -0.0613
     24 N           1.6511   73.4601   20.0868 N.ar    1  UNL1       -0.2193
     25 C          -1.8266   73.9126   18.6509 C.3     1  UNL1        0.4208
     26 F          -1.9098   72.7136   17.9665 F       1  UNL1       -0.1658
     27 F          -2.6151   73.8448   19.7851 F       1  UNL1       -0.1658
     28 F          -2.3242   74.9144   17.8352 F       1  UNL1       -0.1658
     29 C          12.8505   77.3151   25.4103 C.3     1  UNL1        0.1535
     30 C          13.8114   78.2676   24.7339 C.2     1  UNL1        0.2443
     31 O          15.0293   77.9539   24.6414 O.2     1  UNL1       -0.2730
     32 N          13.3530   79.4584   24.0728 N.am    1  UNL1       -0.2825
     33 H          13.9373   79.8391   23.2945 H       1  UNL1        0.1549
     34 C          12.0850   80.0786   24.3241 C.ar    1  UNL1        0.0535
     35 C          10.9643   79.6969   23.5773 C.ar    1  UNL1        0.0353
     36 C           9.7347   80.3151   23.8179 C.ar    1  UNL1        0.1002
     37 N           9.6355   81.2939   24.7566 N.ar    1  UNL1       -0.2422
     38 C          10.7140   81.7013   25.4777 C.ar    1  UNL1        0.1002
     39 C          11.9614   81.1091   25.2671 C.ar    1  UNL1        0.0353
     40 C          12.5203   77.8261   26.8229 C.3     1  UNL1        0.0569
     41 C          11.2715   77.1816   27.3489 C.ar    1  UNL1       -0.0017
     42 C          11.1283   75.8630   27.7689 C.ar    1  UNL1        0.0681
     43 N           9.8877   75.6596   28.2687 N.ar    1  UNL1       -0.3523
     44 C           9.2517   76.8408   28.1772 C.ar    1  UNL1        0.0563
     45 C           7.9530   77.1368   28.5894 C.ar    1  UNL1        0.0170
     46 C           7.4939   78.4563   28.4199 C.ar    1  UNL1        0.0015
     47 C           8.3344   79.4396   27.8517 C.ar    1  UNL1        0.0001
     48 C           9.6406   79.1120   27.4465 C.ar    1  UNL1        0.0012
     49 C          10.0656   77.7953   27.6238 C.ar    1  UNL1        0.0131
     50 H           9.5107   74.7687   28.6620 H       1  UNL1        0.1660
@<TRIPOS>BOND
     1     1     2    2
     2     2     3   am
     3     3    29    1
     4    29    40    1
     5    40    41    1
     6    41    42   ar
     7    42    43   ar
     8    43    44   ar
     9    44    45   ar
    10    45    46   ar
    11    46    47   ar
    12    47    48   ar
    13    48    49   ar
    14    29    30    1
    15    30    31    2
    16    30    32   am
    17    32    34    1
    18    34    35   ar
    19    35    36   ar
    20    36    37   ar
    21    37    38   ar
    22    38    39   ar
    23     2     5    1
    24     5     6   ar
    25     6     7   ar
    26     7     8   ar
    27     8    12    1
    28    12    13    1
    29    13    14    1
    30    14    15    1
    31    15    18    1
    32    18    19   ar
    33    19    20   ar
    34    20    21   ar
    35    21    25    1
    36    25    26    1
    37    25    27    1
    38    25    28    1
    39    21    22   ar
    40    22    23    1
    41    22    24   ar
    42    15    16    1
    43    16    17    1
    44     8     9   ar
    45     9    10   ar
    46    10    11    1
    47    49    41   ar
    48    39    34   ar
    49    10     5   ar
    50    49    44   ar
    51    17    12    1
    52    24    18   ar
    53     3     4    1
    54    43    50    1
    55    32    33    1
@<TRIPOS>MOLECULE
*****
 50 55 0 0 0
SMALL
GASTEIGER

@<TRIPOS>ATOM
      1 O           9.1752   74.5089   28.5684 O.2     1  UNL1       -0.2701
      2 C           8.5067   75.5139   28.2010 C.2     1  UNL1        0.2483
      3 N           7.0914   75.5551   28.4419 N.am    1  UNL1       -0.2945
      4 H           6.6017   76.4776   28.3976 H       1  UNL1        0.1501
      5 C           9.2018   76.6508   27.5563 C.ar    1  UNL1        0.0808
      6 C          10.5722   76.8485   27.7903 C.ar    1  UNL1        0.0080
      7 C          11.2490   77.9158   27.1954 C.ar    1  UNL1        0.0148
      8 C          10.5730   78.8050   26.3418 C.ar    1  UNL1        0.0502
      9 C           9.2044   78.5985   26.0969 C.ar    1  UNL1        0.0443
     10 C           8.5242   77.5311   26.6914 C.ar    1  UNL1        0.1457
     11 F           7.2191   77.3353   26.3763 F       1  UNL1       -0.2040
     12 N          11.2697   79.9127   25.7286 N.pl3   1  UNL1       -0.3040
     13 C          10.5300   80.9099   24.9420 C.3     1  UNL1        0.1123
     14 C          11.1907   82.2885   25.0524 C.3     1  UNL1        0.1136
     15 N          12.6395   82.2255   24.7957 N.pl3   1  UNL1       -0.2897
     16 C          13.3113   80.9195   24.7324 C.3     1  UNL1        0.1136
     17 C          12.7388   79.9686   25.7878 C.3     1  UNL1        0.1123
     18 C          13.3774   83.4248   24.4684 C.ar    1  UNL1        0.1327
     19 C          13.6503   84.4036   25.4371 C.ar    1  UNL1        0.0343
     20 C          14.3648   85.5476   25.0819 C.ar    1  UNL1        0.0091
     21 C          14.8149   85.7273   23.7628 C.ar    1  UNL1        0.0999
     22 C          14.5249   84.7190   22.8200 C.ar    1  UNL1        0.1436
     23 CL         15.0427   84.8346   21.1432 Cl      1  UNL1       -0.0613
     24 N          13.8260   83.6160   23.1971 N.ar    1  UNL1       -0.2193
     25 C          15.5913   86.9649   23.3696 C.3     1  UNL1        0.4208
     26 F          15.6970   87.8117   24.4580 F       1  UNL1       -0.1658
     27 F          16.8585   86.6041   22.9489 F       1  UNL1       -0.1658
     28 F          14.9719   87.6541   22.3410 F       1  UNL1       -0.1658
     29 C           6.3554   74.3913   28.9485 C.3     1  UNL1        0.1535
     30 C           5.1835   74.8364   29.7953 C.2     1  UNL1        0.2443
     31 O           4.2106   74.0521   29.9641 O.2     1  UNL1       -0.2730
     32 N           5.2072   76.0743   30.5247 N.am    1  UNL1       -0.2825
     33 H           4.6171   76.1444   31.3844 H       1  UNL1        0.1549
     34 C           6.0852   77.1670   30.2235 C.ar    1  UNL1        0.0535
     35 C           7.2507   77.3502   30.9767 C.ar    1  UNL1        0.0353
     36 C           8.0948   78.4251   30.6867 C.ar    1  UNL1        0.1002
     37 N           7.7732   79.2962   29.6934 N.ar    1  UNL1       -0.2422
     38 C           6.6343   79.1558   28.9638 C.ar    1  UNL1        0.1002
     39 C           5.7632   78.0950   29.2226 C.ar    1  UNL1        0.0353
     40 C           5.8538   73.5219   27.7831 C.3     1  UNL1        0.0569
     41 C           5.9391   74.2658   26.4828 C.ar    1  UNL1       -0.0017
     42 C           6.7746   73.9735   25.4093 C.ar    1  UNL1        0.0681
     43 N           6.5121   74.7982   24.3695 N.ar    1  UNL1       -0.3523
     44 C           5.5117   75.6003   24.7745 C.ar    1  UNL1        0.0563
     45 C           4.8794   76.6018   24.0386 C.ar    1  UNL1        0.0170
     46 C           3.8301   77.3081   24.6555 C.ar    1  UNL1        0.0015
     47 C           3.4388   76.9992   25.9775 C.ar    1  UNL1        0.0001
     48 C           4.0943   75.9826   26.6949 C.ar    1  UNL1        0.0012
     49 C           5.1327   75.3029   26.0580 C.ar    1  UNL1        0.0131
     50 H           6.9814   74.7965   23.4367 H       1  UNL1        0.1660
@<TRIPOS>BOND
     1     1     2    2
     2     2     3   am
     3     3    29    1
     4    29    40    1
     5    40    41    1
     6    41    42   ar
     7    42    43   ar
     8    43    44   ar
     9    44    45   ar
    10    45    46   ar
    11    46    47   ar
    12    47    48   ar
    13    48    49   ar
    14    29    30    1
    15    30    31    2
    16    30    32   am
    17    32    34    1
    18    34    35   ar
    19    35    36   ar
    20    36    37   ar
    21    37    38   ar
    22    38    39   ar
    23     2     5    1
    24     5     6   ar
    25     6     7   ar
    26     7     8   ar
    27     8    12    1
    28    12    13    1
    29    13    14    1
    30    14    15    1
    31    15    18    1
    32    18    19   ar
    33    19    20   ar
    34    20    21   ar
    35    21    25    1
    36    25    26    1
    37    25    27    1
    38    25    28    1
    39    21    22   ar
    40    22    23    1
    41    22    24   ar
    42    15    16    1
    43    16    17    1
    44     8     9   ar
    45     9    10   ar
    46    10    11    1
    47    49    41   ar
    48    39    34   ar
    49    10     5   ar
    50    49    44   ar
    51    17    12    1
    52    24    18   ar
    53     3     4    1
    54    43    50    1
    55    32    33    1
@<TRIPOS>MOLECULE
*****
 50 55 0 0 0
SMALL
GASTEIGER

@<TRIPOS>ATOM
      1 O          14.4595   83.1073   23.8773 O.2     1  UNL1       -0.2701
      2 C          13.2842   83.3162   24.2857 C.2     1  UNL1        0.2483
      3 N          12.7364   84.6427   24.2320 N.am    1  UNL1       -0.2945
      4 H          11.6999   84.7604   24.3005 H       1  UNL1        0.1501
      5 C          12.4770   82.1795   24.7834 C.ar    1  UNL1        0.0808
      6 C          11.0973   82.3448   24.9856 C.ar    1  UNL1        0.0080
      7 C          10.3154   81.2877   25.4572 C.ar    1  UNL1        0.0148
      8 C          10.8937   80.0351   25.7269 C.ar    1  UNL1        0.0502
      9 C          12.2723   79.8661   25.5112 C.ar    1  UNL1        0.0443
     10 C          13.0575   80.9227   25.0395 C.ar    1  UNL1        0.1457
     11 F          14.3709   80.6947   24.7872 F       1  UNL1       -0.2040
     12 N          10.0880   78.9410   26.2194 N.pl3   1  UNL1       -0.3040
     13 C          10.5061   78.1905   27.4120 C.3     1  UNL1        0.1123
     14 C           9.2868   77.6840   28.1906 C.3     1  UNL1        0.1136
     15 N           8.3221   76.9976   27.3149 N.pl3   1  UNL1       -0.2897
     16 C           8.4694   77.0913   25.8553 C.3     1  UNL1        0.1136
     17 C           8.9149   78.4992   25.4490 C.3     1  UNL1        0.1123
     18 C           7.3182   76.1221   27.8767 C.ar    1  UNL1        0.1327
     19 C           6.8427   75.0056   27.1709 C.ar    1  UNL1        0.0343
     20 C           5.8731   74.1850   27.7469 C.ar    1  UNL1        0.0091
     21 C           5.3697   74.4661   29.0285 C.ar    1  UNL1        0.0999
     22 C           5.8764   75.5940   29.7074 C.ar    1  UNL1        0.1436
     23 CL          5.3241   76.0385   31.3169 Cl      1  UNL1       -0.0613
     24 N           6.8208   76.3744   29.1189 N.ar    1  UNL1       -0.2193
     25 C           4.3184   73.5805   29.6608 C.3     1  UNL1        0.4208
     26 F           4.7935   73.0792   30.8591 F       1  UNL1       -0.1658
     27 F           3.1722   74.3173   29.8982 F       1  UNL1       -0.1658
     28 F           3.9873   72.5133   28.8436 F       1  UNL1       -0.1658
     29 C          13.5550   85.8076   23.8776 C.3     1  UNL1        0.1535
     30 C          12.6840   86.9182   23.3335 C.2     1  UNL1        0.2443
     31 O          12.0281   87.6375   24.1351 O.2     1  UNL1       -0.2730
     32 N          12.6878   87.2652   21.9390 N.am    1  UNL1       -0.2825
     33 H          12.4338   88.2454   21.6802 H       1  UNL1        0.1549
     34 C          13.1435   86.3934   20.8959 C.ar    1  UNL1        0.0535
     35 C          14.3298   85.6697   21.0636 C.ar    1  UNL1        0.0353
     36 C          14.7752   84.8325   20.0376 C.ar    1  UNL1        0.1002
     37 N          14.0702   84.7395   18.8786 N.ar    1  UNL1       -0.2422
     38 C          12.9287   85.4512   18.6801 C.ar    1  UNL1        0.1002
     39 C          12.4498   86.3002   19.6807 C.ar    1  UNL1        0.0353
     40 C          14.3341   86.3118   25.1042 C.3     1  UNL1        0.0569
     41 C          15.6722   86.8593   24.7025 C.ar    1  UNL1       -0.0017
     42 C          16.3162   86.6734   23.4833 C.ar    1  UNL1        0.0681
     43 N          17.4619   87.3917   23.4411 N.ar    1  UNL1       -0.3523
     44 C          17.5400   88.0367   24.6184 C.ar    1  UNL1        0.0563
     45 C          18.5348   88.9206   25.0346 C.ar    1  UNL1        0.0170
     46 C          18.4037   89.5060   26.3076 C.ar    1  UNL1        0.0015
     47 C          17.2927   89.2008   27.1253 C.ar    1  UNL1        0.0001
     48 C          16.3039   88.3063   26.6781 C.ar    1  UNL1        0.0012
     49 C          16.4635   87.7395   25.4136 C.ar    1  UNL1        0.0131
     50 H          18.1366   87.4457   22.6458 H       1  UNL1        0.1660
@<TRIPOS>BOND
     1     1     2    2
     2     2     3   am
     3     3    29    1
     4    29    40    1
     5    40    41    1
     6    41    42   ar
     7    42    43   ar
     8    43    44   ar
     9    44    45   ar
    10    45    46   ar
    11    46    47   ar
    12    47    48   ar
    13    48    49   ar
    14    29    30    1
    15    30    31    2
    16    30    32   am
    17    32    34    1
    18    34    35   ar
    19    35    36   ar
    20    36    37   ar
    21    37    38   ar
    22    38    39   ar
    23     2     5    1
    24     5     6   ar
    25     6     7   ar
    26     7     8   ar
    27     8    12    1
    28    12    13    1
    29    13    14    1
    30    14    15    1
    31    15    18    1
    32    18    19   ar
    33    19    20   ar
    34    20    21   ar
    35    21    25    1
    36    25    26    1
    37    25    27    1
    38    25    28    1
    39    21    22   ar
    40    22    23    1
    41    22    24   ar
    42    15    16    1
    43    16    17    1
    44     8     9   ar
    45     9    10   ar
    46    10    11    1
    47    49    41   ar
    48    39    34   ar
    49    10     5   ar
    50    49    44   ar
    51    17    12    1
    52    24    18   ar
    53     3     4    1
    54    43    50    1
    55    32    33    1
@<TRIPOS>MOLECULE
*****
 50 55 0 0 0
SMALL
GASTEIGER

@<TRIPOS>ATOM
      1 O          10.3769   77.1059   26.3228 O.2     1  UNL1       -0.2701
      2 C           9.2237   77.6071   26.4261 C.2     1  UNL1        0.2483
      3 N           8.9555   78.5713   27.4562 N.am    1  UNL1       -0.2945
      4 H           8.1096   79.1791   27.3663 H       1  UNL1        0.1501
      5 C           8.1737   77.2155   25.4588 C.ar    1  UNL1        0.0808
      6 C           8.5070   77.0429   24.1057 C.ar    1  UNL1        0.0080
      7 C           7.5329   76.6764   23.1740 C.ar    1  UNL1        0.0148
      8 C           6.2030   76.4622   23.5761 C.ar    1  UNL1        0.0502
      9 C           5.8728   76.6217   24.9330 C.ar    1  UNL1        0.0443
     10 C           6.8458   76.9889   25.8679 C.ar    1  UNL1        0.1457
     11 F           6.4934   77.0698   27.1755 F       1  UNL1       -0.2040
     12 N           5.1923   76.0876   22.6135 N.pl3   1  UNL1       -0.3040
     13 C           5.4678   75.0419   21.6180 C.3     1  UNL1        0.1123
     14 C           4.1878   74.2759   21.2657 C.3     1  UNL1        0.1136
     15 N           3.0756   75.1848   20.9401 N.pl3   1  UNL1       -0.2897
     16 C           3.2031   76.6216   21.2236 C.3     1  UNL1        0.1136
     17 C           3.9325   76.8450   22.5517 C.3     1  UNL1        0.1123
     18 C           1.9205   74.6986   20.2195 C.ar    1  UNL1        0.1327
     19 C           1.2756   75.4866   19.2531 C.ar    1  UNL1        0.0343
     20 C           0.1633   74.9820   18.5795 C.ar    1  UNL1        0.0091
     21 C          -0.3157   73.6909   18.8595 C.ar    1  UNL1        0.0999
     22 C           0.3626   72.9286   19.8334 C.ar    1  UNL1        0.1436
     23 CL         -0.1443   71.2997   20.2608 Cl      1  UNL1       -0.0613
     24 N           1.4433   73.4487   20.4728 N.ar    1  UNL1       -0.2193
     25 C          -1.5210   73.1358   18.1327 C.3     1  UNL1        0.4208
     26 F          -1.4286   71.7575   18.0661 F       1  UNL1       -0.1658
     27 F          -2.6740   73.4822   18.8137 F       1  UNL1       -0.1658
     28 F          -1.6141   73.6284   16.8423 F       1  UNL1       -0.1658
     29 C           9.9298   78.8728   28.5109 C.3     1  UNL1        0.1535
     30 C          10.1479   80.3660   28.6160 C.2     1  UNL1        0.2443
     31 O           9.9290   80.9462   29.7140 O.2     1  UNL1       -0.2730
     32 N          10.7276   81.1212   27.5396 N.am    1  UNL1       -0.2825
     33 H          11.2369   82.0013   27.7809 H       1  UNL1        0.1549
     34 C          10.7653   80.6774   26.1767 C.ar    1  UNL1        0.0535
     35 C          11.8692   79.9532   25.7116 C.ar    1  UNL1        0.0353
     36 C          11.9056   79.5357   24.3788 C.ar    1  UNL1        0.1002
     37 N          10.8844   79.8498   23.5376 N.ar    1  UNL1       -0.2422
     38 C           9.8128   80.5741   23.9573 C.ar    1  UNL1        0.1002
     39 C           9.7384   81.0111   25.2819 C.ar    1  UNL1        0.0353
     40 C           9.4476   78.3217   29.8634 C.3     1  UNL1        0.0569
     41 C           8.7995   76.9788   29.6958 C.ar    1  UNL1       -0.0017
     42 C           9.4138   75.8047   29.2715 C.ar    1  UNL1        0.0681
     43 N           8.5445   74.7698   29.3308 N.ar    1  UNL1       -0.3523
     44 C           7.3913   75.2792   29.7987 C.ar    1  UNL1        0.0563
     45 C           6.2054   74.5924   30.0555 C.ar    1  UNL1        0.0170
     46 C           5.1197   75.3248   30.5707 C.ar    1  UNL1        0.0015
     47 C           5.2431   76.7104   30.8175 C.ar    1  UNL1        0.0001
     48 C           6.4526   77.3763   30.5500 C.ar    1  UNL1        0.0012
     49 C           7.5093   76.6243   30.0365 C.ar    1  UNL1        0.0131
     50 H           8.7393   73.7749   29.0805 H       1  UNL1        0.1660
@<TRIPOS>BOND
     1     1     2    2
     2     2     3   am
     3     3    29    1
     4    29    40    1
     5    40    41    1
     6    41    42   ar
     7    42    43   ar
     8    43    44   ar
     9    44    45   ar
    10    45    46   ar
    11    46    47   ar
    12    47    48   ar
    13    48    49   ar
    14    29    30    1
    15    30    31    2
    16    30    32   am
    17    32    34    1
    18    34    35   ar
    19    35    36   ar
    20    36    37   ar
    21    37    38   ar
    22    38    39   ar
    23     2     5    1
    24     5     6   ar
    25     6     7   ar
    26     7     8   ar
    27     8    12    1
    28    12    13    1
    29    13    14    1
    30    14    15    1
    31    15    18    1
    32    18    19   ar
    33    19    20   ar
    34    20    21   ar
    35    21    25    1
    36    25    26    1
    37    25    27    1
    38    25    28    1
    39    21    22   ar
    40    22    23    1
    41    22    24   ar
    42    15    16    1
    43    16    17    1
    44     8     9   ar
    45     9    10   ar
    46    10    11    1
    47    49    41   ar
    48    39    34   ar
    49    10     5   ar
    50    49    44   ar
    51    17    12    1
    52    24    18   ar
    53     3     4    1
    54    43    50    1
    55    32    33    1
@<TRIPOS>MOLECULE
*****
 50 55 0 0 0
SMALL
GASTEIGER

@<TRIPOS>ATOM
      1 O           9.2034   74.4475   28.3510 O.2     1  UNL1       -0.2701
      2 C           8.5846   75.5354   28.1911 C.2     1  UNL1        0.2483
      3 N           7.2352   75.6640   28.6658 N.am    1  UNL1       -0.2945
      4 H           6.8351   76.6223   28.7862 H       1  UNL1        0.1501
      5 C           9.2753   76.6741   27.5447 C.ar    1  UNL1        0.0808
      6 C          10.6481   76.8690   27.7669 C.ar    1  UNL1        0.0080
      7 C          11.3208   77.9379   27.1702 C.ar    1  UNL1        0.0148
      8 C          10.6381   78.8315   26.3267 C.ar    1  UNL1        0.0502
      9 C           9.2671   78.6279   26.0936 C.ar    1  UNL1        0.0443
     10 C           8.5909   77.5589   26.6899 C.ar    1  UNL1        0.1457
     11 F           7.2827   77.3662   26.3861 F       1  UNL1       -0.2040
     12 N          11.3306   79.9410   25.7118 N.pl3   1  UNL1       -0.3040
     13 C          10.5900   80.9235   24.9078 C.3     1  UNL1        0.1123
     14 C          11.2353   82.3097   25.0135 C.3     1  UNL1        0.1136
     15 N          12.6876   82.2594   24.7742 N.pl3   1  UNL1       -0.2897
     16 C          13.3734   80.9599   24.7304 C.3     1  UNL1        0.1136
     17 C          12.7983   80.0125   25.7876 C.3     1  UNL1        0.1123
     18 C          13.4169   83.4633   24.4448 C.ar    1  UNL1        0.1327
     19 C          13.6839   84.4452   25.4120 C.ar    1  UNL1        0.0343
     20 C          14.3903   85.5936   25.0548 C.ar    1  UNL1        0.0091
     21 C          14.8381   85.7747   23.7351 C.ar    1  UNL1        0.0999
     22 C          14.5543   84.7632   22.7938 C.ar    1  UNL1        0.1436
     23 CL         15.0700   84.8803   21.1165 Cl      1  UNL1       -0.0613
     24 N          13.8633   83.6559   23.1729 N.ar    1  UNL1       -0.2193
     25 C          15.6056   87.0171   23.3397 C.3     1  UNL1        0.4208
     26 F          15.6504   87.8946   24.4079 F       1  UNL1       -0.1658
     27 F          16.8957   86.6714   22.9804 F       1  UNL1       -0.1658
     28 F          15.0155   87.6658   22.2684 F       1  UNL1       -0.1658
     29 C           6.4801   74.5163   29.1808 C.3     1  UNL1        0.1535
     30 C           5.3740   74.9831   30.1011 C.2     1  UNL1        0.2443
     31 O           4.4298   74.1954   30.3807 O.2     1  UNL1       -0.2730
     32 N           5.4380   76.2508   30.7747 N.am    1  UNL1       -0.2825
     33 H           4.9184   76.3504   31.6760 H       1  UNL1        0.1549
     34 C           6.2723   77.3400   30.3583 C.ar    1  UNL1        0.0535
     35 C           7.4713   77.5950   31.0341 C.ar    1  UNL1        0.0353
     36 C           8.2728   78.6663   30.6319 C.ar    1  UNL1        0.1002
     37 N           7.8782   79.4654   29.6049 N.ar    1  UNL1       -0.2422
     38 C           6.7060   79.2553   28.9486 C.ar    1  UNL1        0.1002
     39 C           5.8756   78.1953   29.3203 C.ar    1  UNL1        0.0353
     40 C           5.8823   73.7007   28.0219 C.3     1  UNL1        0.0569
     41 C           5.4338   74.6001   26.9077 C.ar    1  UNL1       -0.0017
     42 C           4.4972   75.6256   26.9909 C.ar    1  UNL1        0.0681
     43 N           4.4143   76.2850   25.8124 N.ar    1  UNL1       -0.3523
     44 C           5.2978   75.6910   24.9910 C.ar    1  UNL1        0.0563
     45 C           5.5909   76.0353   23.6721 C.ar    1  UNL1        0.0170
     46 C           6.5765   75.2879   23.0008 C.ar    1  UNL1        0.0015
     47 C           7.2414   74.2274   23.6562 C.ar    1  UNL1        0.0001
     48 C           6.9256   73.9039   24.9878 C.ar    1  UNL1        0.0012
     49 C           5.9420   74.6603   25.6253 C.ar    1  UNL1        0.0131
     50 H           3.8004   77.1013   25.5950 H       1  UNL1        0.1660
@<TRIPOS>BOND
     1     1     2    2
     2     2     3   am
     3     3    29    1
     4    29    40    1
     5    40    41    1
     6    41    42   ar
     7    42    43   ar
     8    43    44   ar
     9    44    45   ar
    10    45    46   ar
    11    46    47   ar
    12    47    48   ar
    13    48    49   ar
    14    29    30    1
    15    30    31    2
    16    30    32   am
    17    32    34    1
    18    34    35   ar
    19    35    36   ar
    20    36    37   ar
    21    37    38   ar
    22    38    39   ar
    23     2     5    1
    24     5     6   ar
    25     6     7   ar
    26     7     8   ar
    27     8    12    1
    28    12    13    1
    29    13    14    1
    30    14    15    1
    31    15    18    1
    32    18    19   ar
    33    19    20   ar
    34    20    21   ar
    35    21    25    1
    36    25    26    1
    37    25    27    1
    38    25    28    1
    39    21    22   ar
    40    22    23    1
    41    22    24   ar
    42    15    16    1
    43    16    17    1
    44     8     9   ar
    45     9    10   ar
    46    10    11    1
    47    49    41   ar
    48    39    34   ar
    49    10     5   ar
    50    49    44   ar
    51    17    12    1
    52    24    18   ar
    53     3     4    1
    54    43    50    1
    55    32    33    1
@<TRIPOS>MOLECULE
*****
 50 55 0 0 0
SMALL
GASTEIGER

@<TRIPOS>ATOM
      1 O          14.3341   83.7001   25.5850 O.2     1  UNL1       -0.2701
      2 C          13.5049   83.2744   24.7347 C.2     1  UNL1        0.2483
      3 N          13.4033   83.9175   23.4545 N.am    1  UNL1       -0.2945
      4 H          12.9363   83.4056   22.6717 H       1  UNL1        0.1501
      5 C          12.6728   82.0944   25.0612 C.ar    1  UNL1        0.0808
      6 C          11.3047   82.2633   25.3284 C.ar    1  UNL1        0.0080
      7 C          10.5000   81.1653   25.6417 C.ar    1  UNL1        0.0148
      8 C          11.0428   79.8693   25.6836 C.ar    1  UNL1        0.0502
      9 C          12.4094   79.6991   25.4025 C.ar    1  UNL1        0.0443
     10 C          13.2175   80.7965   25.0890 C.ar    1  UNL1        0.1457
     11 F          14.5162   80.5760   24.7640 F       1  UNL1       -0.2040
     12 N          10.2136   78.7321   26.0119 N.pl3   1  UNL1       -0.3040
     13 C          10.7264   77.6686   26.8874 C.3     1  UNL1        0.1123
     14 C           9.5914   77.0447   27.7070 C.3     1  UNL1        0.1136
     15 N           8.4438   76.6729   26.8621 N.pl3   1  UNL1       -0.2897
     16 C           8.3820   77.1426   25.4706 C.3     1  UNL1        0.1136
     17 C           8.9011   78.5797   25.3646 C.3     1  UNL1        0.1123
     18 C           7.4517   75.7390   27.3454 C.ar    1  UNL1        0.1327
     19 C           7.0359   74.6457   26.5691 C.ar    1  UNL1        0.0343
     20 C           6.0757   73.7670   27.0704 C.ar    1  UNL1        0.0091
     21 C           5.5226   73.9666   28.3468 C.ar    1  UNL1        0.0999
     22 C           5.9700   75.0736   29.0979 C.ar    1  UNL1        0.1436
     23 CL          5.3522   75.4180   30.7081 Cl      1  UNL1       -0.0613
     24 N           6.9067   75.9121   28.5812 N.ar    1  UNL1       -0.2193
     25 C           4.4812   73.0177   28.8983 C.3     1  UNL1        0.4208
     26 F           4.4862   73.0752   30.2802 F       1  UNL1       -0.1658
     27 F           3.2302   73.3794   28.4323 F       1  UNL1       -0.1658
     28 F           4.7253   71.7095   28.5166 F       1  UNL1       -0.1658
     29 C          14.1098   85.1681   23.1550 C.3     1  UNL1        0.1535
     30 C          15.2296   84.9179   22.1692 C.2     1  UNL1        0.2443
     31 O          15.2745   83.8195   21.5515 O.2     1  UNL1       -0.2730
     32 N          16.1667   85.9481   21.8150 N.am    1  UNL1       -0.2825
     33 H          16.6230   85.8898   20.8766 H       1  UNL1        0.1549
     34 C          16.4146   87.1157   22.6093 C.ar    1  UNL1        0.0535
     35 C          16.0022   88.3711   22.1474 C.ar    1  UNL1        0.0353
     36 C          16.2592   89.5063   22.9201 C.ar    1  UNL1        0.1002
     37 N          16.9229   89.3915   24.1013 N.ar    1  UNL1       -0.2422
     38 C          17.3569   88.1874   24.5605 C.ar    1  UNL1        0.1002
     39 C          17.1208   87.0283   23.8177 C.ar    1  UNL1        0.0353
     40 C          13.1370   86.2127   22.5823 C.3     1  UNL1        0.0569
     41 C          13.0850   87.4328   23.4541 C.ar    1  UNL1       -0.0017
     42 C          12.4425   88.6335   23.1688 C.ar    1  UNL1        0.0681
     43 N          12.5261   89.4753   24.2246 N.ar    1  UNL1       -0.3523
     44 C          13.2062   88.8119   25.1762 C.ar    1  UNL1        0.0563
     45 C          13.5232   89.2602   26.4579 C.ar    1  UNL1        0.0170
     46 C          14.2260   88.3840   27.3059 C.ar    1  UNL1        0.0015
     47 C          14.5892   87.0935   26.8601 C.ar    1  UNL1        0.0001
     48 C          14.2544   86.6682   25.5621 C.ar    1  UNL1        0.0012
     49 C          13.5611   87.5602   24.7439 C.ar    1  UNL1        0.0131
     50 H          12.1259   90.4376   24.2897 H       1  UNL1        0.1660
@<TRIPOS>BOND
     1     1     2    2
     2     2     3   am
     3     3    29    1
     4    29    40    1
     5    40    41    1
     6    41    42   ar
     7    42    43   ar
     8    43    44   ar
     9    44    45   ar
    10    45    46   ar
    11    46    47   ar
    12    47    48   ar
    13    48    49   ar
    14    29    30    1
    15    30    31    2
    16    30    32   am
    17    32    34    1
    18    34    35   ar
    19    35    36   ar
    20    36    37   ar
    21    37    38   ar
    22    38    39   ar
    23     2     5    1
    24     5     6   ar
    25     6     7   ar
    26     7     8   ar
    27     8    12    1
    28    12    13    1
    29    13    14    1
    30    14    15    1
    31    15    18    1
    32    18    19   ar
    33    19    20   ar
    34    20    21   ar
    35    21    25    1
    36    25    26    1
    37    25    27    1
    38    25    28    1
    39    21    22   ar
    40    22    23    1
    41    22    24   ar
    42    15    16    1
    43    16    17    1
    44     8     9   ar
    45     9    10   ar
    46    10    11    1
    47    49    41   ar
    48    39    34   ar
    49    10     5   ar
    50    49    44   ar
    51    17    12    1
    52    24    18   ar
    53     3     4    1
    54    43    50    1
    55    32    33    1
@<TRIPOS>MOLECULE
*****
 50 55 0 0 0
SMALL
GASTEIGER

@<TRIPOS>ATOM
      1 O          14.8917   81.9889   24.5181 O.2     1  UNL1       -0.2701
      2 C          13.6916   82.3581   24.3951 C.2     1  UNL1        0.2483
      3 N          13.3965   83.6476   23.8359 N.am    1  UNL1       -0.2945
      4 H          12.4305   83.8312   23.4808 H       1  UNL1        0.1501
      5 C          12.6049   81.4379   24.7999 C.ar    1  UNL1        0.0808
      6 C          11.3391   81.9567   25.1167 C.ar    1  UNL1        0.0080
      7 C          10.2990   81.1085   25.5040 C.ar    1  UNL1        0.0148
      8 C          10.4972   79.7184   25.5724 C.ar    1  UNL1        0.0502
      9 C          11.7606   79.1985   25.2418 C.ar    1  UNL1        0.0443
     10 C          12.8038   80.0452   24.8541 C.ar    1  UNL1        0.1457
     11 F          13.9865   79.4928   24.4844 F       1  UNL1       -0.2040
     12 N           9.4243   78.8390   25.9773 N.pl3   1  UNL1       -0.3040
     13 C           8.7807   77.9539   24.9961 C.3     1  UNL1        0.1123
     14 C           8.3049   76.6583   25.6626 C.3     1  UNL1        0.1136
     15 N           7.5269   76.9228   26.8848 N.pl3   1  UNL1       -0.2897
     16 C           7.5099   78.2764   27.4580 C.3     1  UNL1        0.1136
     17 C           8.8929   78.9249   27.3466 C.3     1  UNL1        0.1123
     18 C           6.6719   75.8997   27.4435 C.ar    1  UNL1        0.1327
     19 C           6.7451   74.5668   27.0090 C.ar    1  UNL1        0.0343
     20 C           5.9026   73.6086   27.5723 C.ar    1  UNL1        0.0091
     21 C           4.9824   73.9666   28.5724 C.ar    1  UNL1        0.0999
     22 C           4.9428   75.3147   28.9854 C.ar    1  UNL1        0.1436
     23 CL          3.8361   75.8751   30.2320 Cl      1  UNL1       -0.0613
     24 N           5.7766   76.2250   28.4166 N.ar    1  UNL1       -0.2193
     25 C           4.0655   72.9331   29.1891 C.3     1  UNL1        0.4208
     26 F           2.7545   73.2147   28.8504 F       1  UNL1       -0.1658
     27 F           4.3978   71.6764   28.7166 F       1  UNL1       -0.1658
     28 F           4.1643   72.9181   30.5699 F       1  UNL1       -0.1658
     29 C          14.4476   84.6327   23.5575 C.3     1  UNL1        0.1535
     30 C          15.0322   84.4053   22.1810 C.2     1  UNL1        0.2443
     31 O          15.8538   83.4647   22.0067 O.2     1  UNL1       -0.2730
     32 N          14.5753   85.1439   21.0361 N.am    1  UNL1       -0.2825
     33 H          14.6710   84.6953   20.0970 H       1  UNL1        0.1549
     34 C          13.8793   86.3951   21.1133 C.ar    1  UNL1        0.0535
     35 C          12.4815   86.4185   21.0442 C.ar    1  UNL1        0.0353
     36 C          11.8105   87.6423   21.1063 C.ar    1  UNL1        0.1002
     37 N          12.5138   88.8012   21.2123 N.ar    1  UNL1       -0.2422
     38 C          13.8729   88.8083   21.2554 C.ar    1  UNL1        0.1002
     39 C          14.5817   87.6061   21.1954 C.ar    1  UNL1        0.0353
     40 C          13.8864   86.0614   23.6541 C.3     1  UNL1        0.0569
     41 C          14.6192   86.8571   24.6941 C.ar    1  UNL1       -0.0017
     42 C          14.1915   87.1277   25.9900 C.ar    1  UNL1        0.0681
     43 N          15.1511   87.7923   26.6740 N.ar    1  UNL1       -0.3523
     44 C          16.1834   87.9333   25.8240 C.ar    1  UNL1        0.0563
     45 C          17.4153   88.5338   26.0811 C.ar    1  UNL1        0.0170
     46 C          18.3683   88.5492   25.0457 C.ar    1  UNL1        0.0015
     47 C          18.0732   87.9682   23.7921 C.ar    1  UNL1        0.0001
     48 C          16.8223   87.3682   23.5622 C.ar    1  UNL1        0.0012
     49 C          15.8973   87.3718   24.6064 C.ar    1  UNL1        0.0131
     50 H          15.1026   88.1126   27.6667 H       1  UNL1        0.1660
@<TRIPOS>BOND
     1     1     2    2
     2     2     3   am
     3     3    29    1
     4    29    40    1
     5    40    41    1
     6    41    42   ar
     7    42    43   ar
     8    43    44   ar
     9    44    45   ar
    10    45    46   ar
    11    46    47   ar
    12    47    48   ar
    13    48    49   ar
    14    29    30    1
    15    30    31    2
    16    30    32   am
    17    32    34    1
    18    34    35   ar
    19    35    36   ar
    20    36    37   ar
    21    37    38   ar
    22    38    39   ar
    23     2     5    1
    24     5     6   ar
    25     6     7   ar
    26     7     8   ar
    27     8    12    1
    28    12    13    1
    29    13    14    1
    30    14    15    1
    31    15    18    1
    32    18    19   ar
    33    19    20   ar
    34    20    21   ar
    35    21    25    1
    36    25    26    1
    37    25    27    1
    38    25    28    1
    39    21    22   ar
    40    22    23    1
    41    22    24   ar
    42    15    16    1
    43    16    17    1
    44     8     9   ar
    45     9    10   ar
    46    10    11    1
    47    49    41   ar
    48    39    34   ar
    49    10     5   ar
    50    49    44   ar
    51    17    12    1
    52    24    18   ar
    53     3     4    1
    54    43    50    1
    55    32    33    1
@<TRIPOS>MOLECULE
*****
 50 55 0 0 0
SMALL
GASTEIGER

@<TRIPOS>ATOM
      1 O          11.3681   77.6021   24.1979 O.2     1  UNL1       -0.2701
      2 C          10.2990   78.2718   24.1785 C.2     1  UNL1        0.2483
      3 N          10.2401   79.5397   24.8507 N.am    1  UNL1       -0.2945
      4 H           9.4721   80.2039   24.6022 H       1  UNL1        0.1501
      5 C           9.1312   77.7518   23.4321 C.ar    1  UNL1        0.0808
      6 C           8.3602   76.7164   23.9846 C.ar    1  UNL1        0.0080
      7 C           7.2554   76.2074   23.2977 C.ar    1  UNL1        0.0148
      8 C           6.8882   76.7307   22.0457 C.ar    1  UNL1        0.0502
      9 C           7.6521   77.7765   21.4995 C.ar    1  UNL1        0.0443
     10 C           8.7588   78.2877   22.1846 C.ar    1  UNL1        0.1457
     11 F           9.4279   79.3385   21.6471 F       1  UNL1       -0.2040
     12 N           5.7485   76.2029   21.3308 N.pl3   1  UNL1       -0.3040
     13 C           5.5297   74.7515   21.2523 C.3     1  UNL1        0.1123
     14 C           4.0323   74.4300   21.1913 C.3     1  UNL1        0.1136
     15 N           3.3393   75.2324   20.1692 N.pl3   1  UNL1       -0.2897
     16 C           4.0318   76.3674   19.5421 C.3     1  UNL1        0.1136
     17 C           4.8789   77.1174   20.5744 C.3     1  UNL1        0.1123
     18 C           2.0401   74.8295   19.6796 C.ar    1  UNL1        0.1327
     19 C           1.2858   75.6601   18.8358 C.ar    1  UNL1        0.0343
     20 C           0.0360   75.2358   18.3850 C.ar    1  UNL1        0.0091
     21 C          -0.4732   73.9830   18.7673 C.ar    1  UNL1        0.0999
     22 C           0.3169   73.1756   19.6119 C.ar    1  UNL1        0.1436
     23 CL         -0.2164   71.5883   20.1494 Cl      1  UNL1       -0.0613
     24 N           1.5306   73.6177   20.0348 N.ar    1  UNL1       -0.2193
     25 C          -1.8277   73.5150   18.2820 C.3     1  UNL1        0.4208
     26 F          -2.1377   74.1468   17.0913 F       1  UNL1       -0.1658
     27 F          -1.8007   72.1473   18.0779 F       1  UNL1       -0.1658
     28 F          -2.8268   73.7979   19.1975 F       1  UNL1       -0.1658
     29 C          11.3293   80.0137   25.7119 C.3     1  UNL1        0.1535
     30 C          12.0188   81.2041   25.0829 C.2     1  UNL1        0.2443
     31 O          11.3592   82.2570   24.8675 O.2     1  UNL1       -0.2730
     32 N          13.4366   81.2174   24.8484 N.am    1  UNL1       -0.2825
     33 H          13.9177   82.1448   24.8248 H       1  UNL1        0.1549
     34 C          14.2496   80.0386   24.7769 C.ar    1  UNL1        0.0535
     35 C          15.4194   80.0465   24.0083 C.ar    1  UNL1        0.0353
     36 C          16.1998   78.8902   23.9320 C.ar    1  UNL1        0.1002
     37 N          15.8121   77.7616   24.5839 N.ar    1  UNL1       -0.2422
     38 C          14.6672   77.7194   25.3161 C.ar    1  UNL1        0.1002
     39 C          13.8585   78.8539   25.4173 C.ar    1  UNL1        0.0353
     40 C          10.7899   80.3993   27.0998 C.3     1  UNL1        0.0569
     41 C           9.7745   79.4030   27.5770 C.ar    1  UNL1       -0.0017
     42 C           8.4223   79.6366   27.8062 C.ar    1  UNL1        0.0681
     43 N           7.7947   78.4853   28.1391 N.ar    1  UNL1       -0.3523
     44 C           8.7373   77.5266   28.1112 C.ar    1  UNL1        0.0563
     45 C           8.5673   76.1653   28.3605 C.ar    1  UNL1        0.0170
     46 C           9.6951   75.3308   28.2506 C.ar    1  UNL1        0.0015
     47 C          10.9523   75.8689   27.8952 C.ar    1  UNL1        0.0001
     48 C          11.0931   77.2461   27.6482 C.ar    1  UNL1        0.0012
     49 C           9.9581   78.0480   27.7687 C.ar    1  UNL1        0.0131
     50 H           6.7799   78.3665   28.3550 H       1  UNL1        0.1660
@<TRIPOS>BOND
     1     1     2    2
     2     2     3   am
     3     3    29    1
     4    29    40    1
     5    40    41    1
     6    41    42   ar
     7    42    43   ar
     8    43    44   ar
     9    44    45   ar
    10    45    46   ar
    11    46    47   ar
    12    47    48   ar
    13    48    49   ar
    14    29    30    1
    15    30    31    2
    16    30    32   am
    17    32    34    1
    18    34    35   ar
    19    35    36   ar
    20    36    37   ar
    21    37    38   ar
    22    38    39   ar
    23     2     5    1
    24     5     6   ar
    25     6     7   ar
    26     7     8   ar
    27     8    12    1
    28    12    13    1
    29    13    14    1
    30    14    15    1
    31    15    18    1
    32    18    19   ar
    33    19    20   ar
    34    20    21   ar
    35    21    25    1
    36    25    26    1
    37    25    27    1
    38    25    28    1
    39    21    22   ar
    40    22    23    1
    41    22    24   ar
    42    15    16    1
    43    16    17    1
    44     8     9   ar
    45     9    10   ar
    46    10    11    1
    47    49    41   ar
    48    39    34   ar
    49    10     5   ar
    50    49    44   ar
    51    17    12    1
    52    24    18   ar
    53     3     4    1
    54    43    50    1
    55    32    33    1
@<TRIPOS>MOLECULE
*****
 50 55 0 0 0
SMALL
GASTEIGER

@<TRIPOS>ATOM
      1 O          14.5524   82.6669   23.9729 O.2     1  UNL1       -0.2701
      2 C          13.3623   82.9044   24.3181 C.2     1  UNL1        0.2483
      3 N          12.8453   84.2407   24.2201 N.am    1  UNL1       -0.2945
      4 H          11.8092   84.3799   24.2341 H       1  UNL1        0.1501
      5 C          12.5077   81.7907   24.7877 C.ar    1  UNL1        0.0808
      6 C          11.1389   82.0128   25.0091 C.ar    1  UNL1        0.0080
      7 C          10.3131   80.9781   25.4549 C.ar    1  UNL1        0.0148
      8 C          10.8350   79.6922   25.6789 C.ar    1  UNL1        0.0502
      9 C          12.2024   79.4670   25.4439 C.ar    1  UNL1        0.0443
     10 C          13.0316   80.5010   24.9980 C.ar    1  UNL1        0.1457
     11 F          14.3308   80.2210   24.7253 F       1  UNL1       -0.2040
     12 N           9.9839   78.6211   26.1445 N.pl3   1  UNL1       -0.3040
     13 C          10.4839   77.6517   27.1297 C.3     1  UNL1        0.1123
     14 C           9.3463   77.1539   28.0283 C.3     1  UNL1        0.1136
     15 N           8.1782   76.7173   27.2448 N.pl3   1  UNL1       -0.2897
     16 C           8.1075   77.0270   25.8095 C.3     1  UNL1        0.1136
     17 C           8.6590   78.4292   25.5342 C.3     1  UNL1        0.1123
     18 C           7.1713   75.8699   27.8431 C.ar    1  UNL1        0.1327
     19 C           6.8531   74.6153   27.2995 C.ar    1  UNL1        0.0343
     20 C           5.8750   73.8270   27.9055 C.ar    1  UNL1        0.0091
     21 C           5.2069   74.2780   29.0566 C.ar    1  UNL1        0.0999
     22 C           5.5584   75.5418   29.5752 C.ar    1  UNL1        0.1436
     23 CL          4.7928   76.2046   31.0131 Cl      1  UNL1       -0.0613
     24 N           6.5154   76.2865   28.9613 N.ar    1  UNL1       -0.2193
     25 C           4.1452   73.4287   29.7205 C.3     1  UNL1        0.4208
     26 F           4.5862   73.0259   30.9680 F       1  UNL1       -0.1658
     27 F           2.9838   74.1658   29.8645 F       1  UNL1       -0.1658
     28 F           3.8529   72.2983   28.9767 F       1  UNL1       -0.1658
     29 C          13.7046   85.3844   23.8939 C.3     1  UNL1        0.1535
     30 C          14.2909   85.9798   25.1548 C.2     1  UNL1        0.2443
     31 O          13.9221   85.5367   26.2763 O.2     1  UNL1       -0.2730
     32 N          15.3569   86.9425   25.1093 N.am    1  UNL1       -0.2825
     33 H          15.9949   87.0022   25.9349 H       1  UNL1        0.1549
     34 C          15.6791   87.7297   23.9551 C.ar    1  UNL1        0.0535
     35 C          16.8934   87.5238   23.2901 C.ar    1  UNL1        0.0353
     36 C          17.2071   88.3039   22.1743 C.ar    1  UNL1        0.1002
     37 N          16.3463   89.2685   21.7527 N.ar    1  UNL1       -0.2422
     38 C          15.1722   89.5062   22.3960 C.ar    1  UNL1        0.1002
     39 C          14.8216   88.7488   23.5162 C.ar    1  UNL1        0.0353
     40 C          14.8376   84.9541   22.9469 C.3     1  UNL1        0.0569
     41 C          14.4941   85.2693   21.5207 C.ar    1  UNL1       -0.0017
     42 C          14.9713   84.6206   20.3862 C.ar    1  UNL1        0.0681
     43 N          14.3737   85.1113   19.2761 N.ar    1  UNL1       -0.3523
     44 C          13.5166   86.0559   19.7019 C.ar    1  UNL1        0.0563
     45 C          12.6536   86.8277   18.9249 C.ar    1  UNL1        0.0170
     46 C          11.8183   87.7473   19.5862 C.ar    1  UNL1        0.0015
     47 C          11.8615   87.8711   20.9929 C.ar    1  UNL1        0.0001
     48 C          12.7414   87.0779   21.7507 C.ar    1  UNL1        0.0012
     49 C          13.5593   86.1785   21.0667 C.ar    1  UNL1        0.0131
     50 H          14.5349   84.8031   18.2914 H       1  UNL1        0.1660
@<TRIPOS>BOND
     1     1     2    2
     2     2     3   am
     3     3    29    1
     4    29    40    1
     5    40    41    1
     6    41    42   ar
     7    42    43   ar
     8    43    44   ar
     9    44    45   ar
    10    45    46   ar
    11    46    47   ar
    12    47    48   ar
    13    48    49   ar
    14    29    30    1
    15    30    31    2
    16    30    32   am
    17    32    34    1
    18    34    35   ar
    19    35    36   ar
    20    36    37   ar
    21    37    38   ar
    22    38    39   ar
    23     2     5    1
    24     5     6   ar
    25     6     7   ar
    26     7     8   ar
    27     8    12    1
    28    12    13    1
    29    13    14    1
    30    14    15    1
    31    15    18    1
    32    18    19   ar
    33    19    20   ar
    34    20    21   ar
    35    21    25    1
    36    25    26    1
    37    25    27    1
    38    25    28    1
    39    21    22   ar
    40    22    23    1
    41    22    24   ar
    42    15    16    1
    43    16    17    1
    44     8     9   ar
    45     9    10   ar
    46    10    11    1
    47    49    41   ar
    48    39    34   ar
    49    10     5   ar
    50    49    44   ar
    51    17    12    1
    52    24    18   ar
    53     3     4    1
    54    43    50    1
    55    32    33    1
