@<TRIPOS>MOLECULE
*****
 39 43 0 0 0
SMALL
GASTEIGER

@<TRIPOS>ATOM
      1 C         -21.3537   -7.8223  -12.1617 C.2     1  UNL1        0.2511
      2 O         -20.5138   -7.5728  -13.0681 O.2     1  UNL1       -0.2698
      3 N         -22.7603   -7.9044  -12.4774 N.am    1  UNL1       -0.2612
      4 C         -23.6394   -8.8011  -11.7171 C.3     1  UNL1        0.1420
      5 C         -24.3542   -8.0262  -10.6171 C.3     1  UNL1        0.2268
      6 O         -24.5072   -6.6524  -10.9627 O.3     1  UNL1       -0.4738
      7 C         -25.1278   -6.2181  -12.1373 C.ar    1  UNL1        0.1370
      8 C         -26.2789   -5.4365  -12.0022 C.ar    1  UNL1        0.0367
      9 C         -26.9394   -4.9370  -13.1221 C.ar    1  UNL1        0.0031
     10 C         -26.4431   -5.1884  -14.4079 C.ar    1  UNL1        0.0000
     11 C         -25.2740   -5.9546  -14.5487 C.ar    1  UNL1        0.0012
     12 C         -24.6119   -6.5056  -13.4313 C.ar    1  UNL1        0.0398
     13 C         -23.2894   -7.2345  -13.6759 C.3     1  UNL1        0.1461
     14 S         -23.4579   -8.4731  -15.0148 S.3     1  UNL1       -0.1446
     15 H         -22.0771   -8.7420  -15.0543 H       1  UNL1        0.1042
     16 C         -27.1332   -4.6408  -15.6034 C.ar    1  UNL1        0.0015
     17 C         -26.4197   -4.4355  -16.8176 C.ar    1  UNL1        0.0016
     18 C         -27.0658   -3.9168  -17.9554 C.ar    1  UNL1        0.0206
     19 C         -28.4191   -3.6139  -17.8504 C.ar    1  UNL1        0.0985
     20 N         -29.2270   -3.1116  -18.8014 N.ar    1  UNL1       -0.2241
     21 C         -30.4224   -3.0147  -18.1615 C.ar    1  UNL1        0.1750
     22 N         -30.3812   -3.4317  -16.8731 N.ar    1  UNL1       -0.3349
     23 C         -29.1094   -3.8071  -16.6944 C.ar    1  UNL1        0.0757
     24 C         -28.5111   -4.3176  -15.5460 C.ar    1  UNL1        0.0185
     25 H         -31.1636   -3.4538  -16.1819 H       1  UNL1        0.1675
     26 C         -20.2079   -9.2265  -10.4087 C.ar    1  UNL1        0.0503
     27 C         -19.7161   -9.3385   -9.0917 C.ar    1  UNL1        0.0328
     28 C         -19.9009   -8.3050   -8.1652 C.ar    1  UNL1        0.1069
     29 C         -20.5728   -7.1409   -8.5488 C.ar    1  UNL1        0.0186
     30 C         -21.0573   -7.0081   -9.8491 C.ar    1  UNL1        0.0071
     31 C         -20.8681   -8.0325  -10.7867 C.ar    1  UNL1        0.0668
     32 S         -19.2629   -8.4649   -6.5319 S.O2    1  UNL1        0.0105
     33 C         -18.1841   -9.8763   -6.4578 C.3     1  UNL1        0.1816
     34 O         -20.3963   -8.6437   -5.5611 O.2     1  UNL1       -0.1686
     35 O         -18.4958   -7.2283   -6.1555 O.2     1  UNL1       -0.1686
     36 N         -20.0630  -10.3104  -11.3551 N.pl3   1  UNL1       -0.3325
     37 H         -19.3676  -10.2253  -12.1297 H       1  UNL1        0.1468
     38 C         -21.4949  -11.8545  -12.6178 C.3     1  UNL1        0.0229
     39 C         -20.7966  -11.5745  -11.2916 C.3     1  UNL1        0.0871
@<TRIPOS>BOND
     1    38    39    1
     2    39    36    1
     3    36    26    1
     4    26    27   ar
     5    27    28   ar
     6    28    32    1
     7    32    33    1
     8    32    34    2
     9    32    35    2
    10    28    29   ar
    11    29    30   ar
    12    30    31   ar
    13    31     1    1
    14     1     2    2
    15     1     3   am
    16     3     4    1
    17     4     5    1
    18     5     6    1
    19     6     7    1
    20     7     8   ar
    21     8     9   ar
    22     9    10   ar
    23    10    16    1
    24    16    17   ar
    25    17    18   ar
    26    18    19   ar
    27    19    20   ar
    28    20    21   ar
    29    21    22   ar
    30    22    23   ar
    31    23    24   ar
    32    10    11   ar
    33    11    12   ar
    34    12    13    1
    35    13    14    1
    36    31    26   ar
    37    13     3    1
    38    12     7   ar
    39    24    16   ar
    40    23    19   ar
    41    36    37    1
    42    22    25    1
    43    14    15    1
@<TRIPOS>MOLECULE
*****
 39 43 0 0 0
SMALL
GASTEIGER

@<TRIPOS>ATOM
      1 C         -22.9236   -8.5294  -10.4720 C.2     1  UNL1        0.2511
      2 O         -24.0255   -9.1224  -10.3188 O.2     1  UNL1       -0.2698
      3 N         -22.7260   -7.6419  -11.5936 N.am    1  UNL1       -0.2612
      4 C         -21.8351   -6.4815  -11.4726 C.3     1  UNL1        0.1420
      5 C         -20.4565   -6.8187  -12.0267 C.3     1  UNL1        0.2268
      6 O         -20.5306   -7.8295  -13.0282 O.3     1  UNL1       -0.4738
      7 C         -21.3348   -7.7282  -14.1668 C.ar    1  UNL1        0.1370
      8 C         -20.6916   -7.7359  -15.4080 C.ar    1  UNL1        0.0367
      9 C         -21.4220   -7.6709  -16.5921 C.ar    1  UNL1        0.0031
     10 C         -22.8219   -7.6237  -16.5592 C.ar    1  UNL1        0.0000
     11 C         -23.4746   -7.6383  -15.3152 C.ar    1  UNL1        0.0012
     12 C         -22.7542   -7.6617  -14.1024 C.ar    1  UNL1        0.0398
     13 C         -23.5522   -7.7835  -12.8029 C.3     1  UNL1        0.1461
     14 S         -24.9016   -6.5463  -12.7405 S.3     1  UNL1       -0.1446
     15 H         -25.4670   -7.0979  -11.5757 H       1  UNL1        0.1042
     16 C         -23.6050   -7.5746  -17.8201 C.ar    1  UNL1        0.0015
     17 C         -24.3360   -6.4047  -18.1703 C.ar    1  UNL1        0.0016
     18 C         -25.0809   -6.3495  -19.3632 C.ar    1  UNL1        0.0206
     19 C         -25.0766   -7.4734  -20.1824 C.ar    1  UNL1        0.0985
     20 N         -25.7135   -7.6402  -21.3554 N.ar    1  UNL1       -0.2241
     21 C         -25.3671   -8.9061  -21.7096 C.ar    1  UNL1        0.1750
     22 N         -24.5542   -9.5149  -20.8130 N.ar    1  UNL1       -0.3349
     23 C         -24.3806   -8.5957  -19.8563 C.ar    1  UNL1        0.0757
     24 C         -23.6309   -8.6939  -18.6877 C.ar    1  UNL1        0.0185
     25 H         -24.1564  -10.4792  -20.8609 H       1  UNL1        0.1675
     26 C         -20.6728   -9.4604   -9.8202 C.ar    1  UNL1        0.0503
     27 C         -19.6643   -9.5923   -8.8433 C.ar    1  UNL1        0.0328
     28 C         -19.8366   -9.0666   -7.5569 C.ar    1  UNL1        0.1069
     29 C         -21.0183   -8.3931   -7.2350 C.ar    1  UNL1        0.0186
     30 C         -22.0223   -8.2443   -8.1905 C.ar    1  UNL1        0.0071
     31 C         -21.8549   -8.7577   -9.4838 C.ar    1  UNL1        0.0668
     32 S         -18.5546   -9.2321   -6.3613 S.O2    1  UNL1        0.0105
     33 C         -17.8929   -7.6258   -5.9829 C.3     1  UNL1        0.1816
     34 O         -17.4648  -10.1120   -6.9063 O.2     1  UNL1       -0.1686
     35 O         -19.0980   -9.8576   -5.1072 O.2     1  UNL1       -0.1686
     36 N         -20.5205  -10.0438  -11.1347 N.pl3   1  UNL1       -0.3325
     37 H         -20.1090   -9.4713  -11.9053 H       1  UNL1        0.1468
     38 C         -21.7151  -11.4674  -12.7395 C.3     1  UNL1        0.0229
     39 C         -20.8611  -11.4247  -11.4771 C.3     1  UNL1        0.0871
@<TRIPOS>BOND
     1    38    39    1
     2    39    36    1
     3    36    26    1
     4    26    27   ar
     5    27    28   ar
     6    28    32    1
     7    32    33    1
     8    32    34    2
     9    32    35    2
    10    28    29   ar
    11    29    30   ar
    12    30    31   ar
    13    31     1    1
    14     1     2    2
    15     1     3   am
    16     3     4    1
    17     4     5    1
    18     5     6    1
    19     6     7    1
    20     7     8   ar
    21     8     9   ar
    22     9    10   ar
    23    10    16    1
    24    16    17   ar
    25    17    18   ar
    26    18    19   ar
    27    19    20   ar
    28    20    21   ar
    29    21    22   ar
    30    22    23   ar
    31    23    24   ar
    32    10    11   ar
    33    11    12   ar
    34    12    13    1
    35    13    14    1
    36    31    26   ar
    37    13     3    1
    38    12     7   ar
    39    24    16   ar
    40    23    19   ar
    41    36    37    1
    42    22    25    1
    43    14    15    1
@<TRIPOS>MOLECULE
*****
 39 43 0 0 0
SMALL
GASTEIGER

@<TRIPOS>ATOM
      1 C         -21.0152   -7.9641  -11.9533 C.2     1  UNL1        0.2511
      2 O         -20.1932   -7.6791  -12.8657 O.2     1  UNL1       -0.2698
      3 N         -22.4232   -8.0761  -12.2531 N.am    1  UNL1       -0.2612
      4 C         -23.2702   -9.0065  -11.4971 C.3     1  UNL1        0.1420
      5 C         -23.9900   -8.2676  -10.3757 C.3     1  UNL1        0.2268
      6 O         -24.1813   -6.8927  -10.6968 O.3     1  UNL1       -0.4738
      7 C         -24.8272   -6.4551  -11.8565 C.ar    1  UNL1        0.1370
      8 C         -25.9955   -5.7047  -11.6944 C.ar    1  UNL1        0.0367
      9 C         -26.6822   -5.2038  -12.7978 C.ar    1  UNL1        0.0031
     10 C         -26.1962   -5.4220  -14.0936 C.ar    1  UNL1        0.0000
     11 C         -25.0103   -6.1564  -14.2612 C.ar    1  UNL1        0.0012
     12 C         -24.3207   -6.7086  -13.1612 C.ar    1  UNL1        0.0398
     13 C         -22.9837   -7.4003  -13.4339 C.3     1  UNL1        0.1461
     14 S         -23.1385   -8.6209  -14.7908 S.3     1  UNL1       -0.1446
     15 H         -21.7521   -8.8547  -14.8516 H       1  UNL1        0.1042
     16 C         -26.9147   -4.8725  -15.2714 C.ar    1  UNL1        0.0015
     17 C         -26.2152   -4.5991  -16.4803 C.ar    1  UNL1        0.0016
     18 C         -26.8882   -4.0781  -17.6013 C.ar    1  UNL1        0.0206
     19 C         -28.2537   -3.8416  -17.4852 C.ar    1  UNL1        0.0985
     20 N         -29.0870   -3.3500  -18.4197 N.ar    1  UNL1       -0.2241
     21 C         -30.2837   -3.3274  -17.7751 C.ar    1  UNL1        0.1750
     22 N         -30.2192   -3.7793  -16.4995 N.ar    1  UNL1       -0.3349
     23 C         -28.9308   -4.1003  -16.3341 C.ar    1  UNL1        0.0757
     24 C         -28.3059   -4.6155  -15.2021 C.ar    1  UNL1        0.0185
     25 H         -30.9976   -3.8579  -15.8079 H       1  UNL1        0.1675
     26 C         -20.8923   -7.3498   -9.5109 C.ar    1  UNL1        0.0503
     27 C         -20.4156   -7.6519   -8.2186 C.ar    1  UNL1        0.0328
     28 C         -19.5552   -8.7359   -8.0052 C.ar    1  UNL1        0.1069
     29 C         -19.1685   -9.5377   -9.0827 C.ar    1  UNL1        0.0186
     30 C         -19.6374   -9.2603  -10.3659 C.ar    1  UNL1        0.0071
     31 C         -20.5072   -8.1842  -10.5880 C.ar    1  UNL1        0.0668
     32 S         -18.9874   -9.0998   -6.3786 S.O2    1  UNL1        0.0105
     33 C         -17.9997   -7.7461   -5.7842 C.3     1  UNL1        0.1816
     34 O         -18.1627  -10.3561   -6.3997 O.2     1  UNL1       -0.1686
     35 O         -20.1582   -9.3066   -5.4589 O.2     1  UNL1       -0.1686
     36 N         -21.7415   -6.2028   -9.7449 N.pl3   1  UNL1       -0.3325
     37 H         -22.7760   -6.3342   -9.8045 H       1  UNL1        0.1468
     38 C         -21.2397   -4.3907  -11.3240 C.3     1  UNL1        0.0229
     39 C         -21.2652   -4.8246   -9.8625 C.3     1  UNL1        0.0871
@<TRIPOS>BOND
     1    38    39    1
     2    39    36    1
     3    36    26    1
     4    26    27   ar
     5    27    28   ar
     6    28    32    1
     7    32    33    1
     8    32    34    2
     9    32    35    2
    10    28    29   ar
    11    29    30   ar
    12    30    31   ar
    13    31     1    1
    14     1     2    2
    15     1     3   am
    16     3     4    1
    17     4     5    1
    18     5     6    1
    19     6     7    1
    20     7     8   ar
    21     8     9   ar
    22     9    10   ar
    23    10    16    1
    24    16    17   ar
    25    17    18   ar
    26    18    19   ar
    27    19    20   ar
    28    20    21   ar
    29    21    22   ar
    30    22    23   ar
    31    23    24   ar
    32    10    11   ar
    33    11    12   ar
    34    12    13    1
    35    13    14    1
    36    31    26   ar
    37    13     3    1
    38    12     7   ar
    39    24    16   ar
    40    23    19   ar
    41    36    37    1
    42    22    25    1
    43    14    15    1
@<TRIPOS>MOLECULE
*****
 39 43 0 0 0
SMALL
GASTEIGER

@<TRIPOS>ATOM
      1 C         -22.0390  -10.2484  -12.9756 C.2     1  UNL1        0.2511
      2 O         -21.7797  -10.5282  -14.1772 O.2     1  UNL1       -0.2698
      3 N         -23.3472   -9.7587  -12.6098 N.am    1  UNL1       -0.2612
      4 C         -23.9076  -10.0588  -11.2867 C.3     1  UNL1        0.1420
      5 C         -23.6603   -8.8942  -10.3359 C.3     1  UNL1        0.2268
      6 O         -23.5569   -7.6599  -11.0401 O.3     1  UNL1       -0.4738
      7 C         -24.5440   -7.1824  -11.9068 C.ar    1  UNL1        0.1370
      8 C         -25.1533   -5.9682  -11.5767 C.ar    1  UNL1        0.0367
      9 C         -26.1235   -5.4073  -12.4035 C.ar    1  UNL1        0.0031
     10 C         -26.4873   -6.0403  -13.5994 C.ar    1  UNL1        0.0000
     11 C         -25.8621   -7.2493  -13.9472 C.ar    1  UNL1        0.0012
     12 C         -24.9072   -7.8571  -13.1051 C.ar    1  UNL1        0.0398
     13 C         -24.2043   -9.1153  -13.6180 C.3     1  UNL1        0.1461
     14 S         -25.4172  -10.3446  -14.2285 S.3     1  UNL1       -0.1446
     15 H         -24.4225  -11.1886  -14.7565 H       1  UNL1        0.1042
     16 C         -27.5070   -5.4351  -14.4935 C.ar    1  UNL1        0.0015
     17 C         -28.8779   -5.7985  -14.3745 C.ar    1  UNL1        0.0016
     18 C         -29.8509   -5.2300  -15.2178 C.ar    1  UNL1        0.0206
     19 C         -29.4262   -4.3057  -16.1662 C.ar    1  UNL1        0.0985
     20 N         -30.1761   -3.6465  -17.0675 N.ar    1  UNL1       -0.2241
     21 C         -29.2596   -2.8894  -17.7267 C.ar    1  UNL1        0.1750
     22 N         -27.9940   -3.0552  -17.2724 N.ar    1  UNL1       -0.3349
     23 C         -28.1183   -3.9518  -16.2870 C.ar    1  UNL1        0.0757
     24 C         -27.1235   -4.4882  -15.4746 C.ar    1  UNL1        0.0185
     25 H         -27.1246   -2.5890  -17.6145 H       1  UNL1        0.1675
     26 C         -20.3394   -9.3367  -11.3515 C.ar    1  UNL1        0.0503
     27 C         -19.3819   -9.5880  -10.3471 C.ar    1  UNL1        0.0328
     28 C         -19.0529  -10.8985   -9.9796 C.ar    1  UNL1        0.1069
     29 C         -19.6861  -11.9750  -10.6072 C.ar    1  UNL1        0.0186
     30 C         -20.6422  -11.7459  -11.5954 C.ar    1  UNL1        0.0071
     31 C         -20.9860  -10.4379  -11.9627 C.ar    1  UNL1        0.0668
     32 S         -17.8651  -11.1833   -8.7113 S.O2    1  UNL1        0.0105
     33 C         -18.2366  -10.1475   -7.3148 C.3     1  UNL1        0.1816
     34 O         -16.4893  -10.8640   -9.2255 O.2     1  UNL1       -0.1686
     35 O         -17.8995  -12.6252   -8.2882 O.2     1  UNL1       -0.1686
     36 N         -20.6473   -7.9868  -11.7693 N.pl3   1  UNL1       -0.3325
     37 H         -20.9406   -7.8097  -12.7560 H       1  UNL1        0.1468
     38 C         -21.1779   -5.5944  -11.6137 C.3     1  UNL1        0.0229
     39 C         -20.6276   -6.8182  -10.8894 C.3     1  UNL1        0.0871
@<TRIPOS>BOND
     1    38    39    1
     2    39    36    1
     3    36    26    1
     4    26    27   ar
     5    27    28   ar
     6    28    32    1
     7    32    33    1
     8    32    34    2
     9    32    35    2
    10    28    29   ar
    11    29    30   ar
    12    30    31   ar
    13    31     1    1
    14     1     2    2
    15     1     3   am
    16     3     4    1
    17     4     5    1
    18     5     6    1
    19     6     7    1
    20     7     8   ar
    21     8     9   ar
    22     9    10   ar
    23    10    16    1
    24    16    17   ar
    25    17    18   ar
    26    18    19   ar
    27    19    20   ar
    28    20    21   ar
    29    21    22   ar
    30    22    23   ar
    31    23    24   ar
    32    10    11   ar
    33    11    12   ar
    34    12    13    1
    35    13    14    1
    36    31    26   ar
    37    13     3    1
    38    12     7   ar
    39    24    16   ar
    40    23    19   ar
    41    36    37    1
    42    22    25    1
    43    14    15    1
@<TRIPOS>MOLECULE
*****
 39 43 0 0 0
SMALL
GASTEIGER

@<TRIPOS>ATOM
      1 C         -21.9887  -10.3403  -12.9354 C.2     1  UNL1        0.2511
      2 O         -21.7360  -10.6561  -14.1294 O.2     1  UNL1       -0.2698
      3 N         -23.2661   -9.7611  -12.5920 N.am    1  UNL1       -0.2612
      4 C         -23.8580  -10.0025  -11.2706 C.3     1  UNL1        0.1420
      5 C         -23.5454   -8.8407  -10.3357 C.3     1  UNL1        0.2268
      6 O         -23.3552   -7.6274  -11.0582 O.3     1  UNL1       -0.4738
      7 C         -24.3005   -7.1016  -11.9432 C.ar    1  UNL1        0.1370
      8 C         -24.8332   -5.8453  -11.6393 C.ar    1  UNL1        0.0367
      9 C         -25.7567   -5.2367  -12.4856 C.ar    1  UNL1        0.0031
     10 C         -26.1487   -5.8645  -13.6752 C.ar    1  UNL1        0.0000
     11 C         -25.5997   -7.1170  -13.9969 C.ar    1  UNL1        0.0012
     12 C         -24.6946   -7.7712  -13.1347 C.ar    1  UNL1        0.0398
     13 C         -24.0695   -9.0805  -13.6197 C.3     1  UNL1        0.1461
     14 S         -25.3533  -10.2388  -14.2241 S.3     1  UNL1       -0.1446
     15 H         -24.4100  -11.1539  -14.7275 H       1  UNL1        0.1042
     16 C         -27.1180   -5.2097  -14.5901 C.ar    1  UNL1        0.0015
     17 C         -28.5183   -5.3705  -14.3929 C.ar    1  UNL1        0.0016
     18 C         -29.4440   -4.7536  -15.2552 C.ar    1  UNL1        0.0206
     19 C         -28.9432   -3.9857  -16.3010 C.ar    1  UNL1        0.0985
     20 N         -29.6386   -3.3149  -17.2369 N.ar    1  UNL1       -0.2241
     21 C         -28.6601   -2.7527  -17.9948 C.ar    1  UNL1        0.1750
     22 N         -27.4087   -3.0476  -17.5674 N.ar    1  UNL1       -0.3349
     23 C         -27.6067   -3.8258  -16.4971 C.ar    1  UNL1        0.0757
     24 C         -26.6565   -4.4168  -15.6694 C.ar    1  UNL1        0.0185
     25 H         -26.5013   -2.7372  -17.9804 H       1  UNL1        0.1675
     26 C         -20.4777  -11.8830  -11.6337 C.ar    1  UNL1        0.0503
     27 C         -19.4507  -12.0355  -10.6793 C.ar    1  UNL1        0.0328
     28 C         -18.9369  -10.9283   -9.9932 C.ar    1  UNL1        0.1069
     29 C         -19.4388   -9.6516  -10.2614 C.ar    1  UNL1        0.0186
     30 C         -20.4470   -9.4800  -11.2086 C.ar    1  UNL1        0.0071
     31 C         -20.9604  -10.5806  -11.9080 C.ar    1  UNL1        0.0668
     32 S         -17.6440  -11.1455   -8.8179 S.O2    1  UNL1        0.0105
     33 C         -17.5596  -12.8579   -8.3466 C.3     1  UNL1        0.1816
     34 O         -17.9153  -10.3004   -7.6050 O.2     1  UNL1       -0.1686
     35 O         -16.3299  -10.7254   -9.4146 O.2     1  UNL1       -0.1686
     36 N         -21.0459  -13.0284  -12.3095 N.pl3   1  UNL1       -0.3325
     37 H         -21.9864  -13.3794  -12.0211 H       1  UNL1        0.1468
     38 C         -21.3989  -13.8789  -14.5857 C.3     1  UNL1        0.0229
     39 C         -20.4175  -13.7312  -13.4281 C.3     1  UNL1        0.0871
@<TRIPOS>BOND
     1    38    39    1
     2    39    36    1
     3    36    26    1
     4    26    27   ar
     5    27    28   ar
     6    28    32    1
     7    32    33    1
     8    32    34    2
     9    32    35    2
    10    28    29   ar
    11    29    30   ar
    12    30    31   ar
    13    31     1    1
    14     1     2    2
    15     1     3   am
    16     3     4    1
    17     4     5    1
    18     5     6    1
    19     6     7    1
    20     7     8   ar
    21     8     9   ar
    22     9    10   ar
    23    10    16    1
    24    16    17   ar
    25    17    18   ar
    26    18    19   ar
    27    19    20   ar
    28    20    21   ar
    29    21    22   ar
    30    22    23   ar
    31    23    24   ar
    32    10    11   ar
    33    11    12   ar
    34    12    13    1
    35    13    14    1
    36    31    26   ar
    37    13     3    1
    38    12     7   ar
    39    24    16   ar
    40    23    19   ar
    41    36    37    1
    42    22    25    1
    43    14    15    1
@<TRIPOS>MOLECULE
*****
 39 43 0 0 0
SMALL
GASTEIGER

@<TRIPOS>ATOM
      1 C         -21.3204   -8.3294   -9.6852 C.2     1  UNL1        0.2511
      2 O         -22.0153   -8.0873   -8.6615 O.2     1  UNL1       -0.2698
      3 N         -21.5611   -7.6095  -10.9135 N.am    1  UNL1       -0.2612
      4 C         -20.4569   -7.3369  -11.8414 C.3     1  UNL1        0.1420
      5 C         -20.4287   -8.3861  -12.9458 C.3     1  UNL1        0.2268
      6 O         -21.7249   -8.9287  -13.1820 O.3     1  UNL1       -0.4738
      7 C         -22.8427   -8.1477  -13.4887 C.ar    1  UNL1        0.1370
      8 C         -23.4549   -8.3641  -14.7268 C.ar    1  UNL1        0.0367
      9 C         -24.5923   -7.6503  -15.0963 C.ar    1  UNL1        0.0031
     10 C         -25.1603   -6.7184  -14.2178 C.ar    1  UNL1        0.0000
     11 C         -24.5623   -6.5130  -12.9632 C.ar    1  UNL1        0.0012
     12 C         -23.3862   -7.1940  -12.5842 C.ar    1  UNL1        0.0398
     13 C         -22.8702   -6.9842  -11.1595 C.3     1  UNL1        0.1461
     14 S         -22.7540   -5.2010  -10.7571 S.3     1  UNL1       -0.1446
     15 H         -22.4636   -5.4400   -9.4010 H       1  UNL1        0.1042
     16 C         -26.3847   -5.9699  -14.6001 C.ar    1  UNL1        0.0015
     17 C         -27.6427   -6.3016  -14.0234 C.ar    1  UNL1        0.0016
     18 C         -28.8082   -5.5976  -14.3801 C.ar    1  UNL1        0.0206
     19 C         -28.6861   -4.5719  -15.3113 C.ar    1  UNL1        0.0985
     20 N         -29.6584   -3.7776  -15.7941 N.ar    1  UNL1       -0.2241
     21 C         -28.9876   -2.9709  -16.6585 C.ar    1  UNL1        0.1750
     22 N         -27.6604   -3.2347  -16.7249 N.ar    1  UNL1       -0.3349
     23 C         -27.4879   -4.2473  -15.8674 C.ar    1  UNL1        0.0757
     24 C         -26.3110   -4.9163  -15.5439 C.ar    1  UNL1        0.0185
     25 H         -26.9409   -2.7560  -17.3110 H       1  UNL1        0.1675
     26 C         -19.2090   -9.2458   -8.6555 C.ar    1  UNL1        0.0503
     27 C         -18.2620  -10.2882   -8.5831 C.ar    1  UNL1        0.0328
     28 C         -18.3408  -11.3918   -9.4414 C.ar    1  UNL1        0.1069
     29 C         -19.3756  -11.4702  -10.3777 C.ar    1  UNL1        0.0186
     30 C         -20.3266  -10.4542  -10.4574 C.ar    1  UNL1        0.0071
     31 C         -20.2624   -9.3508   -9.5957 C.ar    1  UNL1        0.0668
     32 S         -17.1539  -12.6866   -9.3188 S.O2    1  UNL1        0.0105
     33 C         -15.5334  -11.9819   -9.1221 C.3     1  UNL1        0.1816
     34 O         -17.1916  -13.5273  -10.5641 O.2     1  UNL1       -0.1686
     35 O         -17.4662  -13.5609   -8.1367 O.2     1  UNL1       -0.1686
     36 N         -19.1043   -8.0807   -7.8052 N.pl3   1  UNL1       -0.3325
     37 H         -18.9394   -7.1440   -8.2368 H       1  UNL1        0.1468
     38 C         -17.9613   -7.6802   -5.6692 C.3     1  UNL1        0.0229
     39 C         -19.2608   -8.0950   -6.3507 C.3     1  UNL1        0.0871
@<TRIPOS>BOND
     1    38    39    1
     2    39    36    1
     3    36    26    1
     4    26    27   ar
     5    27    28   ar
     6    28    32    1
     7    32    33    1
     8    32    34    2
     9    32    35    2
    10    28    29   ar
    11    29    30   ar
    12    30    31   ar
    13    31     1    1
    14     1     2    2
    15     1     3   am
    16     3     4    1
    17     4     5    1
    18     5     6    1
    19     6     7    1
    20     7     8   ar
    21     8     9   ar
    22     9    10   ar
    23    10    16    1
    24    16    17   ar
    25    17    18   ar
    26    18    19   ar
    27    19    20   ar
    28    20    21   ar
    29    21    22   ar
    30    22    23   ar
    31    23    24   ar
    32    10    11   ar
    33    11    12   ar
    34    12    13    1
    35    13    14    1
    36    31    26   ar
    37    13     3    1
    38    12     7   ar
    39    24    16   ar
    40    23    19   ar
    41    36    37    1
    42    22    25    1
    43    14    15    1
@<TRIPOS>MOLECULE
*****
 39 43 0 0 0
SMALL
GASTEIGER

@<TRIPOS>ATOM
      1 C         -20.6054   -8.3583  -10.7855 C.2     1  UNL1        0.2511
      2 O         -19.9780   -7.6261  -11.5978 O.2     1  UNL1       -0.2698
      3 N         -21.9262   -8.8409  -11.1131 N.am    1  UNL1       -0.2612
      4 C         -22.3876  -10.1392  -10.6068 C.3     1  UNL1        0.1420
      5 C         -23.2215   -9.9444   -9.3466 C.3     1  UNL1        0.2268
      6 O         -23.8522   -8.6668   -9.3316 O.3     1  UNL1       -0.4738
      7 C         -24.6810   -8.2049  -10.3578 C.ar    1  UNL1        0.1370
      8 C         -26.0104   -7.9231  -10.0296 C.ar    1  UNL1        0.0367
      9 C         -26.8936   -7.4288  -10.9862 C.ar    1  UNL1        0.0031
     10 C         -26.4552   -7.1790  -12.2933 C.ar    1  UNL1        0.0000
     11 C         -25.1146   -7.4391  -12.6231 C.ar    1  UNL1        0.0012
     12 C         -24.2129   -7.9791  -11.6819 C.ar    1  UNL1        0.0398
     13 C         -22.7496   -8.1278  -12.1024 C.3     1  UNL1        0.1461
     14 S         -22.6116   -8.9903  -13.7124 S.3     1  UNL1       -0.1446
     15 H         -21.2288   -8.7504  -13.8176 H       1  UNL1        0.1042
     16 C         -27.3889   -6.6331  -13.3109 C.ar    1  UNL1        0.0015
     17 C         -28.5839   -7.3315  -13.6422 C.ar    1  UNL1        0.0016
     18 C         -29.4743   -6.8215  -14.6056 C.ar    1  UNL1        0.0206
     19 C         -29.1456   -5.6171  -15.2184 C.ar    1  UNL1        0.0985
     20 N         -29.8426   -4.9542  -16.1587 N.ar    1  UNL1       -0.2241
     21 C         -29.0694   -3.8608  -16.3926 C.ar    1  UNL1        0.1750
     22 N         -27.9409   -3.8265  -15.6437 N.ar    1  UNL1       -0.3349
     23 C         -28.0062   -4.9422  -14.9079 C.ar    1  UNL1        0.0757
     24 C         -27.0981   -5.4093  -13.9621 C.ar    1  UNL1        0.0185
     25 H         -27.1947   -3.0961  -15.6432 H       1  UNL1        0.1675
     26 C         -19.1623   -9.8730   -9.3781 C.ar    1  UNL1        0.0503
     27 C         -18.5260  -10.1202   -8.1441 C.ar    1  UNL1        0.0328
     28 C         -18.7012   -9.2531   -7.0587 C.ar    1  UNL1        0.1069
     29 C         -19.5089   -8.1209   -7.1982 C.ar    1  UNL1        0.0186
     30 C         -20.1381   -7.8548   -8.4134 C.ar    1  UNL1        0.0071
     31 C         -19.9605   -8.7110   -9.5086 C.ar    1  UNL1        0.0668
     32 S         -17.8824   -9.5775   -5.5340 S.O2    1  UNL1        0.0105
     33 C         -19.0132   -9.3030   -4.1895 C.3     1  UNL1        0.1816
     34 O         -16.6971   -8.6644   -5.3918 O.2     1  UNL1       -0.1686
     35 O         -17.4015  -11.0012   -5.5007 O.2     1  UNL1       -0.1686
     36 N         -19.0243  -10.7910  -10.4870 N.pl3   1  UNL1       -0.3325
     37 H         -18.8722  -10.4138  -11.4490 H       1  UNL1        0.1468
     38 C         -19.9156  -12.8688  -11.4448 C.3     1  UNL1        0.0229
     39 C         -19.0332  -12.2490  -10.3668 C.3     1  UNL1        0.0871
@<TRIPOS>BOND
     1    38    39    1
     2    39    36    1
     3    36    26    1
     4    26    27   ar
     5    27    28   ar
     6    28    32    1
     7    32    33    1
     8    32    34    2
     9    32    35    2
    10    28    29   ar
    11    29    30   ar
    12    30    31   ar
    13    31     1    1
    14     1     2    2
    15     1     3   am
    16     3     4    1
    17     4     5    1
    18     5     6    1
    19     6     7    1
    20     7     8   ar
    21     8     9   ar
    22     9    10   ar
    23    10    16    1
    24    16    17   ar
    25    17    18   ar
    26    18    19   ar
    27    19    20   ar
    28    20    21   ar
    29    21    22   ar
    30    22    23   ar
    31    23    24   ar
    32    10    11   ar
    33    11    12   ar
    34    12    13    1
    35    13    14    1
    36    31    26   ar
    37    13     3    1
    38    12     7   ar
    39    24    16   ar
    40    23    19   ar
    41    36    37    1
    42    22    25    1
    43    14    15    1
@<TRIPOS>MOLECULE
*****
 39 43 0 0 0
SMALL
GASTEIGER

@<TRIPOS>ATOM
      1 C         -21.5525   -8.5441   -9.8792 C.2     1  UNL1        0.2511
      2 O         -22.3087   -8.3428   -8.8907 O.2     1  UNL1       -0.2698
      3 N         -21.6907   -7.7452  -11.0740 N.am    1  UNL1       -0.2612
      4 C         -20.5193   -7.4510  -11.9083 C.3     1  UNL1        0.1420
      5 C         -20.4436   -8.4327  -13.0710 C.3     1  UNL1        0.2268
      6 O         -21.7344   -8.9210  -13.4253 O.3     1  UNL1       -0.4738
      7 C         -22.8082   -8.0898  -13.7566 C.ar    1  UNL1        0.1370
      8 C         -23.3404   -8.2133  -15.0434 C.ar    1  UNL1        0.0367
      9 C         -24.4312   -7.4448  -15.4426 C.ar    1  UNL1        0.0031
     10 C         -25.0330   -6.5503  -14.5478 C.ar    1  UNL1        0.0000
     11 C         -24.5164   -6.4384  -13.2462 C.ar    1  UNL1        0.0012
     12 C         -23.3868   -7.1758  -12.8330 C.ar    1  UNL1        0.0398
     13 C         -22.9632   -7.0672  -11.3670 C.3     1  UNL1        0.1461
     14 S         -22.8283   -5.3155  -10.8487 S.3     1  UNL1       -0.1446
     15 H         -22.6368   -5.6437   -9.4937 H       1  UNL1        0.1042
     16 C         -26.2087   -5.7438  -14.9633 C.ar    1  UNL1        0.0015
     17 C         -27.4375   -5.8397  -14.2516 C.ar    1  UNL1        0.0016
     18 C         -28.5568   -5.0791  -14.6387 C.ar    1  UNL1        0.0206
     19 C         -28.4190   -4.2355  -15.7357 C.ar    1  UNL1        0.0985
     20 N         -29.3491   -3.4275  -16.2755 N.ar    1  UNL1       -0.2241
     21 C         -28.6824   -2.8478  -17.3086 C.ar    1  UNL1        0.1750
     22 N         -27.3976   -3.2620  -17.4232 N.ar    1  UNL1       -0.3349
     23 C         -27.2485   -4.1368  -16.4217 C.ar    1  UNL1        0.0757
     24 C         -26.1173   -4.8695  -16.0740 C.ar    1  UNL1        0.0185
     25 H         -26.6896   -2.9647  -18.1308 H       1  UNL1        0.1675
     26 C         -20.6258  -10.7948  -10.5373 C.ar    1  UNL1        0.0503
     27 C         -19.5825  -11.7389  -10.4426 C.ar    1  UNL1        0.0328
     28 C         -18.4872  -11.5174   -9.5988 C.ar    1  UNL1        0.1069
     29 C         -18.4179  -10.3420   -8.8456 C.ar    1  UNL1        0.0186
     30 C         -19.4349   -9.3928   -8.9335 C.ar    1  UNL1        0.0071
     31 C         -20.5300   -9.6004   -9.7831 C.ar    1  UNL1        0.0668
     32 S         -17.1910  -12.7059   -9.5116 S.O2    1  UNL1        0.0105
     33 C         -15.6325  -11.8652   -9.3513 C.3     1  UNL1        0.1816
     34 O         -17.1874  -13.5434  -10.7597 O.2     1  UNL1       -0.1686
     35 O         -17.3977  -13.6071   -8.3265 O.2     1  UNL1       -0.1686
     36 N         -21.7828  -11.0407  -11.3695 N.pl3   1  UNL1       -0.3325
     37 H         -22.6671  -10.5159  -11.1862 H       1  UNL1        0.1468
     38 C         -23.1809  -11.9454  -13.1738 C.3     1  UNL1        0.0229
     39 C         -21.8079  -11.9556  -12.5107 C.3     1  UNL1        0.0871
@<TRIPOS>BOND
     1    38    39    1
     2    39    36    1
     3    36    26    1
     4    26    27   ar
     5    27    28   ar
     6    28    32    1
     7    32    33    1
     8    32    34    2
     9    32    35    2
    10    28    29   ar
    11    29    30   ar
    12    30    31   ar
    13    31     1    1
    14     1     2    2
    15     1     3   am
    16     3     4    1
    17     4     5    1
    18     5     6    1
    19     6     7    1
    20     7     8   ar
    21     8     9   ar
    22     9    10   ar
    23    10    16    1
    24    16    17   ar
    25    17    18   ar
    26    18    19   ar
    27    19    20   ar
    28    20    21   ar
    29    21    22   ar
    30    22    23   ar
    31    23    24   ar
    32    10    11   ar
    33    11    12   ar
    34    12    13    1
    35    13    14    1
    36    31    26   ar
    37    13     3    1
    38    12     7   ar
    39    24    16   ar
    40    23    19   ar
    41    36    37    1
    42    22    25    1
    43    14    15    1
@<TRIPOS>MOLECULE
*****
 39 43 0 0 0
SMALL
GASTEIGER

@<TRIPOS>ATOM
      1 C         -21.6021   -8.4407   -9.8877 C.2     1  UNL1        0.2511
      2 O         -22.3459   -8.2205   -8.8939 O.2     1  UNL1       -0.2698
      3 N         -21.7421   -7.6517  -11.0888 N.am    1  UNL1       -0.2612
      4 C         -20.5755   -7.3802  -11.9374 C.3     1  UNL1        0.1420
      5 C         -20.5235   -8.3739  -13.0912 C.3     1  UNL1        0.2268
      6 O         -21.8238   -8.8493  -13.4281 O.3     1  UNL1       -0.4738
      7 C         -22.8903   -8.0080  -13.7569 C.ar    1  UNL1        0.1370
      8 C         -23.4368   -8.1371  -15.0372 C.ar    1  UNL1        0.0367
      9 C         -24.5219   -7.3589  -15.4331 C.ar    1  UNL1        0.0031
     10 C         -25.1036   -6.4484  -14.5412 C.ar    1  UNL1        0.0000
     11 C         -24.5728   -6.3305  -13.2458 C.ar    1  UNL1        0.0012
     12 C         -23.4484   -7.0780  -12.8366 C.ar    1  UNL1        0.0398
     13 C         -23.0090   -6.9606  -11.3759 C.3     1  UNL1        0.1461
     14 S         -22.8472   -5.2059  -10.8761 S.3     1  UNL1       -0.1446
     15 H         -22.6464   -5.5235   -9.5198 H       1  UNL1        0.1042
     16 C         -26.2733   -5.6313  -14.9531 C.ar    1  UNL1        0.0015
     17 C         -26.1047   -4.5161  -15.8209 C.ar    1  UNL1        0.0016
     18 C         -27.2076   -3.7361  -16.2162 C.ar    1  UNL1        0.0206
     19 C         -28.4610   -4.0930  -15.7304 C.ar    1  UNL1        0.0985
     20 N         -29.6402   -3.4935  -15.9741 N.ar    1  UNL1       -0.2241
     21 C         -30.5152   -4.2453  -15.2551 C.ar    1  UNL1        0.1750
     22 N         -29.9283   -5.2684  -14.5887 N.ar    1  UNL1       -0.3349
     23 C         -28.6320   -5.1574  -14.9010 C.ar    1  UNL1        0.0757
     24 C         -27.5703   -5.9557  -14.4851 C.ar    1  UNL1        0.0185
     25 H         -30.3853   -5.9782  -13.9741 H       1  UNL1        0.1675
     26 C         -20.6981  -10.6994  -10.5502 C.ar    1  UNL1        0.0503
     27 C         -19.6658  -11.6555  -10.4547 C.ar    1  UNL1        0.0328
     28 C         -18.5714  -11.4492   -9.6059 C.ar    1  UNL1        0.1069
     29 C         -18.4918  -10.2773   -8.8483 C.ar    1  UNL1        0.0186
     30 C         -19.4978   -9.3164   -8.9369 C.ar    1  UNL1        0.0071
     31 C         -20.5918   -9.5088   -9.7914 C.ar    1  UNL1        0.0668
     32 S         -17.2889  -12.6525   -9.5179 S.O2    1  UNL1        0.0105
     33 C         -15.7239  -11.8306   -9.3265 C.3     1  UNL1        0.1816
     34 O         -17.2779  -13.4734  -10.7768 O.2     1  UNL1       -0.1686
     35 O         -17.5203  -13.5669   -8.3476 O.2     1  UNL1       -0.1686
     36 N         -21.8544  -10.9294  -11.3877 N.pl3   1  UNL1       -0.3325
     37 H         -22.7024  -10.3318  -11.2664 H       1  UNL1        0.1468
     38 C         -23.2898  -11.8922  -13.1317 C.3     1  UNL1        0.0229
     39 C         -21.9239  -11.9275  -12.4550 C.3     1  UNL1        0.0871
@<TRIPOS>BOND
     1    38    39    1
     2    39    36    1
     3    36    26    1
     4    26    27   ar
     5    27    28   ar
     6    28    32    1
     7    32    33    1
     8    32    34    2
     9    32    35    2
    10    28    29   ar
    11    29    30   ar
    12    30    31   ar
    13    31     1    1
    14     1     2    2
    15     1     3   am
    16     3     4    1
    17     4     5    1
    18     5     6    1
    19     6     7    1
    20     7     8   ar
    21     8     9   ar
    22     9    10   ar
    23    10    16    1
    24    16    17   ar
    25    17    18   ar
    26    18    19   ar
    27    19    20   ar
    28    20    21   ar
    29    21    22   ar
    30    22    23   ar
    31    23    24   ar
    32    10    11   ar
    33    11    12   ar
    34    12    13    1
    35    13    14    1
    36    31    26   ar
    37    13     3    1
    38    12     7   ar
    39    24    16   ar
    40    23    19   ar
    41    36    37    1
    42    22    25    1
    43    14    15    1
