@<TRIPOS>MOLECULE
*****
 48 53 0 0 0
SMALL
GASTEIGER

@<TRIPOS>ATOM
      1 C          11.5344   80.6187   25.1354 C.ar    1  UNL1        0.0702
      2 C          10.9391   81.8743   24.9680 C.ar    1  UNL1        0.0191
      3 C          11.7033   82.9673   24.5571 C.ar    1  UNL1        0.0356
      4 C          13.0811   82.8058   24.3312 C.ar    1  UNL1        0.1318
      5 N          13.6414   81.5780   24.5208 N.ar    1  UNL1       -0.2279
      6 C          12.9158   80.4987   24.9158 C.ar    1  UNL1        0.1149
      7 N          13.9071   83.9103   23.9026 N.pl3   1  UNL1       -0.2932
      8 C          13.5314   85.2994   24.2189 C.3     1  UNL1        0.0923
      9 C          14.7603   86.2168   24.2286 C.3     1  UNL1        0.0252
     10 C          15.5649   86.1521   22.9059 C.3     1  UNL1        0.0472
     11 C          15.4772   84.7670   22.2146 C.3     1  UNL1        0.0252
     12 C          15.1751   83.6418   23.2069 C.3     1  UNL1        0.0923
     13 C          15.1291   87.2748   21.9413 C.3     1  UNL1        0.2054
     14 O          14.0739   86.8381   21.0822 O.3     1  UNL1       -0.4755
     15 C          14.1981   86.5441   19.7141 C.ar    1  UNL1        0.1390
     16 C          14.0059   87.5858   18.8011 C.ar    1  UNL1        0.0433
     17 C          14.1108   87.3635   17.4181 C.ar    1  UNL1        0.0787
     18 C          14.4350   86.0762   16.9573 C.ar    1  UNL1        0.0131
     19 C          14.6363   85.0171   17.8591 C.ar    1  UNL1        0.0787
     20 C          14.5159   85.2588   19.2372 C.ar    1  UNL1        0.0433
     21 C          13.9069   88.4677   16.4485 C.2     1  UNL1        0.3381
     22 O          14.8970   89.1285   16.0358 O.2     1  UNL1       -0.2451
     23 O          12.6413   88.7926   15.9612 O.3     1  UNL1       -0.4771
     24 H          11.8194   88.2398   16.1671 H       1  UNL1        0.2954
     25 C          14.9715   83.6614   17.3664 C.2     1  UNL1        0.3381
     26 O          14.7943   83.3598   16.1550 O.2     1  UNL1       -0.2451
     27 O          15.4860   82.7044   18.2375 O.3     1  UNL1       -0.4771
     28 H          15.7182   81.7741   17.9104 H       1  UNL1        0.2954
     29 C          11.2807   78.3136   26.1689 C.2     1  UNL1        0.2839
     30 O          12.5156   78.0731   26.0925 O.2     1  UNL1       -0.2665
     31 N          10.7382   79.5070   25.5805 N.am    1  UNL1       -0.2766
     32 H           9.7115   79.5350   25.3867 H       1  UNL1        0.1553
     33 C           8.1781   77.8256   25.5298 C.3     1  UNL1        0.0345
     34 C           9.0267   77.1314   26.5521 C.ar    1  UNL1        0.0202
     35 C          10.3813   77.3482   26.8286 C.ar    1  UNL1        0.1946
     36 O          10.7794   76.5424   27.7972 O.2     1  UNL1       -0.4492
     37 C           9.7528   75.8148   28.1635 C.ar    1  UNL1        0.1452
     38 C           9.7217   74.8353   29.1499 C.ar    1  UNL1        0.0375
     39 C           8.5056   74.1695   29.3810 C.ar    1  UNL1        0.0031
     40 C           7.3445   74.4905   28.6271 C.ar    1  UNL1        0.0002
     41 C           7.4190   75.4947   27.6321 C.ar    1  UNL1        0.0028
     42 C           8.6424   76.1355   27.4297 C.ar    1  UNL1        0.0337
     43 C           6.0653   73.7801   28.8799 C.ar    1  UNL1        0.0000
     44 C           5.2122   74.1909   29.9221 C.ar    1  UNL1        0.0000
     45 C           4.0082   73.5201   30.1578 C.ar    1  UNL1        0.0000
     46 C           3.6418   72.4353   29.3582 C.ar    1  UNL1        0.0000
     47 C           4.4789   72.0185   28.3209 C.ar    1  UNL1        0.0000
     48 C           5.6846   72.6849   28.0811 C.ar    1  UNL1        0.0000
@<TRIPOS>BOND
     1    33    34    1
     2    34    35   ar
     3    35    29    1
     4    29    30    2
     5    29    31   am
     6    31     1    1
     7     1     2   ar
     8     2     3   ar
     9     3     4   ar
    10     4     7    1
    11     7     8    1
    12     8     9    1
    13     9    10    1
    14    10    13    1
    15    13    14    1
    16    14    15    1
    17    15    16   ar
    18    16    17   ar
    19    17    21    1
    20    21    22    2
    21    21    23    1
    22    17    18   ar
    23    18    19   ar
    24    19    25    1
    25    25    26    2
    26    25    27    1
    27    19    20   ar
    28    10    11    1
    29    11    12    1
    30     4     5   ar
    31     5     6   ar
    32    35    36   ar
    33    36    37   ar
    34    37    38   ar
    35    38    39   ar
    36    39    40   ar
    37    40    43    1
    38    43    44   ar
    39    44    45   ar
    40    45    46   ar
    41    46    47   ar
    42    47    48   ar
    43    40    41   ar
    44    41    42   ar
    45    42    34   ar
    46     6     1   ar
    47    42    37   ar
    48    12     7    1
    49    48    43   ar
    50    20    15   ar
    51    31    32    1
    52    23    24    1
    53    27    28    1
@<TRIPOS>MOLECULE
*****
 48 53 0 0 0
SMALL
GASTEIGER

@<TRIPOS>ATOM
      1 C          11.3942   81.0189   25.2633 C.ar    1  UNL1        0.0702
      2 C          12.3073   81.6087   26.1449 C.ar    1  UNL1        0.0191
      3 C          13.1417   82.6392   25.7098 C.ar    1  UNL1        0.0356
      4 C          13.0752   83.0694   24.3734 C.ar    1  UNL1        0.1318
      5 N          12.1923   82.4654   23.5290 N.ar    1  UNL1       -0.2279
      6 C          11.3669   81.4636   23.9321 C.ar    1  UNL1        0.1149
      7 N          13.9190   84.1344   23.8837 N.pl3   1  UNL1       -0.2932
      8 C          13.5864   85.5440   24.1540 C.3     1  UNL1        0.0923
      9 C          14.8383   86.4283   24.1005 C.3     1  UNL1        0.0252
     10 C          15.6098   86.2916   22.7637 C.3     1  UNL1        0.0472
     11 C          15.4706   84.8838   22.1290 C.3     1  UNL1        0.0252
     12 C          15.1631   83.8059   23.1709 C.3     1  UNL1        0.0923
     13 C          15.1805   87.3877   21.7661 C.3     1  UNL1        0.2054
     14 O          14.1084   86.9391   20.9345 O.3     1  UNL1       -0.4755
     15 C          14.2000   86.6483   19.5631 C.ar    1  UNL1        0.1390
     16 C          14.4505   85.3239   19.1905 C.ar    1  UNL1        0.0433
     17 C          14.5585   84.9615   17.8377 C.ar    1  UNL1        0.0787
     18 C          14.3896   85.9487   16.8521 C.ar    1  UNL1        0.0131
     19 C          14.1328   87.2845   17.2061 C.ar    1  UNL1        0.0787
     20 C          14.0395   87.6270   18.5648 C.ar    1  UNL1        0.0433
     21 C          14.8245   83.5568   17.4412 C.2     1  UNL1        0.3381
     22 O          14.2872   83.0877   16.4027 O.2     1  UNL1       -0.2451
     23 O          15.6722   82.7330   18.1811 O.3     1  UNL1       -0.4771
     24 H          16.2170   83.0729   18.9628 H       1  UNL1        0.2954
     25 C          13.9621   88.3210   16.1623 C.2     1  UNL1        0.3381
     26 O          12.8449   88.8809   15.9942 O.2     1  UNL1       -0.2451
     27 O          15.0354   88.6879   15.3543 O.3     1  UNL1       -0.4771
     28 H          14.9290   89.3957   14.6372 H       1  UNL1        0.2954
     29 C          11.0100   78.5918   25.9019 C.2     1  UNL1        0.2839
     30 O          12.1160   78.2238   25.4225 O.2     1  UNL1       -0.2665
     31 N          10.5565   79.9431   25.7205 N.am    1  UNL1       -0.2766
     32 H           9.5376   80.1395   25.8472 H       1  UNL1        0.1553
     33 C           7.9855   77.8000   25.1960 C.3     1  UNL1        0.0345
     34 C           8.8374   77.2738   26.3116 C.ar    1  UNL1        0.0202
     35 C          10.1577   77.6230   26.6170 C.ar    1  UNL1        0.1946
     36 O          10.5718   76.9451   27.6728 O.2     1  UNL1       -0.4492
     37 C           9.5880   76.1748   28.0683 C.ar    1  UNL1        0.1452
     38 C           9.5870   75.2918   29.1424 C.ar    1  UNL1        0.0375
     39 C           8.4159   74.5552   29.3903 C.ar    1  UNL1        0.0031
     40 C           7.2690   74.7109   28.5658 C.ar    1  UNL1        0.0002
     41 C           7.3117   75.6212   27.4824 C.ar    1  UNL1        0.0028
     42 C           8.4907   76.3362   27.2657 C.ar    1  UNL1        0.0337
     43 C           6.0373   73.9271   28.8373 C.ar    1  UNL1        0.0000
     44 C           5.1793   74.2854   29.8945 C.ar    1  UNL1        0.0000
     45 C           4.0202   73.5455   30.1478 C.ar    1  UNL1        0.0000
     46 C           3.7040   72.4431   29.3508 C.ar    1  UNL1        0.0000
     47 C           4.5466   72.0778   28.2986 C.ar    1  UNL1        0.0000
     48 C           5.7075   72.8135   28.0413 C.ar    1  UNL1        0.0000
@<TRIPOS>BOND
     1    33    34    1
     2    34    35   ar
     3    35    29    1
     4    29    30    2
     5    29    31   am
     6    31     1    1
     7     1     2   ar
     8     2     3   ar
     9     3     4   ar
    10     4     7    1
    11     7     8    1
    12     8     9    1
    13     9    10    1
    14    10    13    1
    15    13    14    1
    16    14    15    1
    17    15    16   ar
    18    16    17   ar
    19    17    21    1
    20    21    22    2
    21    21    23    1
    22    17    18   ar
    23    18    19   ar
    24    19    25    1
    25    25    26    2
    26    25    27    1
    27    19    20   ar
    28    10    11    1
    29    11    12    1
    30     4     5   ar
    31     5     6   ar
    32    35    36   ar
    33    36    37   ar
    34    37    38   ar
    35    38    39   ar
    36    39    40   ar
    37    40    43    1
    38    43    44   ar
    39    44    45   ar
    40    45    46   ar
    41    46    47   ar
    42    47    48   ar
    43    40    41   ar
    44    41    42   ar
    45    42    34   ar
    46     6     1   ar
    47    42    37   ar
    48    12     7    1
    49    48    43   ar
    50    20    15   ar
    51    31    32    1
    52    23    24    1
    53    27    28    1
@<TRIPOS>MOLECULE
*****
 48 53 0 0 0
SMALL
GASTEIGER

@<TRIPOS>ATOM
      1 C           9.9853   79.6025   23.9973 C.ar    1  UNL1        0.0702
      2 C           9.4532   78.7713   24.9898 C.ar    1  UNL1        0.0191
      3 C           8.7757   77.6022   24.6411 C.ar    1  UNL1        0.0356
      4 C           8.6118   77.2727   23.2846 C.ar    1  UNL1        0.1318
      5 N           9.1211   78.1086   22.3364 N.ar    1  UNL1       -0.2279
      6 C           9.7885   79.2496   22.6529 C.ar    1  UNL1        0.1149
      7 N           7.9199   76.0709   22.8813 N.pl3   1  UNL1       -0.2932
      8 C           7.8099   75.7062   21.4580 C.3     1  UNL1        0.0923
      9 C           7.6078   74.1956   21.2875 C.3     1  UNL1        0.0252
     10 C           6.3934   73.6610   22.0878 C.3     1  UNL1        0.0472
     11 C           6.1240   74.4676   23.3843 C.3     1  UNL1        0.0252
     12 C           7.3832   75.1629   23.9067 C.3     1  UNL1        0.0923
     13 C           5.1309   73.6087   21.2023 C.3     1  UNL1        0.2054
     14 O           4.0804   74.4071   21.7514 O.3     1  UNL1       -0.4755
     15 C           3.6361   75.6398   21.2447 C.ar    1  UNL1        0.1390
     16 C           2.7778   76.4036   22.0420 C.ar    1  UNL1        0.0433
     17 C           2.2912   77.6442   21.5978 C.ar    1  UNL1        0.0787
     18 C           2.6963   78.1247   20.3409 C.ar    1  UNL1        0.0131
     19 C           3.5618   77.3741   19.5268 C.ar    1  UNL1        0.0787
     20 C           4.0278   76.1314   19.9857 C.ar    1  UNL1        0.0433
     21 C           1.3804   78.4553   22.4425 C.2     1  UNL1        0.3381
     22 O           1.6903   78.7013   23.6387 O.2     1  UNL1       -0.2451
     23 O           0.1850   78.9736   21.9455 O.3     1  UNL1       -0.4771
     24 H          -0.0753   78.9048   20.9703 H       1  UNL1        0.2954
     25 C           3.9796   77.8836   18.2006 C.2     1  UNL1        0.3381
     26 O           3.8457   79.1041   17.9136 O.2     1  UNL1       -0.2451
     27 O           4.5250   77.0185   17.2554 O.3     1  UNL1       -0.4771
     28 H           4.8137   77.3570   16.3452 H       1  UNL1        0.2954
     29 C          12.0794   80.9127   24.5839 C.2     1  UNL1        0.2839
     30 O          12.7770   79.8695   24.6999 O.2     1  UNL1       -0.2665
     31 N          10.6616   80.8152   24.3716 N.am    1  UNL1       -0.2766
     32 H          10.0752   81.6542   24.5833 H       1  UNL1        0.1553
     33 C          13.2676   82.2394   27.2487 C.3     1  UNL1        0.0345
     34 C          13.2326   82.8223   25.8680 C.ar    1  UNL1        0.0202
     35 C          12.7119   82.2398   24.7070 C.ar    1  UNL1        0.1946
     36 O          12.8650   83.0597   23.6822 O.2     1  UNL1       -0.4492
     37 C          13.4575   84.1441   24.1189 C.ar    1  UNL1        0.1452
     38 C          13.8134   85.2670   23.3801 C.ar    1  UNL1        0.0375
     39 C          14.4476   86.3259   24.0526 C.ar    1  UNL1        0.0031
     40 C          14.7153   86.2477   25.4461 C.ar    1  UNL1        0.0002
     41 C          14.3361   85.0863   26.1614 C.ar    1  UNL1        0.0028
     42 C          13.7082   84.0546   25.4618 C.ar    1  UNL1        0.0337
     43 C          15.3861   87.3726   26.1458 C.ar    1  UNL1        0.0000
     44 C          14.9305   87.8055   27.4057 C.ar    1  UNL1        0.0000
     45 C          15.5641   88.8650   28.0624 C.ar    1  UNL1        0.0000
     46 C          16.6573   89.5025   27.4716 C.ar    1  UNL1        0.0000
     47 C          17.1192   89.0822   26.2225 C.ar    1  UNL1        0.0000
     48 C          16.4890   88.0238   25.5609 C.ar    1  UNL1        0.0000
@<TRIPOS>BOND
     1    33    34    1
     2    34    35   ar
     3    35    29    1
     4    29    30    2
     5    29    31   am
     6    31     1    1
     7     1     2   ar
     8     2     3   ar
     9     3     4   ar
    10     4     7    1
    11     7     8    1
    12     8     9    1
    13     9    10    1
    14    10    13    1
    15    13    14    1
    16    14    15    1
    17    15    16   ar
    18    16    17   ar
    19    17    21    1
    20    21    22    2
    21    21    23    1
    22    17    18   ar
    23    18    19   ar
    24    19    25    1
    25    25    26    2
    26    25    27    1
    27    19    20   ar
    28    10    11    1
    29    11    12    1
    30     4     5   ar
    31     5     6   ar
    32    35    36   ar
    33    36    37   ar
    34    37    38   ar
    35    38    39   ar
    36    39    40   ar
    37    40    43    1
    38    43    44   ar
    39    44    45   ar
    40    45    46   ar
    41    46    47   ar
    42    47    48   ar
    43    40    41   ar
    44    41    42   ar
    45    42    34   ar
    46     6     1   ar
    47    42    37   ar
    48    12     7    1
    49    48    43   ar
    50    20    15   ar
    51    31    32    1
    52    23    24    1
    53    27    28    1
@<TRIPOS>MOLECULE
*****
 48 53 0 0 0
SMALL
GASTEIGER

@<TRIPOS>ATOM
      1 C          10.4408   80.9263   24.8483 C.ar    1  UNL1        0.0702
      2 C          10.1450   80.4489   26.1303 C.ar    1  UNL1        0.0191
      3 C           9.4168   79.2694   26.2922 C.ar    1  UNL1        0.0356
      4 C           8.9631   78.5722   25.1593 C.ar    1  UNL1        0.1318
      5 N           9.2464   79.0682   23.9220 N.ar    1  UNL1       -0.2279
      6 C           9.9579   80.2121   23.7405 C.ar    1  UNL1        0.1149
      7 N           8.2092   77.3466   25.2830 N.pl3   1  UNL1       -0.2932
      8 C           6.8742   77.3427   25.9065 C.3     1  UNL1        0.0923
      9 C           6.0361   76.1569   25.4130 C.3     1  UNL1        0.0252
     10 C           6.7453   74.7953   25.6231 C.3     1  UNL1        0.0472
     11 C           8.2903   74.9028   25.5478 C.3     1  UNL1        0.0252
     12 C           8.7481   76.1017   24.7140 C.3     1  UNL1        0.0923
     13 C           6.3051   74.1447   26.9511 C.3     1  UNL1        0.2054
     14 O           7.1024   74.6074   28.0431 O.3     1  UNL1       -0.4755
     15 C           6.7842   75.6776   28.8958 C.ar    1  UNL1        0.1390
     16 C           7.8242   76.5162   29.3089 C.ar    1  UNL1        0.0433
     17 C           7.5800   77.6034   30.1644 C.ar    1  UNL1        0.0787
     18 C           6.2640   77.8549   30.5881 C.ar    1  UNL1        0.0131
     19 C           5.2044   77.0263   30.1803 C.ar    1  UNL1        0.0787
     20 C           5.4725   75.9385   29.3336 C.ar    1  UNL1        0.0433
     21 C           8.6825   78.4936   30.6036 C.2     1  UNL1        0.3381
     22 O           9.8331   78.3545   30.1097 O.2     1  UNL1       -0.2451
     23 O           8.4811   79.5018   31.5457 O.3     1  UNL1       -0.4771
     24 H           7.5650   79.7377   31.9043 H       1  UNL1        0.2954
     25 C           3.8209   77.2935   30.6357 C.2     1  UNL1        0.3381
     26 O           2.8993   76.4660   30.3997 O.2     1  UNL1       -0.2451
     27 O           3.5232   78.4636   31.3298 O.3     1  UNL1       -0.4771
     28 H           2.5799   78.6559   31.6454 H       1  UNL1        0.2954
     29 C          12.6055   82.2502   24.7601 C.2     1  UNL1        0.2839
     30 O          13.2867   81.2885   25.2069 O.2     1  UNL1       -0.2665
     31 N          11.1731   82.1548   24.6976 N.am    1  UNL1       -0.2766
     32 H          10.6254   83.0419   24.6224 H       1  UNL1        0.1553
     33 C          15.5210   82.5192   23.4562 C.3     1  UNL1        0.0345
     34 C          14.5479   83.6163   23.7671 C.ar    1  UNL1        0.0202
     35 C          13.2757   83.4945   24.3374 C.ar    1  UNL1        0.1946
     36 O          12.7173   84.6862   24.4550 O.2     1  UNL1       -0.4492
     37 C          13.5617   85.5745   23.9909 C.ar    1  UNL1        0.1452
     38 C          13.3840   86.9517   23.9206 C.ar    1  UNL1        0.0375
     39 C          14.4259   87.7251   23.3804 C.ar    1  UNL1        0.0031
     40 C          15.6240   87.1142   22.9209 C.ar    1  UNL1        0.0002
     41 C          15.7648   85.7084   23.0110 C.ar    1  UNL1        0.0028
     42 C          14.7104   84.9718   23.5530 C.ar    1  UNL1        0.0337
     43 C          16.7179   87.9415   22.3518 C.ar    1  UNL1        0.0000
     44 C          17.9625   88.0296   23.0044 C.ar    1  UNL1        0.0000
     45 C          18.9908   88.8094   22.4662 C.ar    1  UNL1        0.0000
     46 C          18.7903   89.5075   21.2734 C.ar    1  UNL1        0.0000
     47 C          17.5607   89.4279   20.6161 C.ar    1  UNL1        0.0000
     48 C          16.5284   88.6505   21.1501 C.ar    1  UNL1        0.0000
@<TRIPOS>BOND
     1    33    34    1
     2    34    35   ar
     3    35    29    1
     4    29    30    2
     5    29    31   am
     6    31     1    1
     7     1     2   ar
     8     2     3   ar
     9     3     4   ar
    10     4     7    1
    11     7     8    1
    12     8     9    1
    13     9    10    1
    14    10    13    1
    15    13    14    1
    16    14    15    1
    17    15    16   ar
    18    16    17   ar
    19    17    21    1
    20    21    22    2
    21    21    23    1
    22    17    18   ar
    23    18    19   ar
    24    19    25    1
    25    25    26    2
    26    25    27    1
    27    19    20   ar
    28    10    11    1
    29    11    12    1
    30     4     5   ar
    31     5     6   ar
    32    35    36   ar
    33    36    37   ar
    34    37    38   ar
    35    38    39   ar
    36    39    40   ar
    37    40    43    1
    38    43    44   ar
    39    44    45   ar
    40    45    46   ar
    41    46    47   ar
    42    47    48   ar
    43    40    41   ar
    44    41    42   ar
    45    42    34   ar
    46     6     1   ar
    47    42    37   ar
    48    12     7    1
    49    48    43   ar
    50    20    15   ar
    51    31    32    1
    52    23    24    1
    53    27    28    1
@<TRIPOS>MOLECULE
*****
 48 53 0 0 0
SMALL
GASTEIGER

@<TRIPOS>ATOM
      1 C          10.0924   79.5663   24.1178 C.ar    1  UNL1        0.0702
      2 C           9.8840   78.5056   25.0069 C.ar    1  UNL1        0.0191
      3 C           9.1945   77.3649   24.5936 C.ar    1  UNL1        0.0356
      4 C           8.6912   77.2942   23.2832 C.ar    1  UNL1        0.1318
      5 N           8.8893   78.3484   22.4425 N.ar    1  UNL1       -0.2279
      6 C           9.5618   79.4670   22.8220 C.ar    1  UNL1        0.1149
      7 N           7.9747   76.1309   22.8149 N.pl3   1  UNL1       -0.2932
      8 C           7.3169   76.1312   21.4965 C.3     1  UNL1        0.0923
      9 C           7.1617   74.7049   20.9549 C.3     1  UNL1        0.0252
     10 C           6.4178   73.7689   21.9406 C.3     1  UNL1        0.0472
     11 C           6.6498   74.1510   23.4253 C.3     1  UNL1        0.0252
     12 C           7.9643   74.9071   23.6309 C.3     1  UNL1        0.0923
     13 C           4.9101   73.7157   21.6172 C.3     1  UNL1        0.2054
     14 O           4.4262   74.9923   21.1948 O.3     1  UNL1       -0.4755
     15 C           3.7912   75.9411   22.0134 C.ar    1  UNL1        0.1390
     16 C           4.0444   75.8931   23.3879 C.ar    1  UNL1        0.0433
     17 C           3.4409   76.8080   24.2666 C.ar    1  UNL1        0.0787
     18 C           2.5886   77.7950   23.7431 C.ar    1  UNL1        0.0131
     19 C           2.3251   77.8626   22.3642 C.ar    1  UNL1        0.0787
     20 C           2.9303   76.9313   21.5049 C.ar    1  UNL1        0.0433
     21 C           3.7085   76.7580   25.7250 C.2     1  UNL1        0.3381
     22 O           4.5294   75.9184   26.1818 O.2     1  UNL1       -0.2451
     23 O           3.0849   77.6305   26.6163 O.3     1  UNL1       -0.4771
     24 H           2.4974   78.3950   26.3098 H       1  UNL1        0.2954
     25 C           1.4208   78.9014   21.8201 C.2     1  UNL1        0.3381
     26 O           1.8909   79.9246   21.2527 O.2     1  UNL1       -0.2451
     27 O           0.0398   78.7586   21.9301 O.3     1  UNL1       -0.4771
     28 H          -0.5874   79.4637   21.5615 H       1  UNL1        0.2954
     29 C          12.2132   80.9021   24.5231 C.2     1  UNL1        0.2839
     30 O          12.9564   79.9040   24.3234 O.2     1  UNL1       -0.2665
     31 N          10.7855   80.7443   24.5650 N.am    1  UNL1       -0.2766
     32 H          10.2226   81.4952   25.0252 H       1  UNL1        0.1553
     33 C          12.8994   82.2355   27.3557 C.3     1  UNL1        0.0345
     34 C          13.1122   82.8164   25.9902 C.ar    1  UNL1        0.0202
     35 C          12.8103   82.2309   24.7555 C.ar    1  UNL1        0.1946
     36 O          13.1434   83.0497   23.7735 O.2     1  UNL1       -0.4492
     37 C          13.6453   84.1362   24.3076 C.ar    1  UNL1        0.1452
     38 C          14.1258   85.2589   23.6428 C.ar    1  UNL1        0.0375
     39 C          14.6263   86.3204   24.4165 C.ar    1  UNL1        0.0031
     40 C          14.6390   86.2449   25.8356 C.ar    1  UNL1        0.0002
     41 C          14.1398   85.0836   26.4731 C.ar    1  UNL1        0.0028
     42 C          13.6504   84.0492   25.6739 C.ar    1  UNL1        0.0337
     43 C          15.1705   87.3725   26.6425 C.ar    1  UNL1        0.0000
     44 C          14.8788   87.4693   28.0165 C.ar    1  UNL1        0.0000
     45 C          15.3806   88.5322   28.7739 C.ar    1  UNL1        0.0000
     46 C          16.1779   89.5075   28.1711 C.ar    1  UNL1        0.0000
     47 C          16.4750   89.4225   26.8092 C.ar    1  UNL1        0.0000
     48 C          15.9752   88.3624   26.0466 C.ar    1  UNL1        0.0000
@<TRIPOS>BOND
     1    33    34    1
     2    34    35   ar
     3    35    29    1
     4    29    30    2
     5    29    31   am
     6    31     1    1
     7     1     2   ar
     8     2     3   ar
     9     3     4   ar
    10     4     7    1
    11     7     8    1
    12     8     9    1
    13     9    10    1
    14    10    13    1
    15    13    14    1
    16    14    15    1
    17    15    16   ar
    18    16    17   ar
    19    17    21    1
    20    21    22    2
    21    21    23    1
    22    17    18   ar
    23    18    19   ar
    24    19    25    1
    25    25    26    2
    26    25    27    1
    27    19    20   ar
    28    10    11    1
    29    11    12    1
    30     4     5   ar
    31     5     6   ar
    32    35    36   ar
    33    36    37   ar
    34    37    38   ar
    35    38    39   ar
    36    39    40   ar
    37    40    43    1
    38    43    44   ar
    39    44    45   ar
    40    45    46   ar
    41    46    47   ar
    42    47    48   ar
    43    40    41   ar
    44    41    42   ar
    45    42    34   ar
    46     6     1   ar
    47    42    37   ar
    48    12     7    1
    49    48    43   ar
    50    20    15   ar
    51    31    32    1
    52    23    24    1
    53    27    28    1
@<TRIPOS>MOLECULE
*****
 48 53 0 0 0
SMALL
GASTEIGER

@<TRIPOS>ATOM
      1 C           9.9621   79.7698   23.7688 C.ar    1  UNL1        0.0702
      2 C           9.4947   78.8824   24.7451 C.ar    1  UNL1        0.0191
      3 C           8.8170   77.7201   24.3743 C.ar    1  UNL1        0.0356
      4 C           8.5873   77.4542   23.0134 C.ar    1  UNL1        0.1318
      5 N           9.0343   78.3438   22.0827 N.ar    1  UNL1       -0.2279
      6 C           9.7006   79.4793   22.4205 C.ar    1  UNL1        0.1149
      7 N           7.8928   76.2618   22.5873 N.pl3   1  UNL1       -0.2932
      8 C           7.2264   76.2064   21.2744 C.3     1  UNL1        0.0923
      9 C           7.0980   74.7606   20.7792 C.3     1  UNL1        0.0252
     10 C           6.3808   73.8409   21.7994 C.3     1  UNL1        0.0472
     11 C           6.6144   74.2747   23.2696 C.3     1  UNL1        0.0252
     12 C           7.9138   75.0645   23.4416 C.3     1  UNL1        0.0923
     13 C           4.8725   73.7457   21.4889 C.3     1  UNL1        0.2054
     14 O           4.3317   75.0250   21.1525 O.3     1  UNL1       -0.4755
     15 C           3.7397   75.9278   22.0515 C.ar    1  UNL1        0.1390
     16 C           2.8967   76.9135   21.5287 C.ar    1  UNL1        0.0433
     17 C           2.2738   77.8518   22.3682 C.ar    1  UNL1        0.0787
     18 C           2.4914   77.7763   23.7544 C.ar    1  UNL1        0.0131
     19 C           3.3316   76.7902   24.2997 C.ar    1  UNL1        0.0787
     20 C           3.9529   75.8688   23.4412 C.ar    1  UNL1        0.0433
     21 C           1.3795   78.8982   21.8148 C.2     1  UNL1        0.3381
     22 O           1.8719   79.8754   21.1904 O.2     1  UNL1       -0.2451
     23 O          -0.0065   78.8269   21.9514 O.3     1  UNL1       -0.4771
     24 H          -0.4746   78.0220   22.3468 H       1  UNL1        0.2954
     25 C           3.5615   76.7204   25.7609 C.2     1  UNL1        0.3381
     26 O           4.2702   75.8009   26.2532 O.2     1  UNL1       -0.2451
     27 O           2.9961   77.6707   26.6075 O.3     1  UNL1       -0.4771
     28 H           3.1470   77.6316   27.6085 H       1  UNL1        0.2954
     29 C          12.0372   81.0406   24.4934 C.2     1  UNL1        0.2839
     30 O          12.6934   79.9831   24.6925 O.2     1  UNL1       -0.2665
     31 N          10.6394   80.9741   24.1673 N.am    1  UNL1       -0.2766
     32 H          10.0615   81.8335   24.3090 H       1  UNL1        0.1553
     33 C          13.2338   82.3144   27.1802 C.3     1  UNL1        0.0345
     34 C          13.2190   82.9130   25.8059 C.ar    1  UNL1        0.0202
     35 C          12.6946   82.3536   24.6352 C.ar    1  UNL1        0.1946
     36 O          12.8702   83.1816   23.6206 O.2     1  UNL1       -0.4492
     37 C          13.4809   84.2494   24.0730 C.ar    1  UNL1        0.1452
     38 C          13.8633   85.3731   23.3490 C.ar    1  UNL1        0.0375
     39 C          14.5135   86.4120   24.0371 C.ar    1  UNL1        0.0031
     40 C          14.7707   86.3133   25.4313 C.ar    1  UNL1        0.0002
     41 C          14.3644   85.1518   26.1313 C.ar    1  UNL1        0.0028
     42 C          13.7210   84.1402   25.4164 C.ar    1  UNL1        0.0337
     43 C          15.4587   87.4171   26.1477 C.ar    1  UNL1        0.0000
     44 C          15.0987   87.7475   27.4682 C.ar    1  UNL1        0.0000
     45 C          15.7483   88.7874   28.1404 C.ar    1  UNL1        0.0000
     46 C          16.7625   89.5071   27.5050 C.ar    1  UNL1        0.0000
     47 C          17.1293   89.1889   26.1955 C.ar    1  UNL1        0.0000
     48 C          16.4825   88.1506   25.5182 C.ar    1  UNL1        0.0000
@<TRIPOS>BOND
     1    33    34    1
     2    34    35   ar
     3    35    29    1
     4    29    30    2
     5    29    31   am
     6    31     1    1
     7     1     2   ar
     8     2     3   ar
     9     3     4   ar
    10     4     7    1
    11     7     8    1
    12     8     9    1
    13     9    10    1
    14    10    13    1
    15    13    14    1
    16    14    15    1
    17    15    16   ar
    18    16    17   ar
    19    17    21    1
    20    21    22    2
    21    21    23    1
    22    17    18   ar
    23    18    19   ar
    24    19    25    1
    25    25    26    2
    26    25    27    1
    27    19    20   ar
    28    10    11    1
    29    11    12    1
    30     4     5   ar
    31     5     6   ar
    32    35    36   ar
    33    36    37   ar
    34    37    38   ar
    35    38    39   ar
    36    39    40   ar
    37    40    43    1
    38    43    44   ar
    39    44    45   ar
    40    45    46   ar
    41    46    47   ar
    42    47    48   ar
    43    40    41   ar
    44    41    42   ar
    45    42    34   ar
    46     6     1   ar
    47    42    37   ar
    48    12     7    1
    49    48    43   ar
    50    20    15   ar
    51    31    32    1
    52    23    24    1
    53    27    28    1
@<TRIPOS>MOLECULE
*****
 48 53 0 0 0
SMALL
GASTEIGER

@<TRIPOS>ATOM
      1 C          10.6825   81.1955   24.6993 C.ar    1  UNL1        0.0702
      2 C          10.1512   80.5732   23.5637 C.ar    1  UNL1        0.0191
      3 C           9.4515   79.3715   23.6813 C.ar    1  UNL1        0.0356
      4 C           9.2999   78.7768   24.9458 C.ar    1  UNL1        0.1318
      5 N           9.8440   79.3916   26.0335 N.ar    1  UNL1       -0.2279
      6 C          10.5251   80.5645   25.9433 C.ar    1  UNL1        0.1149
      7 N           8.5807   77.5354   25.1113 N.pl3   1  UNL1       -0.2932
      8 C           8.0669   76.8005   23.9421 C.3     1  UNL1        0.0923
      9 C           7.8998   75.3086   24.2556 C.3     1  UNL1        0.0252
     10 C           7.0106   75.0551   25.4991 C.3     1  UNL1        0.0472
     11 C           7.1027   76.1935   26.5477 C.3     1  UNL1        0.0252
     12 C           8.4237   76.9606   26.4562 C.3     1  UNL1        0.0923
     13 C           5.5448   74.8073   25.0860 C.3     1  UNL1        0.2054
     14 O           4.9262   76.0109   24.6267 O.3     1  UNL1       -0.4755
     15 C           4.2975   76.1874   23.3828 C.ar    1  UNL1        0.1390
     16 C           3.4203   77.2672   23.2407 C.ar    1  UNL1        0.0433
     17 C           2.7539   77.5024   22.0267 C.ar    1  UNL1        0.0787
     18 C           2.9959   76.6458   20.9393 C.ar    1  UNL1        0.0131
     19 C           3.8774   75.5578   21.0608 C.ar    1  UNL1        0.0787
     20 C           4.5249   75.3346   22.2868 C.ar    1  UNL1        0.0433
     21 C           1.8228   78.6474   21.8747 C.2     1  UNL1        0.3381
     22 O           2.2309   79.7206   21.3561 O.2     1  UNL1       -0.2451
     23 O           0.4903   78.5688   22.2782 O.3     1  UNL1       -0.4771
     24 H           0.0692   77.7085   22.6040 H       1  UNL1        0.2954
     25 C           4.1230   74.6554   19.9126 C.2     1  UNL1        0.3381
     26 O           4.0884   75.0984   18.7326 O.2     1  UNL1       -0.2451
     27 O           4.3946   73.3061   20.1250 O.3     1  UNL1       -0.4771
     28 H           4.5637   72.6804   19.3464 H       1  UNL1        0.2954
     29 C          12.8047   82.5728   24.9123 C.2     1  UNL1        0.2839
     30 O          13.3819   81.6937   25.6070 O.2     1  UNL1       -0.2665
     31 N          11.4200   82.4221   24.5593 N.am    1  UNL1       -0.2766
     32 H          10.8941   83.2752   24.2624 H       1  UNL1        0.1553
     33 C          15.4230   82.6906   23.0673 C.3     1  UNL1        0.0345
     34 C          14.6827   83.8372   23.6877 C.ar    1  UNL1        0.0202
     35 C          13.5400   83.7812   24.4936 C.ar    1  UNL1        0.1946
     36 O          13.1781   85.0010   24.8498 O.2     1  UNL1       -0.4492
     37 C          14.0274   85.8451   24.3170 C.ar    1  UNL1        0.1452
     38 C          14.0240   87.2308   24.4311 C.ar    1  UNL1        0.0375
     39 C          15.0353   87.9500   23.7711 C.ar    1  UNL1        0.0031
     40 C          16.0301   87.2775   23.0110 C.ar    1  UNL1        0.0002
     41 C          15.9976   85.8651   22.9208 C.ar    1  UNL1        0.0028
     42 C          14.9794   85.1832   23.5890 C.ar    1  UNL1        0.0337
     43 C          17.0935   88.0480   22.3178 C.ar    1  UNL1        0.0000
     44 C          18.3315   88.2839   22.9457 C.ar    1  UNL1        0.0000
     45 C          19.3311   89.0097   22.2906 C.ar    1  UNL1        0.0000
     46 C          19.1082   89.5063   21.0045 C.ar    1  UNL1        0.0000
     47 C          17.8848   89.2786   20.3705 C.ar    1  UNL1        0.0000
     48 C          16.8812   88.5543   21.0212 C.ar    1  UNL1        0.0000
@<TRIPOS>BOND
     1    33    34    1
     2    34    35   ar
     3    35    29    1
     4    29    30    2
     5    29    31   am
     6    31     1    1
     7     1     2   ar
     8     2     3   ar
     9     3     4   ar
    10     4     7    1
    11     7     8    1
    12     8     9    1
    13     9    10    1
    14    10    13    1
    15    13    14    1
    16    14    15    1
    17    15    16   ar
    18    16    17   ar
    19    17    21    1
    20    21    22    2
    21    21    23    1
    22    17    18   ar
    23    18    19   ar
    24    19    25    1
    25    25    26    2
    26    25    27    1
    27    19    20   ar
    28    10    11    1
    29    11    12    1
    30     4     5   ar
    31     5     6   ar
    32    35    36   ar
    33    36    37   ar
    34    37    38   ar
    35    38    39   ar
    36    39    40   ar
    37    40    43    1
    38    43    44   ar
    39    44    45   ar
    40    45    46   ar
    41    46    47   ar
    42    47    48   ar
    43    40    41   ar
    44    41    42   ar
    45    42    34   ar
    46     6     1   ar
    47    42    37   ar
    48    12     7    1
    49    48    43   ar
    50    20    15   ar
    51    31    32    1
    52    23    24    1
    53    27    28    1
@<TRIPOS>MOLECULE
*****
 48 53 0 0 0
SMALL
GASTEIGER

@<TRIPOS>ATOM
      1 C          11.5271   81.0129   25.1525 C.ar    1  UNL1        0.0702
      2 C          12.4692   81.5843   26.0156 C.ar    1  UNL1        0.0191
      3 C          13.2664   82.6458   25.5852 C.ar    1  UNL1        0.0356
      4 C          13.1331   83.1263   24.2711 C.ar    1  UNL1        0.1318
      5 N          12.2230   82.5399   23.4433 N.ar    1  UNL1       -0.2279
      6 C          11.4329   81.5085   23.8424 C.ar    1  UNL1        0.1149
      7 N          13.9365   84.2246   23.7872 N.pl3   1  UNL1       -0.2932
      8 C          13.6476   85.6090   24.2003 C.3     1  UNL1        0.0923
      9 C          14.8979   86.4907   24.0946 C.3     1  UNL1        0.0252
     10 C          15.5335   86.4595   22.6817 C.3     1  UNL1        0.0472
     11 C          15.3174   85.1076   21.9537 C.3     1  UNL1        0.0252
     12 C          15.1014   83.9505   22.9316 C.3     1  UNL1        0.0923
     13 C          15.0209   87.6335   21.8217 C.3     1  UNL1        0.2054
     14 O          15.2920   87.4162   20.4355 O.3     1  UNL1       -0.4755
     15 C          14.4794   87.8281   19.3660 C.ar    1  UNL1        0.1390
     16 C          13.1355   88.1060   19.6350 C.ar    1  UNL1        0.0433
     17 C          12.2641   88.5189   18.6135 C.ar    1  UNL1        0.0787
     18 C          12.7660   88.6717   17.3099 C.ar    1  UNL1        0.0131
     19 C          14.1146   88.4016   17.0203 C.ar    1  UNL1        0.0787
     20 C          14.9659   87.9796   18.0543 C.ar    1  UNL1        0.0433
     21 C          10.8382   88.8138   18.8975 C.2     1  UNL1        0.3381
     22 O          10.1693   89.5073   18.0858 O.2     1  UNL1       -0.2451
     23 O          10.2017   88.3299   20.0401 O.3     1  UNL1       -0.4771
     24 H          10.6457   87.6831   20.6788 H       1  UNL1        0.2954
     25 C          14.6354   88.5587   15.6430 C.2     1  UNL1        0.3381
     26 O          14.0590   87.9951   14.6735 O.2     1  UNL1       -0.2451
     27 O          15.7692   89.3314   15.4043 O.3     1  UNL1       -0.4771
     28 H          16.1337   89.4449   14.4659 H       1  UNL1        0.2954
     29 C          11.2676   78.6351   26.0039 C.2     1  UNL1        0.2839
     30 O          12.4638   78.3409   25.7373 O.2     1  UNL1       -0.2665
     31 N          10.7283   79.9053   25.6032 N.am    1  UNL1       -0.2766
     32 H           9.6888   80.0037   25.5559 H       1  UNL1        0.1553
     33 C           8.1567   78.0912   25.4570 C.3     1  UNL1        0.0345
     34 C           9.0463   77.4164   26.4573 C.ar    1  UNL1        0.0202
     35 C          10.4044   77.6576   26.6935 C.ar    1  UNL1        0.1946
     36 O          10.8441   76.8634   27.6536 O.2     1  UNL1       -0.4492
     37 C           9.8412   76.1201   28.0526 C.ar    1  UNL1        0.1452
     38 C           9.8555   75.1449   29.0436 C.ar    1  UNL1        0.0375
     39 C           8.6582   74.4595   29.3126 C.ar    1  UNL1        0.0031
     40 C           7.4704   74.7570   28.5913 C.ar    1  UNL1        0.0002
     41 C           7.4988   75.7577   27.5903 C.ar    1  UNL1        0.0028
     42 C           8.7047   76.4183   27.3498 C.ar    1  UNL1        0.0337
     43 C           6.2115   74.0261   28.8841 C.ar    1  UNL1        0.0000
     44 C           5.3763   74.4340   29.9418 C.ar    1  UNL1        0.0000
     45 C           4.1914   73.7438   30.2153 C.ar    1  UNL1        0.0000
     46 C           3.8263   72.6424   29.4381 C.ar    1  UNL1        0.0000
     47 C           4.6457   72.2282   28.3857 C.ar    1  UNL1        0.0000
     48 C           5.8323   72.9140   28.1083 C.ar    1  UNL1        0.0000
@<TRIPOS>BOND
     1    33    34    1
     2    34    35   ar
     3    35    29    1
     4    29    30    2
     5    29    31   am
     6    31     1    1
     7     1     2   ar
     8     2     3   ar
     9     3     4   ar
    10     4     7    1
    11     7     8    1
    12     8     9    1
    13     9    10    1
    14    10    13    1
    15    13    14    1
    16    14    15    1
    17    15    16   ar
    18    16    17   ar
    19    17    21    1
    20    21    22    2
    21    21    23    1
    22    17    18   ar
    23    18    19   ar
    24    19    25    1
    25    25    26    2
    26    25    27    1
    27    19    20   ar
    28    10    11    1
    29    11    12    1
    30     4     5   ar
    31     5     6   ar
    32    35    36   ar
    33    36    37   ar
    34    37    38   ar
    35    38    39   ar
    36    39    40   ar
    37    40    43    1
    38    43    44   ar
    39    44    45   ar
    40    45    46   ar
    41    46    47   ar
    42    47    48   ar
    43    40    41   ar
    44    41    42   ar
    45    42    34   ar
    46     6     1   ar
    47    42    37   ar
    48    12     7    1
    49    48    43   ar
    50    20    15   ar
    51    31    32    1
    52    23    24    1
    53    27    28    1
@<TRIPOS>MOLECULE
*****
 48 53 0 0 0
SMALL
GASTEIGER

@<TRIPOS>ATOM
      1 C          10.6991   81.2170   24.7891 C.ar    1  UNL1        0.0702
      2 C          10.1755   80.5417   23.6806 C.ar    1  UNL1        0.0191
      3 C           9.5013   79.3312   23.8468 C.ar    1  UNL1        0.0356
      4 C           9.3678   78.7815   25.1335 C.ar    1  UNL1        0.1318
      5 N           9.9040   79.4478   26.1946 N.ar    1  UNL1       -0.2279
      6 C          10.5603   80.6301   26.0568 C.ar    1  UNL1        0.1149
      7 N           8.6751   77.5327   25.3493 N.pl3   1  UNL1       -0.2932
      8 C           8.1256   76.7700   24.2148 C.3     1  UNL1        0.0923
      9 C           7.9944   75.2815   24.5600 C.3     1  UNL1        0.0252
     10 C           7.1605   75.0368   25.8429 C.3     1  UNL1        0.0472
     11 C           7.2775   76.1946   26.8675 C.3     1  UNL1        0.0252
     12 C           8.5818   76.9794   26.7091 C.3     1  UNL1        0.0923
     13 C           5.6831   74.7602   25.4944 C.3     1  UNL1        0.2054
     14 O           5.0295   75.9450   25.0347 O.3     1  UNL1       -0.4755
     15 C           4.3339   76.0805   23.8217 C.ar    1  UNL1        0.1390
     16 C           4.7959   75.3559   22.7184 C.ar    1  UNL1        0.0433
     17 C           4.1518   75.4458   21.4733 C.ar    1  UNL1        0.0787
     18 C           3.0149   76.2627   21.3515 C.ar    1  UNL1        0.0131
     19 C           2.5324   76.9952   22.4497 C.ar    1  UNL1        0.0787
     20 C           3.1979   76.8992   23.6826 C.ar    1  UNL1        0.0433
     21 C           4.6410   74.6779   20.3020 C.2     1  UNL1        0.3381
     22 O           5.5575   75.1541   19.5805 O.2     1  UNL1       -0.2451
     23 O           4.1239   73.4239   19.9782 O.3     1  UNL1       -0.4771
     24 H           3.4641   72.9368   20.5704 H       1  UNL1        0.2954
     25 C           1.3374   77.8591   22.3126 C.2     1  UNL1        0.3381
     26 O           1.3931   79.0806   22.6202 O.2     1  UNL1       -0.2451
     27 O           0.1381   77.3299   21.8424 O.3     1  UNL1       -0.4771
     28 H          -0.6852   77.9123   21.7453 H       1  UNL1        0.2954
     29 C          12.7747   82.6642   24.9977 C.2     1  UNL1        0.2839
     30 O          13.3441   81.8480   25.7711 O.2     1  UNL1       -0.2665
     31 N          11.4104   82.4523   24.5994 N.am    1  UNL1       -0.2766
     32 H          10.8760   83.2695   24.2263 H       1  UNL1        0.1553
     33 C          15.4937   82.7371   23.3022 C.3     1  UNL1        0.0345
     34 C          14.6827   83.8996   23.7900 C.ar    1  UNL1        0.0202
     35 C          13.4961   83.8634   24.5310 C.ar    1  UNL1        0.1946
     36 O          13.0761   85.0927   24.7720 O.2     1  UNL1       -0.4492
     37 C          13.9293   85.9244   24.2261 C.ar    1  UNL1        0.1452
     38 C          13.8763   87.3137   24.2341 C.ar    1  UNL1        0.0375
     39 C          14.9027   88.0172   23.5803 C.ar    1  UNL1        0.0031
     40 C          15.9614   87.3257   22.9318 C.ar    1  UNL1        0.0002
     41 C          15.9779   85.9102   22.9477 C.ar    1  UNL1        0.0028
     42 C          14.9431   85.2443   23.6064 C.ar    1  UNL1        0.0337
     43 C          17.0401   88.0796   22.2441 C.ar    1  UNL1        0.0000
     44 C          18.2403   88.3840   22.9147 C.ar    1  UNL1        0.0000
     45 C          19.2544   89.0940   22.2646 C.ar    1  UNL1        0.0000
     46 C          19.0838   89.5066   20.9414 C.ar    1  UNL1        0.0000
     47 C          17.8984   89.2105   20.2650 C.ar    1  UNL1        0.0000
     48 C          16.8805   88.5015   20.9103 C.ar    1  UNL1        0.0000
@<TRIPOS>BOND
     1    33    34    1
     2    34    35   ar
     3    35    29    1
     4    29    30    2
     5    29    31   am
     6    31     1    1
     7     1     2   ar
     8     2     3   ar
     9     3     4   ar
    10     4     7    1
    11     7     8    1
    12     8     9    1
    13     9    10    1
    14    10    13    1
    15    13    14    1
    16    14    15    1
    17    15    16   ar
    18    16    17   ar
    19    17    21    1
    20    21    22    2
    21    21    23    1
    22    17    18   ar
    23    18    19   ar
    24    19    25    1
    25    25    26    2
    26    25    27    1
    27    19    20   ar
    28    10    11    1
    29    11    12    1
    30     4     5   ar
    31     5     6   ar
    32    35    36   ar
    33    36    37   ar
    34    37    38   ar
    35    38    39   ar
    36    39    40   ar
    37    40    43    1
    38    43    44   ar
    39    44    45   ar
    40    45    46   ar
    41    46    47   ar
    42    47    48   ar
    43    40    41   ar
    44    41    42   ar
    45    42    34   ar
    46     6     1   ar
    47    42    37   ar
    48    12     7    1
    49    48    43   ar
    50    20    15   ar
    51    31    32    1
    52    23    24    1
    53    27    28    1
