@<TRIPOS>MOLECULE
*****
 40 44 0 0 0
SMALL
GASTEIGER

@<TRIPOS>ATOM
      1 C          49.6527   11.4410  -21.4297 C.2     1  UNL1        0.2506
      2 O          50.8192   11.2731  -21.8782 O.2     1  UNL1       -0.2699
      3 N          48.5164   11.2887  -22.3036 N.am    1  UNL1       -0.2680
      4 C          47.2907   10.6538  -21.8080 C.3     1  UNL1        0.1412
      5 C          46.2256   11.7122  -21.5306 C.3     1  UNL1        0.2268
      6 O          46.3288   12.8103  -22.4351 O.3     1  UNL1       -0.4739
      7 C          46.3656   12.6422  -23.8210 C.ar    1  UNL1        0.1362
      8 C          45.3137   13.1675  -24.5765 C.ar    1  UNL1        0.0366
      9 C          45.2833   13.0053  -25.9611 C.ar    1  UNL1        0.0031
     10 C          46.3198   12.3267  -26.6200 C.ar    1  UNL1        0.0000
     11 C          47.3915   11.8207  -25.8638 C.ar    1  UNL1        0.0004
     12 C          47.4295   11.9653  -24.4656 C.ar    1  UNL1        0.0317
     13 C          48.6890   11.5103  -23.7464 C.3     1  UNL1        0.1236
     14 C          46.2908   12.1607  -28.0952 C.ar    1  UNL1        0.0027
     15 C          46.5312   10.8871  -28.6818 C.ar    1  UNL1        0.0157
     16 C          46.5048   10.7184  -30.0824 C.ar    1  UNL1        0.0609
     17 N          46.7492    9.4399  -30.6747 N.pl3   1  UNL1       -0.3558
     18 C          46.2362   11.8427  -30.8641 C.ar    1  UNL1        0.1113
     19 N          46.1587   11.9207  -32.2058 N.ar    1  UNL1       -0.2229
     20 C          45.8749   13.2324  -32.4189 C.ar    1  UNL1        0.1750
     21 N          45.7759   13.9552  -31.2780 N.ar    1  UNL1       -0.3349
     22 C          46.0073   13.0635  -30.3075 C.ar    1  UNL1        0.0769
     23 C          46.0247   13.2713  -28.9316 C.ar    1  UNL1        0.0186
     24 H          46.7312    9.3165  -31.7115 H       1  UNL1        0.1424
     25 H          46.9497    8.6066  -30.0781 H       1  UNL1        0.1424
     26 H          45.5668   14.9737  -31.1816 H       1  UNL1        0.1675
     27 C          48.9135   13.0101  -19.5949 C.ar    1  UNL1        0.0503
     28 C          48.7177   13.2403  -18.2176 C.ar    1  UNL1        0.0328
     29 C          49.1013   12.2859  -17.2678 C.ar    1  UNL1        0.1069
     30 C          49.6795   11.0844  -17.6859 C.ar    1  UNL1        0.0186
     31 C          49.8722   10.8348  -19.0439 C.ar    1  UNL1        0.0071
     32 C          49.4789   11.7777  -20.0043 C.ar    1  UNL1        0.0667
     33 S          48.8325   12.5939  -15.5550 S.O2    1  UNL1        0.0105
     34 C          50.3980   12.8412  -14.7492 C.3     1  UNL1        0.1816
     35 O          47.9806   13.8199  -15.3798 O.2     1  UNL1       -0.1686
     36 O          48.1246   11.4220  -14.9350 O.2     1  UNL1       -0.1686
     37 N          48.5807   14.0212  -20.5734 N.pl3   1  UNL1       -0.3325
     38 H          47.5772   14.2259  -20.7781 H       1  UNL1        0.1468
     39 C          48.9829   15.2716  -22.6468 C.3     1  UNL1        0.0229
     40 C          49.5609   14.8178  -21.3111 C.3     1  UNL1        0.0871
@<TRIPOS>BOND
     1    39    40    1
     2    40    37    1
     3    37    27    1
     4    27    28   ar
     5    28    29   ar
     6    29    33    1
     7    33    34    1
     8    33    35    2
     9    33    36    2
    10    29    30   ar
    11    30    31   ar
    12    31    32   ar
    13    32     1    1
    14     1     2    2
    15     1     3   am
    16     3     4    1
    17     4     5    1
    18     5     6    1
    19     6     7    1
    20     7     8   ar
    21     8     9   ar
    22     9    10   ar
    23    10    14    1
    24    14    15   ar
    25    15    16   ar
    26    16    17    1
    27    16    18   ar
    28    18    19   ar
    29    19    20   ar
    30    20    21   ar
    31    21    22   ar
    32    22    23   ar
    33    10    11   ar
    34    11    12   ar
    35    12    13    1
    36    32    27   ar
    37    13     3    1
    38    12     7   ar
    39    23    14   ar
    40    22    18   ar
    41    37    38    1
    42    17    24    1
    43    17    25    1
    44    21    26    1
@<TRIPOS>MOLECULE
*****
 40 44 0 0 0
SMALL
GASTEIGER

@<TRIPOS>ATOM
      1 C          48.6310    9.9003  -20.9908 C.2     1  UNL1        0.2506
      2 O          48.1908    8.7189  -21.0114 O.2     1  UNL1       -0.2699
      3 N          49.0594   10.5304  -22.2147 N.am    1  UNL1       -0.2680
      4 C          48.7721   11.9497  -22.4476 C.3     1  UNL1        0.1412
      5 C          50.0339   12.7831  -22.2360 C.3     1  UNL1        0.2268
      6 O          51.2072   12.0631  -22.6095 O.3     1  UNL1       -0.4739
      7 C          51.3467   11.4463  -23.8547 C.ar    1  UNL1        0.1362
      8 C          52.3428   11.9164  -24.7148 C.ar    1  UNL1        0.0366
      9 C          52.5096   11.3574  -25.9814 C.ar    1  UNL1        0.0031
     10 C          51.6900   10.3004  -26.4052 C.ar    1  UNL1        0.0000
     11 C          50.7048    9.8094  -25.5307 C.ar    1  UNL1        0.0004
     12 C          50.5164   10.3713  -24.2555 C.ar    1  UNL1        0.0317
     13 C          49.5242    9.6898  -23.3272 C.3     1  UNL1        0.1236
     14 C          51.8727    9.7005  -27.7510 C.ar    1  UNL1        0.0027
     15 C          53.0539    9.9590  -28.5008 C.ar    1  UNL1        0.0157
     16 C          53.2380    9.3930  -29.7800 C.ar    1  UNL1        0.0609
     17 N          54.4228    9.6538  -30.5370 N.pl3   1  UNL1       -0.3558
     18 C          52.2222    8.5757  -30.2776 C.ar    1  UNL1        0.1113
     19 N          52.1792    7.9328  -31.4597 N.ar    1  UNL1       -0.2229
     20 C          50.9799    7.2954  -31.4163 C.ar    1  UNL1        0.1750
     21 N          50.2923    7.5169  -30.2708 N.ar    1  UNL1       -0.3349
     22 C          51.0898    8.3268  -29.5648 C.ar    1  UNL1        0.0769
     23 C          50.8703    8.8658  -28.3007 C.ar    1  UNL1        0.0186
     24 H          54.5573    9.2358  -31.4845 H       1  UNL1        0.1424
     25 H          55.1751   10.2681  -30.1531 H       1  UNL1        0.1424
     26 H          49.3556    7.1406  -30.0036 H       1  UNL1        0.1675
     27 C          47.5241   11.1915  -19.1248 C.ar    1  UNL1        0.0503
     28 C          47.6336   11.8093  -17.8620 C.ar    1  UNL1        0.0328
     29 C          48.8669   11.8856  -17.2037 C.ar    1  UNL1        0.1069
     30 C          50.0061   11.3370  -17.7989 C.ar    1  UNL1        0.0186
     31 C          49.9156   10.7137  -19.0426 C.ar    1  UNL1        0.0071
     32 C          48.6829   10.6193  -19.7041 C.ar    1  UNL1        0.0667
     33 S          48.9721   12.6508  -15.6213 S.O2    1  UNL1        0.0105
     34 C          50.6730   12.7053  -15.1063 C.3     1  UNL1        0.1816
     35 O          48.4247   14.0491  -15.6880 O.2     1  UNL1       -0.1686
     36 O          48.1673   11.8648  -14.6246 O.2     1  UNL1       -0.1686
     37 N          46.2660   11.1709  -19.8368 N.pl3   1  UNL1       -0.3325
     38 H          46.0065   10.3271  -20.3950 H       1  UNL1        0.1468
     39 C          44.0612   11.8665  -19.0123 C.3     1  UNL1        0.0229
     40 C          45.2882   12.2589  -19.8275 C.3     1  UNL1        0.0871
@<TRIPOS>BOND
     1    39    40    1
     2    40    37    1
     3    37    27    1
     4    27    28   ar
     5    28    29   ar
     6    29    33    1
     7    33    34    1
     8    33    35    2
     9    33    36    2
    10    29    30   ar
    11    30    31   ar
    12    31    32   ar
    13    32     1    1
    14     1     2    2
    15     1     3   am
    16     3     4    1
    17     4     5    1
    18     5     6    1
    19     6     7    1
    20     7     8   ar
    21     8     9   ar
    22     9    10   ar
    23    10    14    1
    24    14    15   ar
    25    15    16   ar
    26    16    17    1
    27    16    18   ar
    28    18    19   ar
    29    19    20   ar
    30    20    21   ar
    31    21    22   ar
    32    22    23   ar
    33    10    11   ar
    34    11    12   ar
    35    12    13    1
    36    32    27   ar
    37    13     3    1
    38    12     7   ar
    39    23    14   ar
    40    22    18   ar
    41    37    38    1
    42    17    24    1
    43    17    25    1
    44    21    26    1
