@<TRIPOS>MOLECULE
*****
 41 45 0 0 0
SMALL
GASTEIGER

@<TRIPOS>ATOM
      1 C         -31.0681   49.8197   -6.8747 C.3     1  UNL1        0.1332
      2 N         -29.6519   50.0110   -6.5617 N.ar    1  UNL1       -0.2977
      3 C         -28.9880   49.7039   -5.4099 C.ar    1  UNL1        0.2018
      4 N         -27.6779   50.0613   -5.4208 N.ar    1  UNL1       -0.2135
      5 C         -27.5174   50.5839   -6.6487 C.ar    1  UNL1        0.0999
      6 C         -26.3313   51.0720   -7.2121 C.ar    1  UNL1        0.0282
      7 C         -26.3625   51.5412   -8.5499 C.ar    1  UNL1        0.0888
      8 C         -27.5890   51.4611   -9.2538 C.ar    1  UNL1        0.1401
      9 C         -28.7439   50.9950   -8.6681 C.ar    1  UNL1        0.0327
     10 C         -28.6968   50.5489   -7.3440 C.ar    1  UNL1        0.0789
     11 C         -29.8550   50.9981   -9.6593 C.3     1  UNL1        0.0709
     12 C         -29.1514   51.5031  -10.9616 C.3     1  UNL1        0.1375
     13 C         -29.7907   52.7980  -11.4806 C.3     1  UNL1        0.0439
     14 C         -29.1630   50.4254  -12.0541 C.3     1  UNL1        0.0439
     15 O         -27.7999   51.7682  -10.5819 O.3     1  UNL1       -0.4824
     16 C         -25.1287   52.0488   -9.1865 C.2     1  UNL1        0.2525
     17 O         -25.2031   53.0551   -9.9428 O.2     1  UNL1       -0.2697
     18 N         -23.8598   51.4111   -8.9508 N.am    1  UNL1       -0.2803
     19 H         -23.8170   50.6021   -8.2925 H       1  UNL1        0.1552
     20 C         -22.6150   51.8683   -9.5053 C.ar    1  UNL1        0.0507
     21 C         -22.3257   51.7232  -10.8710 C.ar    1  UNL1        0.0178
     22 C         -21.0988   52.1514  -11.3798 C.ar    1  UNL1        0.0378
     23 C         -20.1372   52.7165  -10.5321 C.ar    1  UNL1        0.1376
     24 O         -18.9157   53.1422  -11.0549 O.3     1  UNL1       -0.5056
     25 C         -20.4027   52.8484   -9.1542 C.ar    1  UNL1        0.1062
     26 C         -21.6434   52.4106   -8.6517 C.ar    1  UNL1        0.0216
     27 H         -18.7008   53.0565  -12.0414 H       1  UNL1        0.2922
     28 C         -19.3594   53.4481   -8.2393 C.3     1  UNL1        0.4214
     29 F         -19.1764   54.7812   -8.5592 F       1  UNL1       -0.1657
     30 F         -18.1415   52.7995   -8.3518 F       1  UNL1       -0.1657
     31 F         -19.7858   53.3525   -6.9270 F       1  UNL1       -0.1657
     32 N         -29.5751   49.0401   -4.2813 N.pl3   1  UNL1       -0.2814
     33 H         -30.2560   49.5816   -3.7030 H       1  UNL1        0.1551
     34 C         -29.2495   47.7039   -3.8650 C.ar    1  UNL1        0.0889
     35 C         -30.0755   46.6452   -4.2786 C.ar    1  UNL1        0.1543
     36 F         -31.1514   46.8870   -5.0694 F       1  UNL1       -0.2028
     37 C         -29.7826   45.3313   -3.9035 C.ar    1  UNL1        0.0310
     38 C         -28.6740   45.0628   -3.1000 C.ar    1  UNL1        0.0033
     39 C         -27.8618   46.1086   -2.6573 C.ar    1  UNL1        0.0128
     40 C         -28.1445   47.4298   -3.0252 C.ar    1  UNL1        0.0733
     41 CL        -27.1375   48.7073   -2.3524 Cl      1  UNL1       -0.0809
@<TRIPOS>BOND
     1     1     2    1
     2     2     3   ar
     3     3    32    1
     4    32    34    1
     5    34    35   ar
     6    35    36    1
     7    35    37   ar
     8    37    38   ar
     9    38    39   ar
    10    39    40   ar
    11    40    41    1
    12     3     4   ar
    13     4     5   ar
    14     5     6   ar
    15     6     7   ar
    16     7    16    1
    17    16    17    2
    18    16    18   am
    19    18    20    1
    20    20    21   ar
    21    21    22   ar
    22    22    23   ar
    23    23    24    1
    24    23    25   ar
    25    25    28    1
    26    28    29    1
    27    28    30    1
    28    28    31    1
    29    25    26   ar
    30     7     8   ar
    31     8     9   ar
    32     9    10   ar
    33     9    11    1
    34    11    12    1
    35    12    13    1
    36    12    14    1
    37    12    15    1
    38    10     2   ar
    39    40    34   ar
    40    10     5   ar
    41    26    20   ar
    42    15     8    1
    43    32    33    1
    44    18    19    1
    45    24    27    1
@<TRIPOS>MOLECULE
*****
 41 45 0 0 0
SMALL
GASTEIGER

@<TRIPOS>ATOM
      1 C         -25.7399   51.3073  -12.4181 C.3     1  UNL1        0.1332
      2 N         -25.2380   51.2510  -11.0451 N.ar    1  UNL1       -0.2977
      3 C         -24.0209   51.6435  -10.5694 C.ar    1  UNL1        0.2018
      4 N         -23.8479   51.4047   -9.2438 N.ar    1  UNL1       -0.2135
      5 C         -25.0251   50.8697   -8.8769 C.ar    1  UNL1        0.0999
      6 C         -25.4110   50.4765   -7.5889 C.ar    1  UNL1        0.0282
      7 C         -26.7240   49.9749   -7.4013 C.ar    1  UNL1        0.0888
      8 C         -27.5845   49.9282   -8.5253 C.ar    1  UNL1        0.1401
      9 C         -27.1716   50.3028   -9.7836 C.ar    1  UNL1        0.0327
     10 C         -25.8693   50.7824   -9.9518 C.ar    1  UNL1        0.0789
     11 C         -28.2988   50.1767  -10.7483 C.3     1  UNL1        0.0709
     12 C         -29.4794   49.7061   -9.8368 C.3     1  UNL1        0.1375
     13 C         -30.0314   48.3472  -10.2880 C.3     1  UNL1        0.0439
     14 C         -30.6014   50.7523   -9.7950 C.3     1  UNL1        0.0439
     15 O         -28.9172   49.5722   -8.5303 O.3     1  UNL1       -0.4824
     16 C         -27.1757   49.5650   -6.0547 C.2     1  UNL1        0.2525
     17 O         -26.4934   49.9104   -5.0521 O.2     1  UNL1       -0.2697
     18 N         -28.3739   48.7858   -5.8830 N.am    1  UNL1       -0.2803
     19 H         -28.9418   48.5427   -6.7244 H       1  UNL1        0.1552
     20 C         -28.8935   48.3813   -4.6053 C.ar    1  UNL1        0.0507
     21 C         -29.6302   49.2657   -3.8022 C.ar    1  UNL1        0.0178
     22 C         -30.1011   48.8567   -2.5539 C.ar    1  UNL1        0.0378
     23 C         -29.8317   47.5655   -2.0819 C.ar    1  UNL1        0.1376
     24 O         -30.3105   47.1693   -0.8328 O.3     1  UNL1       -0.5056
     25 C         -29.0737   46.6725   -2.8659 C.ar    1  UNL1        0.1062
     26 C         -28.6018   47.0972   -4.1230 C.ar    1  UNL1        0.0216
     27 H         -30.8561   47.7936   -0.2502 H       1  UNL1        0.2922
     28 C         -28.7745   45.2835   -2.3500 C.3     1  UNL1        0.4214
     29 F         -28.0594   45.3736   -1.1695 F       1  UNL1       -0.1657
     30 F         -28.0322   44.5460   -3.2565 F       1  UNL1       -0.1657
     31 F         -29.9610   44.6143   -2.1098 F       1  UNL1       -0.1657
     32 N         -23.0028   52.2786  -11.3563 N.pl3   1  UNL1       -0.2814
     33 H         -23.1575   52.3398  -12.3877 H       1  UNL1        0.1551
     34 C         -21.7663   52.7858  -10.8286 C.ar    1  UNL1        0.0889
     35 C         -20.6769   51.9088  -10.6934 C.ar    1  UNL1        0.1543
     36 F         -20.7941   50.6107  -11.0708 F       1  UNL1       -0.2028
     37 C         -19.4551   52.3697  -10.1958 C.ar    1  UNL1        0.0310
     38 C         -19.3132   53.7041   -9.8134 C.ar    1  UNL1        0.0033
     39 C         -20.3963   54.5793   -9.9145 C.ar    1  UNL1        0.0128
     40 C         -21.6262   54.1301  -10.4107 C.ar    1  UNL1        0.0733
     41 CL        -22.9752   55.2610  -10.4193 Cl      1  UNL1       -0.0809
@<TRIPOS>BOND
     1     1     2    1
     2     2     3   ar
     3     3    32    1
     4    32    34    1
     5    34    35   ar
     6    35    36    1
     7    35    37   ar
     8    37    38   ar
     9    38    39   ar
    10    39    40   ar
    11    40    41    1
    12     3     4   ar
    13     4     5   ar
    14     5     6   ar
    15     6     7   ar
    16     7    16    1
    17    16    17    2
    18    16    18   am
    19    18    20    1
    20    20    21   ar
    21    21    22   ar
    22    22    23   ar
    23    23    24    1
    24    23    25   ar
    25    25    28    1
    26    28    29    1
    27    28    30    1
    28    28    31    1
    29    25    26   ar
    30     7     8   ar
    31     8     9   ar
    32     9    10   ar
    33     9    11    1
    34    11    12    1
    35    12    13    1
    36    12    14    1
    37    12    15    1
    38    10     2   ar
    39    40    34   ar
    40    10     5   ar
    41    26    20   ar
    42    15     8    1
    43    32    33    1
    44    18    19    1
    45    24    27    1
@<TRIPOS>MOLECULE
*****
 41 45 0 0 0
SMALL
GASTEIGER

@<TRIPOS>ATOM
      1 C         -23.9354   52.7178  -11.3967 C.3     1  UNL1        0.1332
      2 N         -23.6782   52.0893  -10.1009 N.ar    1  UNL1       -0.2977
      3 C         -22.5453   52.1410   -9.3422 C.ar    1  UNL1        0.2018
      4 N         -22.6112   51.3974   -8.2079 N.ar    1  UNL1       -0.2135
      5 C         -23.8547   50.8888   -8.2517 C.ar    1  UNL1        0.0999
      6 C         -24.4708   50.0761   -7.2912 C.ar    1  UNL1        0.0282
      7 C         -25.8159   49.6809   -7.5039 C.ar    1  UNL1        0.0888
      8 C         -26.4728   50.1571   -8.6648 C.ar    1  UNL1        0.1401
      9 C         -25.8361   50.9385   -9.6018 C.ar    1  UNL1        0.0327
     10 C         -24.5057   51.3073   -9.3816 C.ar    1  UNL1        0.0789
     11 C         -26.7860   51.3089  -10.6869 C.3     1  UNL1        0.0709
     12 C         -28.1232   50.6518  -10.2112 C.3     1  UNL1        0.1375
     13 C         -28.6450   49.6339  -11.2342 C.3     1  UNL1        0.0439
     14 C         -29.1922   51.7137   -9.9198 C.3     1  UNL1        0.0439
     15 O         -27.7984   49.9712   -8.9979 O.3     1  UNL1       -0.4824
     16 C         -26.5073   48.8372   -6.5061 C.2     1  UNL1        0.2525
     17 O         -27.0098   47.7421   -6.8780 O.2     1  UNL1       -0.2697
     18 N         -26.6080   49.2517   -5.1312 N.am    1  UNL1       -0.2803
     19 H         -26.1530   50.1447   -4.8395 H       1  UNL1        0.1552
     20 C         -27.2327   48.4697   -4.0996 C.ar    1  UNL1        0.0507
     21 C         -28.3581   48.9402   -3.4054 C.ar    1  UNL1        0.0178
     22 C         -28.9300   48.1730   -2.3897 C.ar    1  UNL1        0.0378
     23 C         -28.3795   46.9328   -2.0414 C.ar    1  UNL1        0.1376
     24 O         -28.9629   46.1754   -1.0253 O.3     1  UNL1       -0.5056
     25 C         -27.2357   46.4560   -2.7129 C.ar    1  UNL1        0.1062
     26 C         -26.6658   47.2399   -3.7346 C.ar    1  UNL1        0.0216
     27 H         -29.7843   46.4975   -0.5270 H       1  UNL1        0.2922
     28 C         -26.6364   45.1226   -2.3279 C.3     1  UNL1        0.4214
     29 F         -27.2152   44.1205   -3.0854 F       1  UNL1       -0.1657
     30 F         -26.8404   44.8334   -0.9895 F       1  UNL1       -0.1657
     31 F         -25.2744   45.1415   -2.5682 F       1  UNL1       -0.1657
     32 N         -21.3827   52.9184   -9.6630 N.pl3   1  UNL1       -0.2814
     33 H         -21.5239   53.7917  -10.2186 H       1  UNL1        0.1551
     34 C         -20.0377   52.5489   -9.3178 C.ar    1  UNL1        0.0889
     35 C         -19.5652   52.8402   -8.0270 C.ar    1  UNL1        0.1543
     36 F         -20.3759   53.4467   -7.1235 F       1  UNL1       -0.2028
     37 C         -18.2670   52.4843   -7.6518 C.ar    1  UNL1        0.0310
     38 C         -17.4232   51.8499   -8.5643 C.ar    1  UNL1        0.0033
     39 C         -17.8699   51.5813   -9.8595 C.ar    1  UNL1        0.0128
     40 C         -19.1682   51.9334  -10.2486 C.ar    1  UNL1        0.0733
     41 CL        -19.6321   51.6541  -11.9235 Cl      1  UNL1       -0.0809
@<TRIPOS>BOND
     1     1     2    1
     2     2     3   ar
     3     3    32    1
     4    32    34    1
     5    34    35   ar
     6    35    36    1
     7    35    37   ar
     8    37    38   ar
     9    38    39   ar
    10    39    40   ar
    11    40    41    1
    12     3     4   ar
    13     4     5   ar
    14     5     6   ar
    15     6     7   ar
    16     7    16    1
    17    16    17    2
    18    16    18   am
    19    18    20    1
    20    20    21   ar
    21    21    22   ar
    22    22    23   ar
    23    23    24    1
    24    23    25   ar
    25    25    28    1
    26    28    29    1
    27    28    30    1
    28    28    31    1
    29    25    26   ar
    30     7     8   ar
    31     8     9   ar
    32     9    10   ar
    33     9    11    1
    34    11    12    1
    35    12    13    1
    36    12    14    1
    37    12    15    1
    38    10     2   ar
    39    40    34   ar
    40    10     5   ar
    41    26    20   ar
    42    15     8    1
    43    32    33    1
    44    18    19    1
    45    24    27    1
@<TRIPOS>MOLECULE
*****
 41 45 0 0 0
SMALL
GASTEIGER

@<TRIPOS>ATOM
      1 C         -24.0519   52.5256  -11.3645 C.3     1  UNL1        0.1332
      2 N         -23.8141   51.9461  -10.0424 N.ar    1  UNL1       -0.2977
      3 C         -22.6917   52.0247   -9.2705 C.ar    1  UNL1        0.2018
      4 N         -22.7750   51.3246   -8.1099 N.ar    1  UNL1       -0.2135
      5 C         -24.0187   50.8167   -8.1518 C.ar    1  UNL1        0.0999
      6 C         -24.6498   50.0418   -7.1701 C.ar    1  UNL1        0.0282
      7 C         -25.9927   49.6410   -7.3865 C.ar    1  UNL1        0.0888
      8 C         -26.6324   50.0741   -8.5736 C.ar    1  UNL1        0.1401
      9 C         -25.9811   50.8185   -9.5304 C.ar    1  UNL1        0.0327
     10 C         -24.6531   51.1932   -9.3058 C.ar    1  UNL1        0.0789
     11 C         -26.9151   51.1491  -10.6419 C.3     1  UNL1        0.0709
     12 C         -28.2601   50.5125  -10.1604 C.3     1  UNL1        0.1375
     13 C         -28.7698   49.4575  -11.1514 C.3     1  UNL1        0.0439
     14 C         -29.3308   51.5863   -9.9243 C.3     1  UNL1        0.0439
     15 O         -27.9537   49.8777   -8.9178 O.3     1  UNL1       -0.4824
     16 C         -26.6997   48.8368   -6.3673 C.2     1  UNL1        0.2525
     17 O         -27.4464   47.8938   -6.7459 O.2     1  UNL1       -0.2697
     18 N         -26.5422   49.1185   -4.9644 N.am    1  UNL1       -0.2803
     19 H         -25.8907   49.8805   -4.6735 H       1  UNL1        0.1552
     20 C         -27.1681   48.3591   -3.9168 C.ar    1  UNL1        0.0507
     21 C         -26.6086   47.1603   -3.4481 C.ar    1  UNL1        0.0178
     22 C         -27.2500   46.4280   -2.4483 C.ar    1  UNL1        0.0378
     23 C         -28.4655   46.8722   -1.9120 C.ar    1  UNL1        0.1376
     24 O         -29.0946   46.1310   -0.9113 O.3     1  UNL1       -0.5056
     25 C         -29.0526   48.0620   -2.3876 C.ar    1  UNL1        0.1062
     26 C         -28.3975   48.7915   -3.3984 C.ar    1  UNL1        0.0216
     27 H         -28.6932   45.2718   -0.5542 H       1  UNL1        0.2922
     28 C         -30.3700   48.5338   -1.8155 C.3     1  UNL1        0.4214
     29 F         -30.7780   49.6771   -2.4783 F       1  UNL1       -0.1657
     30 F         -30.2715   48.8218   -0.4650 F       1  UNL1       -0.1657
     31 F         -31.3260   47.5484   -1.9836 F       1  UNL1       -0.1657
     32 N         -21.5231   52.7876   -9.6042 N.pl3   1  UNL1       -0.2814
     33 H         -21.6574   53.6516  -10.1758 H       1  UNL1        0.1551
     34 C         -20.1812   52.4146   -9.2508 C.ar    1  UNL1        0.0889
     35 C         -19.7239   52.6825   -7.9496 C.ar    1  UNL1        0.1543
     36 F         -20.5461   53.2700   -7.0440 F       1  UNL1       -0.2028
     37 C         -18.4291   52.3224   -7.5665 C.ar    1  UNL1        0.0310
     38 C         -17.5737   51.7072   -8.4813 C.ar    1  UNL1        0.0033
     39 C         -18.0051   51.4621   -9.7863 C.ar    1  UNL1        0.0128
     40 C         -19.2998   51.8187  -10.1832 C.ar    1  UNL1        0.0733
     41 CL        -19.7442   51.5700  -11.8683 Cl      1  UNL1       -0.0809
@<TRIPOS>BOND
     1     1     2    1
     2     2     3   ar
     3     3    32    1
     4    32    34    1
     5    34    35   ar
     6    35    36    1
     7    35    37   ar
     8    37    38   ar
     9    38    39   ar
    10    39    40   ar
    11    40    41    1
    12     3     4   ar
    13     4     5   ar
    14     5     6   ar
    15     6     7   ar
    16     7    16    1
    17    16    17    2
    18    16    18   am
    19    18    20    1
    20    20    21   ar
    21    21    22   ar
    22    22    23   ar
    23    23    24    1
    24    23    25   ar
    25    25    28    1
    26    28    29    1
    27    28    30    1
    28    28    31    1
    29    25    26   ar
    30     7     8   ar
    31     8     9   ar
    32     9    10   ar
    33     9    11    1
    34    11    12    1
    35    12    13    1
    36    12    14    1
    37    12    15    1
    38    10     2   ar
    39    40    34   ar
    40    10     5   ar
    41    26    20   ar
    42    15     8    1
    43    32    33    1
    44    18    19    1
    45    24    27    1
@<TRIPOS>MOLECULE
*****
 41 45 0 0 0
SMALL
GASTEIGER

@<TRIPOS>ATOM
      1 C         -24.0894   52.5676  -11.4307 C.3     1  UNL1        0.1332
      2 N         -23.8312   51.9920  -10.1107 N.ar    1  UNL1       -0.2977
      3 C         -22.7034   52.0878   -9.3487 C.ar    1  UNL1        0.2018
      4 N         -22.7659   51.3867   -8.1874 N.ar    1  UNL1       -0.2135
      5 C         -24.0020   50.8599   -8.2184 C.ar    1  UNL1        0.0999
      6 C         -24.6126   50.0757   -7.2311 C.ar    1  UNL1        0.0282
      7 C         -25.9511   49.6543   -7.4358 C.ar    1  UNL1        0.0888
      8 C         -26.6077   50.0774   -8.6172 C.ar    1  UNL1        0.1401
      9 C         -25.9762   50.8315   -9.5797 C.ar    1  UNL1        0.0327
     10 C         -24.6522   51.2265   -9.3668 C.ar    1  UNL1        0.0789
     11 C         -26.9248   51.1477  -10.6831 C.3     1  UNL1        0.0709
     12 C         -28.2557   50.4908  -10.1898 C.3     1  UNL1        0.1375
     13 C         -28.7579   49.4280  -11.1763 C.3     1  UNL1        0.0439
     14 C         -29.3405   51.5481   -9.9443 C.3     1  UNL1        0.0439
     15 O         -27.9287   49.8609   -8.9499 O.3     1  UNL1       -0.4824
     16 C         -26.6368   48.8396   -6.4104 C.2     1  UNL1        0.2525
     17 O         -27.3189   47.8450   -6.7788 O.2     1  UNL1       -0.2697
     18 N         -26.5311   49.1690   -5.0131 N.am    1  UNL1       -0.2803
     19 H         -25.9315   49.9750   -4.7293 H       1  UNL1        0.1552
     20 C         -27.1391   48.4044   -3.9587 C.ar    1  UNL1        0.0507
     21 C         -26.5558   47.2190   -3.4850 C.ar    1  UNL1        0.0178
     22 C         -27.1800   46.4809   -2.4785 C.ar    1  UNL1        0.0378
     23 C         -28.4016   46.9058   -1.9404 C.ar    1  UNL1        0.1376
     24 O         -29.0133   46.1590   -0.9331 O.3     1  UNL1       -0.5056
     25 C         -29.0124   48.0816   -2.4210 C.ar    1  UNL1        0.1062
     26 C         -28.3744   48.8170   -3.4385 C.ar    1  UNL1        0.0216
     27 H         -28.5948   45.3096   -0.5724 H       1  UNL1        0.2922
     28 C         -30.3363   48.5323   -1.8470 C.3     1  UNL1        0.4214
     29 F         -30.1776   48.8415   -0.5082 F       1  UNL1       -0.1657
     30 F         -31.3066   47.5512   -1.9579 F       1  UNL1       -0.1657
     31 F         -30.7734   49.6576   -2.5221 F       1  UNL1       -0.1657
     32 N         -21.5496   52.8684   -9.6925 N.pl3   1  UNL1       -0.2814
     33 H         -21.7119   53.8108  -10.1132 H       1  UNL1        0.1551
     34 C         -20.1923   52.4198   -9.5465 C.ar    1  UNL1        0.0889
     35 C         -19.6012   51.6964  -10.5960 C.ar    1  UNL1        0.1543
     36 F         -20.3017   51.4429  -11.7302 F       1  UNL1       -0.2028
     37 C         -18.2792   51.2551  -10.4944 C.ar    1  UNL1        0.0310
     38 C         -17.5403   51.5166   -9.3400 C.ar    1  UNL1        0.0033
     39 C         -18.1249   52.2084   -8.2775 C.ar    1  UNL1        0.0128
     40 C         -19.4490   52.6555   -8.3661 C.ar    1  UNL1        0.0733
     41 CL        -20.1532   53.4345   -6.9534 Cl      1  UNL1       -0.0809
@<TRIPOS>BOND
     1     1     2    1
     2     2     3   ar
     3     3    32    1
     4    32    34    1
     5    34    35   ar
     6    35    36    1
     7    35    37   ar
     8    37    38   ar
     9    38    39   ar
    10    39    40   ar
    11    40    41    1
    12     3     4   ar
    13     4     5   ar
    14     5     6   ar
    15     6     7   ar
    16     7    16    1
    17    16    17    2
    18    16    18   am
    19    18    20    1
    20    20    21   ar
    21    21    22   ar
    22    22    23   ar
    23    23    24    1
    24    23    25   ar
    25    25    28    1
    26    28    29    1
    27    28    30    1
    28    28    31    1
    29    25    26   ar
    30     7     8   ar
    31     8     9   ar
    32     9    10   ar
    33     9    11    1
    34    11    12    1
    35    12    13    1
    36    12    14    1
    37    12    15    1
    38    10     2   ar
    39    40    34   ar
    40    10     5   ar
    41    26    20   ar
    42    15     8    1
    43    32    33    1
    44    18    19    1
    45    24    27    1
@<TRIPOS>MOLECULE
*****
 41 45 0 0 0
SMALL
GASTEIGER

@<TRIPOS>ATOM
      1 C         -29.6627   50.7175  -12.7891 C.3     1  UNL1        0.1332
      2 N         -29.9054   49.4322  -12.1337 N.ar    1  UNL1       -0.2977
      3 C         -30.6467   48.3777  -12.5812 C.ar    1  UNL1        0.2018
      4 N         -30.7170   47.3452  -11.7020 N.ar    1  UNL1       -0.2135
      5 C         -29.9570   47.7684  -10.6773 C.ar    1  UNL1        0.0999
      6 C         -29.6460   47.0640   -9.5071 C.ar    1  UNL1        0.0282
      7 C         -28.7817   47.6730   -8.5621 C.ar    1  UNL1        0.0888
      8 C         -28.2552   48.9512   -8.8702 C.ar    1  UNL1        0.1401
      9 C         -28.5940   49.6287  -10.0192 C.ar    1  UNL1        0.0327
     10 C         -29.4580   49.0180  -10.9330 C.ar    1  UNL1        0.0789
     11 C         -27.8619   50.9237  -10.0819 C.3     1  UNL1        0.0709
     12 C         -26.9830   50.8837   -8.7888 C.3     1  UNL1        0.1375
     13 C         -27.3027   52.0585   -7.8546 C.3     1  UNL1        0.0439
     14 C         -25.4875   50.8652   -9.1327 C.3     1  UNL1        0.0439
     15 O         -27.3271   49.6602   -8.1363 O.3     1  UNL1       -0.4824
     16 C         -28.4157   46.9559   -7.3222 C.2     1  UNL1        0.2525
     17 O         -28.4253   45.6950   -7.3225 O.2     1  UNL1       -0.2697
     18 N         -28.0520   47.6782   -6.1313 N.am    1  UNL1       -0.2803
     19 H         -28.0161   48.7208   -6.1655 H       1  UNL1        0.1552
     20 C         -27.6511   47.0510   -4.9018 C.ar    1  UNL1        0.0507
     21 C         -26.3139   46.6974   -4.6632 C.ar    1  UNL1        0.0178
     22 C         -25.9548   46.0653   -3.4721 C.ar    1  UNL1        0.0378
     23 C         -26.9256   45.7631   -2.5083 C.ar    1  UNL1        0.1376
     24 O         -26.5519   45.1328   -1.3210 O.3     1  UNL1       -0.5056
     25 C         -28.2764   46.0905   -2.7420 C.ar    1  UNL1        0.1062
     26 C         -28.6273   46.7261   -3.9487 C.ar    1  UNL1        0.0216
     27 H         -25.5878   44.8860   -1.1308 H       1  UNL1        0.2922
     28 C         -29.3241   45.7534   -1.7057 C.3     1  UNL1        0.4214
     29 F         -30.2974   46.7360   -1.6967 F       1  UNL1       -0.1657
     30 F         -28.7815   45.6626   -0.4353 F       1  UNL1       -0.1657
     31 F         -29.9096   44.5399   -2.0184 F       1  UNL1       -0.1657
     32 N         -31.2843   48.3144  -13.8651 N.pl3   1  UNL1       -0.2814
     33 H         -32.1171   48.9253  -14.0214 H       1  UNL1        0.1551
     34 C         -30.8870   47.4312  -14.9268 C.ar    1  UNL1        0.0889
     35 C         -31.0478   46.0464  -14.7519 C.ar    1  UNL1        0.1543
     36 F         -31.5833   45.5605  -13.6037 F       1  UNL1       -0.2028
     37 C         -30.6843   45.1581  -15.7677 C.ar    1  UNL1        0.0310
     38 C         -30.1425   45.6408  -16.9595 C.ar    1  UNL1        0.0033
     39 C         -29.9496   47.0125  -17.1347 C.ar    1  UNL1        0.0128
     40 C         -30.3089   47.9132  -16.1246 C.ar    1  UNL1        0.0733
     41 CL        -29.9482   49.6182  -16.3728 Cl      1  UNL1       -0.0809
@<TRIPOS>BOND
     1     1     2    1
     2     2     3   ar
     3     3    32    1
     4    32    34    1
     5    34    35   ar
     6    35    36    1
     7    35    37   ar
     8    37    38   ar
     9    38    39   ar
    10    39    40   ar
    11    40    41    1
    12     3     4   ar
    13     4     5   ar
    14     5     6   ar
    15     6     7   ar
    16     7    16    1
    17    16    17    2
    18    16    18   am
    19    18    20    1
    20    20    21   ar
    21    21    22   ar
    22    22    23   ar
    23    23    24    1
    24    23    25   ar
    25    25    28    1
    26    28    29    1
    27    28    30    1
    28    28    31    1
    29    25    26   ar
    30     7     8   ar
    31     8     9   ar
    32     9    10   ar
    33     9    11    1
    34    11    12    1
    35    12    13    1
    36    12    14    1
    37    12    15    1
    38    10     2   ar
    39    40    34   ar
    40    10     5   ar
    41    26    20   ar
    42    15     8    1
    43    32    33    1
    44    18    19    1
    45    24    27    1
@<TRIPOS>MOLECULE
*****
 41 45 0 0 0
SMALL
GASTEIGER

@<TRIPOS>ATOM
      1 C         -23.8056   52.6358  -11.4211 C.3     1  UNL1        0.1332
      2 N         -23.6176   52.0348  -10.1006 N.ar    1  UNL1       -0.2977
      3 C         -22.5210   52.0909   -9.2906 C.ar    1  UNL1        0.2018
      4 N         -22.6496   51.3748   -8.1440 N.ar    1  UNL1       -0.2135
      5 C         -23.8960   50.8800   -8.2349 C.ar    1  UNL1        0.0999
      6 C         -24.5669   50.0972   -7.2864 C.ar    1  UNL1        0.0282
      7 C         -25.9055   49.7129   -7.5533 C.ar    1  UNL1        0.0888
      8 C         -26.5010   50.1696   -8.7545 C.ar    1  UNL1        0.1401
      9 C         -25.8110   50.9213   -9.6779 C.ar    1  UNL1        0.0327
     10 C         -24.4878   51.2796   -9.4036 C.ar    1  UNL1        0.0789
     11 C         -26.7042   51.2774  -10.8148 C.3     1  UNL1        0.0709
     12 C         -28.0705   50.6473  -10.3879 C.3     1  UNL1        0.1375
     13 C         -28.5567   49.6120  -11.4110 C.3     1  UNL1        0.0439
     14 C         -29.1383   51.7281  -10.1716 C.3     1  UNL1        0.0439
     15 O         -27.8118   49.9914   -9.1454 O.3     1  UNL1       -0.4824
     16 C         -26.6538   48.9009   -6.5703 C.2     1  UNL1        0.2525
     17 O         -27.6617   49.4055   -6.0050 O.2     1  UNL1       -0.2697
     18 N         -26.2455   47.5559   -6.2598 N.am    1  UNL1       -0.2803
     19 H         -25.4299   47.1470   -6.7671 H       1  UNL1        0.1552
     20 C         -26.9427   46.6955   -5.3435 C.ar    1  UNL1        0.0507
     21 C         -26.2599   45.9840   -4.3449 C.ar    1  UNL1        0.0178
     22 C         -26.9568   45.1345   -3.4846 C.ar    1  UNL1        0.0378
     23 C         -28.3418   44.9707   -3.6170 C.ar    1  UNL1        0.1376
     24 O         -29.0259   44.1197   -2.7485 O.3     1  UNL1       -0.5056
     25 C         -29.0393   45.6600   -4.6293 C.ar    1  UNL1        0.1062
     26 C         -28.3251   46.5128   -5.4930 C.ar    1  UNL1        0.0216
     27 H         -28.5465   43.6121   -2.0142 H       1  UNL1        0.2922
     28 C         -30.5320   45.4732   -4.7777 C.3     1  UNL1        0.4214
     29 F         -30.8316   44.1229   -4.7656 F       1  UNL1       -0.1657
     30 F         -31.0041   46.0161   -5.9604 F       1  UNL1       -0.1657
     31 F         -31.1818   46.0898   -3.7238 F       1  UNL1       -0.1657
     32 N         -21.3347   52.8470   -9.5738 N.pl3   1  UNL1       -0.2814
     33 H         -21.4485   53.7500  -10.0867 H       1  UNL1        0.1551
     34 C         -20.0021   52.4203   -9.2469 C.ar    1  UNL1        0.0889
     35 C         -19.5179   52.6463   -7.9475 C.ar    1  UNL1        0.1543
     36 F         -20.3065   53.2442   -7.0190 F       1  UNL1       -0.2028
     37 C         -18.2315   52.2335   -7.5900 C.ar    1  UNL1        0.0310
     38 C         -17.4109   51.6070   -8.5286 C.ar    1  UNL1        0.0033
     39 C         -17.8685   51.4030   -9.8318 C.ar    1  UNL1        0.0128
     40 C         -19.1551   51.8125  -10.2032 C.ar    1  UNL1        0.0733
     41 CL        -19.6309   51.6129  -11.8862 Cl      1  UNL1       -0.0809
@<TRIPOS>BOND
     1     1     2    1
     2     2     3   ar
     3     3    32    1
     4    32    34    1
     5    34    35   ar
     6    35    36    1
     7    35    37   ar
     8    37    38   ar
     9    38    39   ar
    10    39    40   ar
    11    40    41    1
    12     3     4   ar
    13     4     5   ar
    14     5     6   ar
    15     6     7   ar
    16     7    16    1
    17    16    17    2
    18    16    18   am
    19    18    20    1
    20    20    21   ar
    21    21    22   ar
    22    22    23   ar
    23    23    24    1
    24    23    25   ar
    25    25    28    1
    26    28    29    1
    27    28    30    1
    28    28    31    1
    29    25    26   ar
    30     7     8   ar
    31     8     9   ar
    32     9    10   ar
    33     9    11    1
    34    11    12    1
    35    12    13    1
    36    12    14    1
    37    12    15    1
    38    10     2   ar
    39    40    34   ar
    40    10     5   ar
    41    26    20   ar
    42    15     8    1
    43    32    33    1
    44    18    19    1
    45    24    27    1
@<TRIPOS>MOLECULE
*****
 41 45 0 0 0
SMALL
GASTEIGER

@<TRIPOS>ATOM
      1 C         -23.8215   52.3463  -11.6973 C.3     1  UNL1        0.1332
      2 N         -23.6377   51.9748  -10.2942 N.ar    1  UNL1       -0.2977
      3 C         -22.5289   52.1274   -9.5139 C.ar    1  UNL1        0.2018
      4 N         -22.6681   51.6248   -8.2600 N.ar    1  UNL1       -0.2135
      5 C         -23.9329   51.1700   -8.2554 C.ar    1  UNL1        0.0999
      6 C         -24.6191   50.5886   -7.1813 C.ar    1  UNL1        0.0282
      7 C         -25.9743   50.2158   -7.3685 C.ar    1  UNL1        0.0888
      8 C         -26.5690   50.4814   -8.6262 C.ar    1  UNL1        0.1401
      9 C         -25.8645   51.0359   -9.6703 C.ar    1  UNL1        0.0327
     10 C         -24.5255   51.3849   -9.4713 C.ar    1  UNL1        0.0789
     11 C         -26.7594   51.2249  -10.8453 C.3     1  UNL1        0.0709
     12 C         -28.1419   50.7307  -10.3065 C.3     1  UNL1        0.1375
     13 C         -28.6796   49.5542  -11.1321 C.3     1  UNL1        0.0439
     14 C         -29.1664   51.8729  -10.2724 C.3     1  UNL1        0.0439
     15 O         -27.8906   50.2891   -8.9713 O.3     1  UNL1       -0.4824
     16 C         -26.7385   49.6146   -6.2549 C.2     1  UNL1        0.2525
     17 O         -26.4069   49.8904   -5.0700 O.2     1  UNL1       -0.2697
     18 N         -27.8444   48.7294   -6.5112 N.am    1  UNL1       -0.2803
     19 H         -28.1232   48.5446   -7.5000 H       1  UNL1        0.1552
     20 C         -28.6545   48.1365   -5.4826 C.ar    1  UNL1        0.0507
     21 C         -29.9339   48.6303   -5.1836 C.ar    1  UNL1        0.0178
     22 C         -30.6898   48.0537   -4.1621 C.ar    1  UNL1        0.0378
     23 C         -30.1755   46.9865   -3.4143 C.ar    1  UNL1        0.1376
     24 O         -30.9432   46.4183   -2.3973 O.3     1  UNL1       -0.5056
     25 C         -28.8834   46.4936   -3.6863 C.ar    1  UNL1        0.1062
     26 C         -28.1288   47.0850   -4.7179 C.ar    1  UNL1        0.0216
     27 H         -31.8739   46.7561   -2.1819 H       1  UNL1        0.2922
     28 C         -28.3258   45.3494   -2.8707 C.3     1  UNL1        0.4214
     29 F         -28.2653   45.7183   -1.5391 F       1  UNL1       -0.1657
     30 F         -27.0536   44.9936   -3.2849 F       1  UNL1       -0.1657
     31 F         -29.1510   44.2467   -2.9974 F       1  UNL1       -0.1657
     32 N         -21.3197   52.7773   -9.9316 N.pl3   1  UNL1       -0.2814
     33 H         -21.4091   53.6014  -10.5674 H       1  UNL1        0.1551
     34 C         -19.9978   52.3389   -9.5776 C.ar    1  UNL1        0.0889
     35 C         -19.2866   51.5325  -10.4821 C.ar    1  UNL1        0.1543
     36 F         -19.8396   51.1904  -11.6731 F       1  UNL1       -0.2028
     37 C         -17.9939   51.0979  -10.1772 C.ar    1  UNL1        0.0310
     38 C         -17.4052   51.4494   -8.9620 C.ar    1  UNL1        0.0033
     39 C         -18.1121   52.2255   -8.0414 C.ar    1  UNL1        0.0128
     40 C         -19.4083   52.6668   -8.3341 C.ar    1  UNL1        0.0733
     41 CL        -20.2774   53.5580   -7.0895 Cl      1  UNL1       -0.0809
@<TRIPOS>BOND
     1     1     2    1
     2     2     3   ar
     3     3    32    1
     4    32    34    1
     5    34    35   ar
     6    35    36    1
     7    35    37   ar
     8    37    38   ar
     9    38    39   ar
    10    39    40   ar
    11    40    41    1
    12     3     4   ar
    13     4     5   ar
    14     5     6   ar
    15     6     7   ar
    16     7    16    1
    17    16    17    2
    18    16    18   am
    19    18    20    1
    20    20    21   ar
    21    21    22   ar
    22    22    23   ar
    23    23    24    1
    24    23    25   ar
    25    25    28    1
    26    28    29    1
    27    28    30    1
    28    28    31    1
    29    25    26   ar
    30     7     8   ar
    31     8     9   ar
    32     9    10   ar
    33     9    11    1
    34    11    12    1
    35    12    13    1
    36    12    14    1
    37    12    15    1
    38    10     2   ar
    39    40    34   ar
    40    10     5   ar
    41    26    20   ar
    42    15     8    1
    43    32    33    1
    44    18    19    1
    45    24    27    1
@<TRIPOS>MOLECULE
*****
 41 45 0 0 0
SMALL
GASTEIGER

@<TRIPOS>ATOM
      1 C         -24.2511   51.4391  -11.5461 C.3     1  UNL1        0.1332
      2 N         -24.0942   51.2658  -10.1019 N.ar    1  UNL1       -0.2977
      3 C         -22.9629   51.3922   -9.3497 C.ar    1  UNL1        0.2018
      4 N         -23.1453   51.1092   -8.0341 N.ar    1  UNL1       -0.2135
      5 C         -24.4575   50.8265   -7.9649 C.ar    1  UNL1        0.0999
      6 C         -25.1953   50.5088   -6.8171 C.ar    1  UNL1        0.0282
      7 C         -26.5897   50.2888   -6.9505 C.ar    1  UNL1        0.0888
      8 C         -27.1654   50.4333   -8.2365 C.ar    1  UNL1        0.1401
      9 C         -26.4124   50.7268   -9.3504 C.ar    1  UNL1        0.0327
     10 C         -25.0369   50.9273   -9.2018 C.ar    1  UNL1        0.0789
     11 C         -27.2942   50.8473  -10.5442 C.3     1  UNL1        0.0709
     12 C         -28.7198   50.6227   -9.9416 C.3     1  UNL1        0.1375
     13 C         -29.4159   49.4127  -10.5790 C.3     1  UNL1        0.0439
     14 C         -29.5898   51.8785  -10.0874 C.3     1  UNL1        0.0439
     15 O         -28.5059   50.3617   -8.5534 O.3     1  UNL1       -0.4824
     16 C         -27.4067   49.9678   -5.7609 C.2     1  UNL1        0.2525
     17 O         -27.3223   50.7108   -4.7456 O.2     1  UNL1       -0.2697
     18 N         -28.2870   48.8289   -5.7550 N.am    1  UNL1       -0.2803
     19 H         -28.3674   48.2496   -6.6197 H       1  UNL1        0.1552
     20 C         -29.1365   48.4752   -4.6508 C.ar    1  UNL1        0.0507
     21 C         -29.8615   49.4480   -3.9450 C.ar    1  UNL1        0.0178
     22 C         -30.6586   49.0818   -2.8597 C.ar    1  UNL1        0.0378
     23 C         -30.7328   47.7432   -2.4532 C.ar    1  UNL1        0.1376
     24 O         -31.5355   47.3912   -1.3677 O.3     1  UNL1       -0.5056
     25 C         -29.9931   46.7572   -3.1367 C.ar    1  UNL1        0.1062
     26 C         -29.1903   47.1388   -4.2290 C.ar    1  UNL1        0.0216
     27 H         -32.0752   48.0820   -0.8595 H       1  UNL1        0.2922
     28 C         -30.0657   45.3150   -2.6894 C.3     1  UNL1        0.4214
     29 F         -31.1430   44.6967   -3.2978 F       1  UNL1       -0.1657
     30 F         -30.2168   45.2081   -1.3174 F       1  UNL1       -0.1657
     31 F         -28.9035   44.6593   -3.0534 F       1  UNL1       -0.1657
     32 N         -21.6874   51.8101   -9.8572 N.pl3   1  UNL1       -0.2814
     33 H         -21.2391   51.2130  -10.5878 H       1  UNL1        0.1551
     34 C         -20.9651   52.9614   -9.3908 C.ar    1  UNL1        0.0889
     35 C         -19.9775   52.7886   -8.4064 C.ar    1  UNL1        0.1543
     36 F         -19.7065   51.5508   -7.9206 F       1  UNL1       -0.2028
     37 C         -19.2462   53.8834   -7.9380 C.ar    1  UNL1        0.0310
     38 C         -19.5037   55.1617   -8.4343 C.ar    1  UNL1        0.0033
     39 C         -20.5027   55.3521   -9.3910 C.ar    1  UNL1        0.0128
     40 C         -21.2433   54.2637   -9.8682 C.ar    1  UNL1        0.0733
     41 CL        -22.5517   54.5887  -11.0001 Cl      1  UNL1       -0.0809
@<TRIPOS>BOND
     1     1     2    1
     2     2     3   ar
     3     3    32    1
     4    32    34    1
     5    34    35   ar
     6    35    36    1
     7    35    37   ar
     8    37    38   ar
     9    38    39   ar
    10    39    40   ar
    11    40    41    1
    12     3     4   ar
    13     4     5   ar
    14     5     6   ar
    15     6     7   ar
    16     7    16    1
    17    16    17    2
    18    16    18   am
    19    18    20    1
    20    20    21   ar
    21    21    22   ar
    22    22    23   ar
    23    23    24    1
    24    23    25   ar
    25    25    28    1
    26    28    29    1
    27    28    30    1
    28    28    31    1
    29    25    26   ar
    30     7     8   ar
    31     8     9   ar
    32     9    10   ar
    33     9    11    1
    34    11    12    1
    35    12    13    1
    36    12    14    1
    37    12    15    1
    38    10     2   ar
    39    40    34   ar
    40    10     5   ar
    41    26    20   ar
    42    15     8    1
    43    32    33    1
    44    18    19    1
    45    24    27    1
