@<TRIPOS>MOLECULE
*****
 45 51 0 0 0
SMALL
GASTEIGER

@<TRIPOS>ATOM
      1 C         -10.3530   -7.6014   29.6222 C.3     1  UNL1        0.0817
      2 C         -10.0481   -8.4841   28.3947 C.3     1  UNL1        0.0252
      3 C         -10.3246   -9.9377   28.8291 C.3     1  UNL1        0.0278
      4 C         -10.4000   -9.8572   30.3095 C.ar    1  UNL1       -0.0248
      5 C         -10.4145  -10.9281   31.2045 C.ar    1  UNL1       -0.0045
      6 C         -10.3349  -10.6638   32.5886 C.ar    1  UNL1       -0.0002
      7 C         -10.3291   -9.3219   33.0367 C.ar    1  UNL1       -0.0003
      8 C         -10.3660   -8.2635   32.1190 C.ar    1  UNL1       -0.0033
      9 C         -10.3756   -8.5596   30.7554 C.ar    1  UNL1       -0.0117
     10 C          -9.6733   -5.1892   30.0205 C.3     1  UNL1        0.1158
     11 N          -8.5837   -4.4198   30.2629 N.3     1  UNL1       -0.2851
     12 C          -7.5704   -5.2954   30.2031 C.3     1  UNL1        0.0910
     13 C          -6.2313   -5.0302   30.4398 C.3     1  UNL1        0.1018
     14 C          -5.3412   -6.1106   30.3860 C.3     1  UNL1        0.3136
     15 N          -5.7824   -7.3792   30.0802 N.am    1  UNL1       -0.1294
     16 C          -7.1168   -7.6175   29.8185 C.2     1  UNL1        0.4047
     17 O          -7.5045   -8.7709   29.4961 O.2     1  UNL1       -0.2174
     18 C          -8.0239   -6.5479   29.9167 C.3     1  UNL1        0.2038
     19 N          -9.3767   -6.5069   29.8081 N.3     1  UNL1       -0.2473
     20 H          -8.6393   -3.9872   31.1850 H       1  UNL1        0.1244
     21 C         -11.8120   -4.8936   31.2745 C.3     1  UNL1        0.0029
     22 C         -11.0541   -4.5936   29.9859 C.3     1  UNL1        0.0326
     23 C          -4.8092   -8.4877   30.0780 C.3     1  UNL1        0.3394
     24 C          -5.4660   -9.8582   30.1781 C.ar    1  UNL1        0.0505
     25 C          -6.0084  -10.3219   31.3975 C.ar    1  UNL1        0.0021
     26 C          -6.6696  -11.5493   31.4638 C.ar    1  UNL1       -0.0001
     27 C          -6.7804  -12.3477   30.3280 C.ar    1  UNL1       -0.0003
     28 C          -6.2102  -11.9336   29.1248 C.ar    1  UNL1       -0.0044
     29 C          -5.5367  -10.7021   29.0373 C.ar    1  UNL1       -0.0193
     30 C          -4.9395  -10.2923   27.7157 C.3     1  UNL1        0.0309
     31 C         -10.2175  -11.7698   33.5748 C.ar    1  UNL1        0.0028
     32 C          -9.0535  -11.8277   34.3582 C.ar    1  UNL1        0.0001
     33 C          -8.8671  -12.8482   35.2842 C.ar    1  UNL1       -0.0002
     34 C          -9.8294  -13.8406   35.4355 C.ar    1  UNL1       -0.0018
     35 C         -11.0055  -13.8242   34.6681 C.ar    1  UNL1        0.0103
     36 C         -11.2206  -12.7702   33.7358 C.ar    1  UNL1        0.0355
     37 C         -12.4629  -12.7420   32.9202 C.ar    1  UNL1        0.1803
     38 N         -13.5972  -12.1066   33.2707 N.ar    1  UNL1       -0.1084
     39 N         -14.4289  -12.3005   32.2567 N.ar    1  UNL1       -0.0229
     40 N         -13.8345  -13.0197   31.3171 N.ar    1  UNL1       -0.0464
     41 N         -12.6081  -13.3063   31.7116 N.ar    1  UNL1       -0.2388
     42 H         -11.9089  -13.8521   31.1661 H       1  UNL1        0.1923
     43 C         -11.9762  -14.9741   34.8142 C.3     1  UNL1        0.1688
     44 O         -12.0841  -15.6484   33.5773 O.3     1  UNL1       -0.3463
     45 C         -13.4213  -16.0410   33.3690 C.3     1  UNL1        0.1746
@<TRIPOS>BOND
     1    21    22    1
     2    22    10    1
     3    10    11    1
     4    11    12    1
     5    12    13    1
     6    13    14    1
     7    14    15    1
     8    15    23    1
     9    23    24    1
    10    24    25   ar
    11    25    26   ar
    12    26    27   ar
    13    27    28   ar
    14    28    29   ar
    15    29    30    1
    16    15    16    1
    17    16    17    2
    18    16    18    1
    19    18    19    1
    20    19     1    1
    21     1     2    1
    22     2     3    1
    23     3     4    1
    24     4     5   ar
    25     5     6   ar
    26     6    31    1
    27    31    32   ar
    28    32    33   ar
    29    33    34   ar
    30    34    35   ar
    31    35    43    1
    32    43    44    1
    33    44    45    1
    34    35    36   ar
    35    36    37    1
    36    37    38   ar
    37    38    39   ar
    38    39    40   ar
    39    40    41   ar
    40     6     7   ar
    41     7     8   ar
    42     8     9   ar
    43    19    10    1
    44     9     1    1
    45    18    12    1
    46     9     4   ar
    47    29    24   ar
    48    36    31   ar
    49    41    37   ar
    50    41    42    1
    51    11    20    1
@<TRIPOS>MOLECULE
*****
 45 51 0 0 0
SMALL
GASTEIGER

@<TRIPOS>ATOM
      1 C          -4.7284  -17.0113   22.9098 C.3     1  UNL1        0.0817
      2 C          -4.5379  -15.6139   23.5342 C.3     1  UNL1        0.0252
      3 C          -5.8998  -15.2241   24.1435 C.3     1  UNL1        0.0278
      4 C          -6.8490  -16.1922   23.5388 C.ar    1  UNL1       -0.0248
      5 C          -8.2428  -16.1368   23.5874 C.ar    1  UNL1       -0.0045
      6 C          -8.9909  -17.0599   22.8257 C.ar    1  UNL1       -0.0002
      7 C          -8.3130  -18.0691   22.1022 C.ar    1  UNL1       -0.0003
      8 C          -6.9131  -18.1339   22.1102 C.ar    1  UNL1       -0.0033
      9 C          -6.2018  -17.1647   22.8186 C.ar    1  UNL1       -0.0117
     10 C          -4.4291  -16.5875   20.4258 C.3     1  UNL1        0.1158
     11 N          -3.5623  -16.8116   19.4078 N.3     1  UNL1       -0.2851
     12 C          -2.6024  -17.5523   19.9797 C.3     1  UNL1        0.0910
     13 C          -1.4378  -18.0047   19.3810 C.3     1  UNL1        0.1018
     14 C          -0.5344  -18.7140   20.1830 C.3     1  UNL1        0.3136
     15 N          -0.8129  -18.9734   21.5070 N.am    1  UNL1       -0.1294
     16 C          -1.9927  -18.5393   22.0773 C.2     1  UNL1        0.4047
     17 O          -2.2594  -18.8191   23.2753 O.2     1  UNL1       -0.2174
     18 C          -2.8832  -17.7862   21.2923 C.3     1  UNL1        0.2038
     19 N          -4.0481  -17.1632   21.6061 N.3     1  UNL1       -0.2473
     20 H          -3.1833  -15.9347   19.0504 H       1  UNL1        0.1244
     21 C          -5.3714  -14.2971   20.1093 C.3     1  UNL1        0.0029
     22 C          -5.6844  -15.7856   20.2163 C.3     1  UNL1        0.0326
     23 C           0.1918  -19.6884   22.3165 C.3     1  UNL1        0.3394
     24 C           0.9503  -20.7471   21.5268 C.ar    1  UNL1        0.0505
     25 C           0.4186  -22.0431   21.3433 C.ar    1  UNL1        0.0021
     26 C           1.0878  -22.9851   20.5604 C.ar    1  UNL1       -0.0001
     27 C           2.3074  -22.6650   19.9689 C.ar    1  UNL1       -0.0003
     28 C           2.8759  -21.4087   20.1761 C.ar    1  UNL1       -0.0044
     29 C           2.2198  -20.4464   20.9643 C.ar    1  UNL1       -0.0193
     30 C           2.8686  -19.1000   21.1578 C.3     1  UNL1        0.0309
     31 C         -10.4718  -16.9624   22.7415 C.ar    1  UNL1        0.0028
     32 C         -11.0171  -15.9038   21.9972 C.ar    1  UNL1        0.0001
     33 C         -12.3940  -15.7387   21.8952 C.ar    1  UNL1       -0.0002
     34 C         -13.2544  -16.6155   22.5470 C.ar    1  UNL1       -0.0018
     35 C         -12.7514  -17.6841   23.3068 C.ar    1  UNL1        0.0103
     36 C         -11.3443  -17.8799   23.3972 C.ar    1  UNL1        0.0355
     37 C         -10.8013  -19.0091   24.1968 C.ar    1  UNL1        0.1803
     38 N         -10.5522  -20.2414   23.7146 N.ar    1  UNL1       -0.1084
     39 N         -10.0470  -20.9167   24.7375 N.ar    1  UNL1       -0.0229
     40 N          -9.9809  -20.1359   25.8049 N.ar    1  UNL1       -0.0464
     41 N         -10.4475  -18.9423   25.4893 N.ar    1  UNL1       -0.2388
     42 H         -10.5044  -18.1253   26.1325 H       1  UNL1        0.1923
     43 C         -13.7306  -18.5538   24.0621 C.3     1  UNL1        0.1688
     44 O         -13.4137  -18.5194   25.4386 O.3     1  UNL1       -0.3463
     45 C         -14.5980  -18.3975   26.1926 C.3     1  UNL1        0.1746
@<TRIPOS>BOND
     1    21    22    1
     2    22    10    1
     3    10    11    1
     4    11    12    1
     5    12    13    1
     6    13    14    1
     7    14    15    1
     8    15    23    1
     9    23    24    1
    10    24    25   ar
    11    25    26   ar
    12    26    27   ar
    13    27    28   ar
    14    28    29   ar
    15    29    30    1
    16    15    16    1
    17    16    17    2
    18    16    18    1
    19    18    19    1
    20    19     1    1
    21     1     2    1
    22     2     3    1
    23     3     4    1
    24     4     5   ar
    25     5     6   ar
    26     6    31    1
    27    31    32   ar
    28    32    33   ar
    29    33    34   ar
    30    34    35   ar
    31    35    43    1
    32    43    44    1
    33    44    45    1
    34    35    36   ar
    35    36    37    1
    36    37    38   ar
    37    38    39   ar
    38    39    40   ar
    39    40    41   ar
    40     6     7   ar
    41     7     8   ar
    42     8     9   ar
    43    19    10    1
    44     9     1    1
    45    18    12    1
    46     9     4   ar
    47    29    24   ar
    48    36    31   ar
    49    41    37   ar
    50    41    42    1
    51    11    20    1
@<TRIPOS>MOLECULE
*****
 45 51 0 0 0
SMALL
GASTEIGER

@<TRIPOS>ATOM
      1 C          -5.8166  -10.3948   30.5826 C.3     1  UNL1        0.0817
      2 C          -5.2273  -10.5565   31.9987 C.3     1  UNL1        0.0252
      3 C          -6.2002  -11.4720   32.7690 C.3     1  UNL1        0.0278
      4 C          -7.4233  -11.4774   31.9277 C.ar    1  UNL1       -0.0248
      5 C          -8.6782  -11.9754   32.2817 C.ar    1  UNL1       -0.0045
      6 C          -9.7695  -11.7595   31.4131 C.ar    1  UNL1       -0.0002
      7 C          -9.5478  -11.1213   30.1701 C.ar    1  UNL1       -0.0003
      8 C          -8.2674  -10.6750   29.8161 C.ar    1  UNL1       -0.0033
      9 C          -7.2239  -10.8435   30.7270 C.ar    1  UNL1       -0.0117
     10 C          -4.8761   -8.6089   29.0444 C.3     1  UNL1        0.1158
     11 N          -5.0481   -7.3100   28.6964 N.3     1  UNL1       -0.2851
     12 C          -6.0191   -6.8968   29.5233 C.3     1  UNL1        0.0910
     13 C          -6.6159   -5.6467   29.5410 C.3     1  UNL1        0.1018
     14 C          -7.6620   -5.4449   30.4506 C.3     1  UNL1        0.3136
     15 N          -8.0572   -6.4453   31.3111 N.am    1  UNL1       -0.1294
     16 C          -7.4299   -7.6750   31.2981 C.2     1  UNL1        0.4047
     17 O          -7.7672   -8.5686   32.1180 O.2     1  UNL1       -0.2174
     18 C          -6.4110   -7.9014   30.3563 C.3     1  UNL1        0.2038
     19 N          -5.6983   -9.0178   30.0575 N.3     1  UNL1       -0.2473
     20 H          -5.3381   -7.2278   27.7220 H       1  UNL1        0.1244
     21 C          -4.4658  -10.2126   27.1752 C.3     1  UNL1        0.0029
     22 C          -3.8518   -9.4694   28.3566 C.3     1  UNL1        0.0326
     23 C          -9.1915   -6.1928   32.2197 C.3     1  UNL1        0.3394
     24 C         -10.4790   -6.8702   31.7689 C.ar    1  UNL1        0.0505
     25 C         -10.7993   -8.1821   32.1843 C.ar    1  UNL1        0.0021
     26 C         -12.0130   -8.7691   31.8230 C.ar    1  UNL1       -0.0001
     27 C         -12.9164   -8.0742   31.0224 C.ar    1  UNL1       -0.0003
     28 C         -12.6009   -6.7973   30.5595 C.ar    1  UNL1       -0.0044
     29 C         -11.3819   -6.1891   30.9090 C.ar    1  UNL1       -0.0193
     30 C         -11.0843   -4.8060   30.3899 C.3     1  UNL1        0.0309
     31 C         -11.1486  -12.1557   31.8015 C.ar    1  UNL1        0.0028
     32 C         -12.1665  -12.0066   30.8457 C.ar    1  UNL1        0.0001
     33 C         -13.4831  -12.3358   31.1487 C.ar    1  UNL1       -0.0002
     34 C         -13.8139  -12.8039   32.4156 C.ar    1  UNL1       -0.0018
     35 C         -12.8281  -12.9624   33.4033 C.ar    1  UNL1        0.0103
     36 C         -11.4723  -12.6544   33.0974 C.ar    1  UNL1        0.0355
     37 C         -10.4207  -12.8207   34.1346 C.ar    1  UNL1        0.1803
     38 N          -9.5829  -11.8481   34.5414 N.ar    1  UNL1       -0.1084
     39 N          -8.8446  -12.4037   35.4920 N.ar    1  UNL1       -0.0229
     40 N          -9.2120  -13.6633   35.6701 N.ar    1  UNL1       -0.0464
     41 N         -10.1929  -13.9436   34.8327 N.ar    1  UNL1       -0.2388
     42 H         -10.6837  -14.8592   34.7602 H       1  UNL1        0.1923
     43 C         -13.2584  -13.3936   34.7870 C.3     1  UNL1        0.1688
     44 O         -12.8248  -14.7190   35.0142 O.3     1  UNL1       -0.3463
     45 C         -13.2873  -15.5514   33.9755 C.3     1  UNL1        0.1746
@<TRIPOS>BOND
     1    21    22    1
     2    22    10    1
     3    10    11    1
     4    11    12    1
     5    12    13    1
     6    13    14    1
     7    14    15    1
     8    15    23    1
     9    23    24    1
    10    24    25   ar
    11    25    26   ar
    12    26    27   ar
    13    27    28   ar
    14    28    29   ar
    15    29    30    1
    16    15    16    1
    17    16    17    2
    18    16    18    1
    19    18    19    1
    20    19     1    1
    21     1     2    1
    22     2     3    1
    23     3     4    1
    24     4     5   ar
    25     5     6   ar
    26     6    31    1
    27    31    32   ar
    28    32    33   ar
    29    33    34   ar
    30    34    35   ar
    31    35    43    1
    32    43    44    1
    33    44    45    1
    34    35    36   ar
    35    36    37    1
    36    37    38   ar
    37    38    39   ar
    38    39    40   ar
    39    40    41   ar
    40     6     7   ar
    41     7     8   ar
    42     8     9   ar
    43    19    10    1
    44     9     1    1
    45    18    12    1
    46     9     4   ar
    47    29    24   ar
    48    36    31   ar
    49    41    37   ar
    50    41    42    1
    51    11    20    1
@<TRIPOS>MOLECULE
*****
 45 51 0 0 0
SMALL
GASTEIGER

@<TRIPOS>ATOM
      1 C         -10.6455   -7.6177   29.7838 C.3     1  UNL1        0.0817
      2 C          -9.9924   -8.1747   28.5024 C.3     1  UNL1        0.0252
      3 C         -10.5756   -9.5878   28.3000 C.3     1  UNL1        0.0278
      4 C         -11.2057   -9.9020   29.6070 C.ar    1  UNL1       -0.0248
      5 C         -11.6835  -11.1445   30.0266 C.ar    1  UNL1       -0.0045
      6 C         -12.1139  -11.2961   31.3621 C.ar    1  UNL1       -0.0002
      7 C         -12.1309  -10.1676   32.2152 C.ar    1  UNL1       -0.0003
      8 C         -11.6928   -8.9188   31.7543 C.ar    1  UNL1       -0.0033
      9 C         -11.2098   -8.8184   30.4490 C.ar    1  UNL1       -0.0117
     10 C          -9.9214   -5.6476   31.2099 C.3     1  UNL1        0.1158
     11 N          -8.9239   -5.2442   32.0347 N.3     1  UNL1       -0.2851
     12 C          -8.0503   -6.2596   31.9791 C.3     1  UNL1        0.0910
     13 C          -6.8697   -6.3769   32.6945 C.3     1  UNL1        0.1018
     14 C          -6.1328   -7.5572   32.5328 C.3     1  UNL1        0.3136
     15 N          -6.5562   -8.5460   31.6721 N.am    1  UNL1       -0.1294
     16 C          -7.7207   -8.3972   30.9457 C.2     1  UNL1        0.4047
     17 O          -8.0771   -9.2857   30.1283 O.2     1  UNL1       -0.2174
     18 C          -8.4905   -7.2366   31.1375 C.3     1  UNL1        0.2038
     19 N          -9.7001   -6.8709   30.6407 N.3     1  UNL1       -0.2473
     20 H          -9.2676   -5.1093   32.9855 H       1  UNL1        0.1244
     21 C         -11.0016   -4.0199   29.6551 C.3     1  UNL1        0.0029
     22 C         -11.1287   -4.7834   30.9689 C.3     1  UNL1        0.0326
     23 C          -5.7638   -9.7861   31.5712 C.3     1  UNL1        0.3394
     24 C          -5.2520  -10.0538   30.1619 C.ar    1  UNL1        0.0505
     25 C          -4.2187   -9.2722   29.5984 C.ar    1  UNL1        0.0021
     26 C          -3.7084   -9.5682   28.3334 C.ar    1  UNL1       -0.0001
     27 C          -4.2328  -10.6275   27.5968 C.ar    1  UNL1       -0.0003
     28 C          -5.2861  -11.3824   28.1115 C.ar    1  UNL1       -0.0044
     29 C          -5.8171  -11.0986   29.3826 C.ar    1  UNL1       -0.0193
     30 C          -6.9524  -11.9431   29.9013 C.3     1  UNL1        0.0309
     31 C         -12.5099  -12.6267   31.8936 C.ar    1  UNL1        0.0028
     32 C         -13.7211  -13.1772   31.4446 C.ar    1  UNL1        0.0001
     33 C         -14.1642  -14.4075   31.9175 C.ar    1  UNL1       -0.0002
     34 C         -13.4170  -15.1054   32.8601 C.ar    1  UNL1       -0.0018
     35 C         -12.2028  -14.5885   33.3406 C.ar    1  UNL1        0.0103
     36 C         -11.7250  -13.3428   32.8445 C.ar    1  UNL1        0.0355
     37 C         -10.4400  -12.7877   33.3446 C.ar    1  UNL1        0.1803
     38 N          -9.4648  -12.2857   32.5635 N.ar    1  UNL1       -0.1084
     39 N          -8.5280  -11.8707   33.4048 N.ar    1  UNL1       -0.0229
     40 N          -8.9082  -12.1005   34.6522 N.ar    1  UNL1       -0.0464
     41 N         -10.0973  -12.6728   34.6367 N.ar    1  UNL1       -0.2388
     42 H         -10.6440  -12.9554   35.4768 H       1  UNL1        0.1923
     43 C         -11.4763  -15.3494   34.4265 C.3     1  UNL1        0.1688
     44 O         -11.9437  -14.9157   35.6873 O.3     1  UNL1       -0.3463
     45 C         -13.1123  -14.1465   35.5182 C.3     1  UNL1        0.1746
@<TRIPOS>BOND
     1    21    22    1
     2    22    10    1
     3    10    11    1
     4    11    12    1
     5    12    13    1
     6    13    14    1
     7    14    15    1
     8    15    23    1
     9    23    24    1
    10    24    25   ar
    11    25    26   ar
    12    26    27   ar
    13    27    28   ar
    14    28    29   ar
    15    29    30    1
    16    15    16    1
    17    16    17    2
    18    16    18    1
    19    18    19    1
    20    19     1    1
    21     1     2    1
    22     2     3    1
    23     3     4    1
    24     4     5   ar
    25     5     6   ar
    26     6    31    1
    27    31    32   ar
    28    32    33   ar
    29    33    34   ar
    30    34    35   ar
    31    35    43    1
    32    43    44    1
    33    44    45    1
    34    35    36   ar
    35    36    37    1
    36    37    38   ar
    37    38    39   ar
    38    39    40   ar
    39    40    41   ar
    40     6     7   ar
    41     7     8   ar
    42     8     9   ar
    43    19    10    1
    44     9     1    1
    45    18    12    1
    46     9     4   ar
    47    29    24   ar
    48    36    31   ar
    49    41    37   ar
    50    41    42    1
    51    11    20    1
