@<TRIPOS>MOLECULE
*****
 48 53 0 0 0
SMALL
GASTEIGER

@<TRIPOS>ATOM
      1 C          -7.2746  -14.2670   27.6236 C.ar    1  UNL1        0.0702
      2 C          -6.6956  -13.2074   28.3313 C.ar    1  UNL1        0.0191
      3 C          -7.4456  -12.4903   29.2644 C.ar    1  UNL1        0.0356
      4 C          -8.7924  -12.8288   29.4810 C.ar    1  UNL1        0.1318
      5 N          -9.3422  -13.8438   28.7566 N.ar    1  UNL1       -0.2279
      6 C          -8.6300  -14.5580   27.8456 C.ar    1  UNL1        0.1149
      7 N          -9.6033  -12.1103   30.4359 N.pl3   1  UNL1       -0.2932
      8 C         -11.0697  -12.1722   30.3360 C.3     1  UNL1        0.0923
      9 C         -11.6860  -10.8678   30.8465 C.3     1  UNL1        0.0252
     10 C         -11.2928  -10.5681   32.3160 C.3     1  UNL1        0.0472
     11 C          -9.9542  -11.2305   32.7283 C.3     1  UNL1        0.0252
     12 C          -8.9806  -11.3782   31.5526 C.3     1  UNL1        0.0923
     13 C         -11.2566   -9.0473   32.5739 C.3     1  UNL1        0.2054
     14 O         -10.7974   -8.3387   31.4211 O.3     1  UNL1       -0.4752
     15 C          -9.6371   -7.5464   31.3442 C.ar    1  UNL1        0.1449
     16 C          -8.3975   -7.9946   31.8453 C.ar    1  UNL1        0.0435
     17 C          -7.2465   -7.1971   31.7431 C.ar    1  UNL1        0.0785
     18 C          -7.3415   -5.9394   31.1303 C.ar    1  UNL1        0.0068
     19 C          -8.5613   -5.4865   30.6284 C.ar    1  UNL1        0.0097
     20 C          -9.7168   -6.2788   30.7254 C.ar    1  UNL1        0.1093
     21 C          -5.9521   -7.6788   32.2766 C.2     1  UNL1        0.3381
     22 O          -4.9390   -7.7476   31.5291 O.2     1  UNL1       -0.2451
     23 O          -5.8403   -8.0608   33.6112 O.3     1  UNL1       -0.4771
     24 H          -4.9591   -8.3913   33.9858 H       1  UNL1        0.2954
     25 C         -11.0063   -5.7610   30.2038 C.2     1  UNL1        0.3410
     26 O         -11.1512   -4.5289   29.9856 O.2     1  UNL1       -0.2450
     27 O         -12.0759   -6.6154   29.9405 O.3     1  UNL1       -0.4770
     28 H         -12.0489   -7.6004   30.1722 H       1  UNL1        0.2954
     29 C          -6.8287  -15.0582   25.2528 C.2     1  UNL1        0.2839
     30 O          -7.9712  -14.7072   24.8526 O.2     1  UNL1       -0.2665
     31 N          -6.4960  -14.9817   26.6484 N.am    1  UNL1       -0.2766
     32 H          -5.6869  -15.5479   26.9913 H       1  UNL1        0.1553
     33 C          -4.2546  -16.8454   25.9258 C.3     1  UNL1        0.0345
     34 C          -4.7177  -16.3692   24.5819 C.ar    1  UNL1        0.0202
     35 C          -5.8421  -15.5880   24.2924 C.ar    1  UNL1        0.1946
     36 O          -5.9207  -15.3736   22.9911 O.2     1  UNL1       -0.4492
     37 C          -4.9048  -15.9748   22.4217 C.ar    1  UNL1        0.1452
     38 C          -4.5973  -16.0109   21.0662 C.ar    1  UNL1        0.0375
     39 C          -3.4519  -16.7215   20.6677 C.ar    1  UNL1        0.0031
     40 C          -2.6348  -17.3822   21.6247 C.ar    1  UNL1        0.0002
     41 C          -2.9833  -17.3202   22.9954 C.ar    1  UNL1        0.0028
     42 C          -4.1270  -16.6056   23.3553 C.ar    1  UNL1        0.0337
     43 C          -1.4272  -18.1301   21.1919 C.ar    1  UNL1        0.0000
     44 C          -0.5008  -17.5440   20.3084 C.ar    1  UNL1        0.0000
     45 C           0.6356  -18.2506   19.9024 C.ar    1  UNL1        0.0000
     46 C           0.8606  -19.5460   20.3729 C.ar    1  UNL1        0.0000
     47 C          -0.0504  -20.1383   21.2500 C.ar    1  UNL1        0.0000
     48 C          -1.1890  -19.4368   21.6587 C.ar    1  UNL1        0.0000
@<TRIPOS>BOND
     1    33    34    1
     2    34    35   ar
     3    35    29    1
     4    29    30    2
     5    29    31   am
     6    31     1    1
     7     1     2   ar
     8     2     3   ar
     9     3     4   ar
    10     4     7    1
    11     7     8    1
    12     8     9    1
    13     9    10    1
    14    10    13    1
    15    13    14    1
    16    14    15    1
    17    15    16   ar
    18    16    17   ar
    19    17    21    1
    20    21    22    2
    21    21    23    1
    22    17    18   ar
    23    18    19   ar
    24    19    20   ar
    25    20    25    1
    26    25    26    2
    27    25    27    1
    28    10    11    1
    29    11    12    1
    30     4     5   ar
    31     5     6   ar
    32    35    36   ar
    33    36    37   ar
    34    37    38   ar
    35    38    39   ar
    36    39    40   ar
    37    40    43    1
    38    43    44   ar
    39    44    45   ar
    40    45    46   ar
    41    46    47   ar
    42    47    48   ar
    43    40    41   ar
    44    41    42   ar
    45    42    34   ar
    46     6     1   ar
    47    42    37   ar
    48    12     7    1
    49    48    43   ar
    50    20    15   ar
    51    31    32    1
    52    23    24    1
    53    27    28    1
@<TRIPOS>MOLECULE
*****
 48 53 0 0 0
SMALL
GASTEIGER

@<TRIPOS>ATOM
      1 C          -6.9869  -14.6557   27.1705 C.ar    1  UNL1        0.0702
      2 C          -8.3267  -14.9865   27.4033 C.ar    1  UNL1        0.0191
      3 C          -9.0672  -14.2933   28.3619 C.ar    1  UNL1        0.0356
      4 C          -8.4560  -13.2682   29.1040 C.ar    1  UNL1        0.1318
      5 N          -7.1414  -12.9862   28.8813 N.ar    1  UNL1       -0.2279
      6 C          -6.4021  -13.6455   27.9506 C.ar    1  UNL1        0.1149
      7 N          -9.1866  -12.5286   30.1064 N.pl3   1  UNL1       -0.2932
      8 C         -10.6493  -12.6632   30.1866 C.3     1  UNL1        0.0923
      9 C         -11.2696  -11.3586   30.6918 C.3     1  UNL1        0.0252
     10 C         -10.7238  -10.9495   32.0842 C.3     1  UNL1        0.0472
     11 C          -9.3132  -11.5231   32.3704 C.3     1  UNL1        0.0252
     12 C          -8.4772  -11.7001   31.0970 C.3     1  UNL1        0.0923
     13 C         -10.7378   -9.4155   32.2487 C.3     1  UNL1        0.2054
     14 O          -9.4103   -8.8924   32.3283 O.3     1  UNL1       -0.4752
     15 C          -8.9338   -7.7406   31.6755 C.ar    1  UNL1        0.1449
     16 C          -9.8044   -6.8429   31.0238 C.ar    1  UNL1        0.0435
     17 C          -9.3121   -5.6891   30.3933 C.ar    1  UNL1        0.0785
     18 C          -7.9334   -5.4342   30.4196 C.ar    1  UNL1        0.0068
     19 C          -7.0628   -6.3132   31.0634 C.ar    1  UNL1        0.0097
     20 C          -7.5476   -7.4686   31.6976 C.ar    1  UNL1        0.1093
     21 C         -10.2371   -4.7567   29.7099 C.2     1  UNL1        0.3381
     22 O          -9.7875   -3.8018   29.0201 O.2     1  UNL1       -0.2451
     23 O         -11.6150   -4.9257   29.8217 O.3     1  UNL1       -0.4771
     24 H         -12.2562   -4.2935   29.3577 H       1  UNL1        0.2954
     25 C          -6.5951   -8.3984   32.3544 C.2     1  UNL1        0.3410
     26 O          -5.4202   -8.5144   31.9154 O.2     1  UNL1       -0.2450
     27 O          -6.9705   -9.1546   33.4636 O.3     1  UNL1       -0.4770
     28 H          -7.9211   -9.1670   33.8113 H       1  UNL1        0.2954
     29 C          -6.2038  -15.0830   24.7937 C.2     1  UNL1        0.2839
     30 O          -7.0522  -14.2901   24.3036 O.2     1  UNL1       -0.2665
     31 N          -6.2301  -15.3944   26.1961 N.am    1  UNL1       -0.2766
     32 H          -5.7375  -16.2592   26.5156 H       1  UNL1        0.1553
     33 C          -3.9099  -17.1394   25.6783 C.3     1  UNL1        0.0345
     34 C          -4.2026  -16.6251   24.3010 C.ar    1  UNL1        0.0202
     35 C          -5.2050  -15.7263   23.9190 C.ar    1  UNL1        0.1946
     36 O          -5.1497  -15.5145   22.6161 O.2     1  UNL1       -0.4492
     37 C          -4.1627  -16.2290   22.1333 C.ar    1  UNL1        0.1452
     38 C          -3.7483  -16.3094   20.8085 C.ar    1  UNL1        0.0375
     39 C          -2.6596  -17.1457   20.5069 C.ar    1  UNL1        0.0031
     40 C          -2.0043  -17.8855   21.5282 C.ar    1  UNL1        0.0002
     41 C          -2.4576  -17.7746   22.8648 C.ar    1  UNL1        0.0028
     42 C          -3.5409  -16.9350   23.1282 C.ar    1  UNL1        0.0337
     43 C          -0.8552  -18.7659   21.1975 C.ar    1  UNL1        0.0000
     44 C           0.2000  -18.2940   20.3936 C.ar    1  UNL1        0.0000
     45 C           1.2808  -19.1253   20.0837 C.ar    1  UNL1        0.0000
     46 C           1.3218  -20.4330   20.5720 C.ar    1  UNL1        0.0000
     47 C           0.2817  -20.9129   21.3708 C.ar    1  UNL1        0.0000
     48 C          -0.8021  -20.0863   21.6832 C.ar    1  UNL1        0.0000
@<TRIPOS>BOND
     1    33    34    1
     2    34    35   ar
     3    35    29    1
     4    29    30    2
     5    29    31   am
     6    31     1    1
     7     1     2   ar
     8     2     3   ar
     9     3     4   ar
    10     4     7    1
    11     7     8    1
    12     8     9    1
    13     9    10    1
    14    10    13    1
    15    13    14    1
    16    14    15    1
    17    15    16   ar
    18    16    17   ar
    19    17    21    1
    20    21    22    2
    21    21    23    1
    22    17    18   ar
    23    18    19   ar
    24    19    20   ar
    25    20    25    1
    26    25    26    2
    27    25    27    1
    28    10    11    1
    29    11    12    1
    30     4     5   ar
    31     5     6   ar
    32    35    36   ar
    33    36    37   ar
    34    37    38   ar
    35    38    39   ar
    36    39    40   ar
    37    40    43    1
    38    43    44   ar
    39    44    45   ar
    40    45    46   ar
    41    46    47   ar
    42    47    48   ar
    43    40    41   ar
    44    41    42   ar
    45    42    34   ar
    46     6     1   ar
    47    42    37   ar
    48    12     7    1
    49    48    43   ar
    50    20    15   ar
    51    31    32    1
    52    23    24    1
    53    27    28    1
@<TRIPOS>MOLECULE
*****
 48 53 0 0 0
SMALL
GASTEIGER

@<TRIPOS>ATOM
      1 C          -6.5650  -14.8745   26.8674 C.ar    1  UNL1        0.0702
      2 C          -7.8921  -15.2178   27.1498 C.ar    1  UNL1        0.0191
      3 C          -8.6394  -14.4593   28.0519 C.ar    1  UNL1        0.0356
      4 C          -8.0475  -13.3544   28.6876 C.ar    1  UNL1        0.1318
      5 N          -6.7441  -13.0594   28.4202 N.ar    1  UNL1       -0.2279
      6 C          -5.9987  -13.7817   27.5427 C.ar    1  UNL1        0.1149
      7 N          -8.7856  -12.5453   29.6291 N.pl3   1  UNL1       -0.2932
      8 C         -10.2440  -12.4148   29.4881 C.3     1  UNL1        0.0923
      9 C         -10.7003  -11.0461   29.9984 C.3     1  UNL1        0.0252
     10 C         -10.3142  -10.8138   31.4819 C.3     1  UNL1        0.0472
     11 C          -9.0855  -11.6487   31.9222 C.3     1  UNL1        0.0252
     12 C          -8.1057  -11.9109   30.7719 C.3     1  UNL1        0.0923
     13 C         -10.0884   -9.3132   31.7605 C.3     1  UNL1        0.2054
     14 O          -9.5119   -8.6587   30.6284 O.3     1  UNL1       -0.4752
     15 C          -8.1449   -8.3859   30.4372 C.ar    1  UNL1        0.1449
     16 C          -7.3339   -9.1960   29.6158 C.ar    1  UNL1        0.0435
     17 C          -5.9758   -8.8972   29.4226 C.ar    1  UNL1        0.0785
     18 C          -5.4283   -7.7738   30.0586 C.ar    1  UNL1        0.0068
     19 C          -6.2210   -6.9635   30.8712 C.ar    1  UNL1        0.0097
     20 C          -7.5806   -7.2547   31.0682 C.ar    1  UNL1        0.1093
     21 C          -5.1351   -9.7583   28.5601 C.2     1  UNL1        0.3381
     22 O          -3.9052   -9.8972   28.8010 O.2     1  UNL1       -0.2451
     23 O          -5.6951  -10.4247   27.4730 O.3     1  UNL1       -0.4771
     24 H          -5.1286  -11.0163   26.8771 H       1  UNL1        0.2954
     25 C          -8.3942   -6.3883   31.9573 C.2     1  UNL1        0.3410
     26 O          -7.9776   -6.0961   33.1096 O.2     1  UNL1       -0.2450
     27 O          -9.6235   -5.8779   31.5431 O.3     1  UNL1       -0.4770
     28 H         -10.0486   -6.1428   30.6635 H       1  UNL1        0.2954
     29 C          -5.6940  -15.4158   24.5450 C.2     1  UNL1        0.2839
     30 O          -6.4795  -14.6006   23.9908 O.2     1  UNL1       -0.2665
     31 N          -5.8004  -15.6794   25.9533 N.am    1  UNL1       -0.2766
     32 H          -5.3655  -16.5554   26.3224 H       1  UNL1        0.1553
     33 C          -3.4819  -17.4736   25.6151 C.3     1  UNL1        0.0345
     34 C          -3.7212  -17.0332   24.2023 C.ar    1  UNL1        0.0202
     35 C          -4.6880  -16.1335   23.7392 C.ar    1  UNL1        0.1946
     36 O          -4.5897  -15.9994   22.4285 O.2     1  UNL1       -0.4492
     37 C          -3.6086  -16.7651   22.0176 C.ar    1  UNL1        0.1452
     38 C          -3.1587  -16.9327   20.7127 C.ar    1  UNL1        0.0375
     39 C          -2.0844  -17.8119   20.4926 C.ar    1  UNL1        0.0031
     40 C          -1.4785  -18.5071   21.5741 C.ar    1  UNL1        0.0002
     41 C          -1.9669  -18.3074   22.8878 C.ar    1  UNL1        0.0028
     42 C          -3.0346  -17.4272   23.0697 C.ar    1  UNL1        0.0337
     43 C          -0.3442  -19.4336   21.3293 C.ar    1  UNL1        0.0000
     44 C           0.9102  -18.9382   20.9250 C.ar    1  UNL1        0.0000
     45 C           1.9767  -19.8129   20.6952 C.ar    1  UNL1        0.0000
     46 C           1.8047  -21.1881   20.8668 C.ar    1  UNL1        0.0000
     47 C           0.5656  -21.6920   21.2681 C.ar    1  UNL1        0.0000
     48 C          -0.5047  -20.8220   21.4985 C.ar    1  UNL1        0.0000
@<TRIPOS>BOND
     1    33    34    1
     2    34    35   ar
     3    35    29    1
     4    29    30    2
     5    29    31   am
     6    31     1    1
     7     1     2   ar
     8     2     3   ar
     9     3     4   ar
    10     4     7    1
    11     7     8    1
    12     8     9    1
    13     9    10    1
    14    10    13    1
    15    13    14    1
    16    14    15    1
    17    15    16   ar
    18    16    17   ar
    19    17    21    1
    20    21    22    2
    21    21    23    1
    22    17    18   ar
    23    18    19   ar
    24    19    20   ar
    25    20    25    1
    26    25    26    2
    27    25    27    1
    28    10    11    1
    29    11    12    1
    30     4     5   ar
    31     5     6   ar
    32    35    36   ar
    33    36    37   ar
    34    37    38   ar
    35    38    39   ar
    36    39    40   ar
    37    40    43    1
    38    43    44   ar
    39    44    45   ar
    40    45    46   ar
    41    46    47   ar
    42    47    48   ar
    43    40    41   ar
    44    41    42   ar
    45    42    34   ar
    46     6     1   ar
    47    42    37   ar
    48    12     7    1
    49    48    43   ar
    50    20    15   ar
    51    31    32    1
    52    23    24    1
    53    27    28    1
