@<TRIPOS>MOLECULE
*****
 39 43 0 0 0
SMALL
GASTEIGER

@<TRIPOS>ATOM
      1 C          49.7175   13.7380  -23.0372 C.2     1  UNL1        0.2506
      2 O          48.7330   14.0863  -23.7444 O.2     1  UNL1       -0.2699
      3 N          51.0540   13.8622  -23.5638 N.am    1  UNL1       -0.2680
      4 C          52.1543   14.3186  -22.7039 C.3     1  UNL1        0.1412
      5 C          53.4891   13.6799  -23.0983 C.3     1  UNL1        0.2268
      6 O          53.3734   12.2642  -23.2230 O.3     1  UNL1       -0.4739
      7 C          52.7432   11.5777  -24.2768 C.ar    1  UNL1        0.1362
      8 C          53.0797   10.2292  -24.4430 C.ar    1  UNL1        0.0366
      9 C          52.5218    9.4720  -25.4728 C.ar    1  UNL1        0.0031
     10 C          51.6140   10.0540  -26.3645 C.ar    1  UNL1        0.0004
     11 C          51.2416   11.3941  -26.1900 C.ar    1  UNL1        0.0004
     12 C          51.7852   12.1661  -25.1476 C.ar    1  UNL1        0.0317
     13 C          51.3080   13.5865  -24.9813 C.3     1  UNL1        0.1236
     14 C          51.0191    9.2449  -27.4501 C.ar    1  UNL1        0.0069
     15 C          49.7791    8.5929  -27.2175 C.ar    1  UNL1        0.0021
     16 C          49.1708    7.8192  -28.2211 C.ar    1  UNL1        0.0207
     17 C          49.8260    7.7108  -29.4420 C.ar    1  UNL1        0.0990
     18 N          49.4290    7.0207  -30.5261 N.ar    1  UNL1       -0.2241
     19 C          50.4333    7.2460  -31.4125 C.ar    1  UNL1        0.1750
     20 N          51.4189    8.0348  -30.9227 N.ar    1  UNL1       -0.3346
     21 C          51.0204    8.3224  -29.6758 C.ar    1  UNL1        0.0811
     22 C          51.6632    9.1011  -28.7099 C.ar    1  UNL1        0.0386
     23 S          53.2731    9.8235  -29.0580 S.3     1  UNL1       -0.1400
     24 H          52.2872    8.3435  -31.4135 H       1  UNL1        0.1675
     25 H          52.6965   10.9865  -29.6014 H       1  UNL1        0.1072
     26 C          49.7667   11.7993  -21.4080 C.ar    1  UNL1        0.0503
     27 C          49.5691   11.3248  -20.0958 C.ar    1  UNL1        0.0328
     28 C          49.0837   12.1705  -19.0917 C.ar    1  UNL1        0.1069
     29 C          48.8006   13.5060  -19.3878 C.ar    1  UNL1        0.0186
     30 C          48.9923   13.9934  -20.6797 C.ar    1  UNL1        0.0071
     31 C          49.4720   13.1545  -21.6989 C.ar    1  UNL1        0.0667
     32 S          48.8554   11.5559  -17.4575 S.O2    1  UNL1        0.0105
     33 C          49.0002   12.8967  -16.2987 C.3     1  UNL1        0.1816
     34 O          47.4954   10.9285  -17.3299 O.2     1  UNL1       -0.1686
     35 O          49.8969   10.5145  -17.1574 O.2     1  UNL1       -0.1686
     36 N          50.1995   10.9048  -22.4543 N.pl3   1  UNL1       -0.3325
     37 H          51.1833   10.9665  -22.8004 H       1  UNL1        0.1468
     38 C          49.9522    8.5625  -23.1352 C.3     1  UNL1        0.0229
     39 C          49.3234    9.9508  -23.1335 C.3     1  UNL1        0.0871
@<TRIPOS>BOND
     1    38    39    1
     2    39    36    1
     3    36    26    1
     4    26    27   ar
     5    27    28   ar
     6    28    32    1
     7    32    33    1
     8    32    34    2
     9    32    35    2
    10    28    29   ar
    11    29    30   ar
    12    30    31   ar
    13    31     1    1
    14     1     2    2
    15     1     3   am
    16     3     4    1
    17     4     5    1
    18     5     6    1
    19     6     7    1
    20     7     8   ar
    21     8     9   ar
    22     9    10   ar
    23    10    14    1
    24    14    15   ar
    25    15    16   ar
    26    16    17   ar
    27    17    18   ar
    28    18    19   ar
    29    19    20   ar
    30    20    21   ar
    31    21    22   ar
    32    22    23    1
    33    10    11   ar
    34    11    12   ar
    35    12    13    1
    36    31    26   ar
    37    13     3    1
    38    12     7   ar
    39    22    14   ar
    40    21    17   ar
    41    36    37    1
    42    20    24    1
    43    23    25    1
@<TRIPOS>MOLECULE
*****
 39 43 0 0 0
SMALL
GASTEIGER

@<TRIPOS>ATOM
      1 C          49.2721   13.9411  -24.2148 C.2     1  UNL1        0.2506
      2 O          48.5674   14.4068  -25.1514 O.2     1  UNL1       -0.2699
      3 N          50.6978   13.8152  -24.3891 N.am    1  UNL1       -0.2680
      4 C          51.6143   14.1313  -23.2853 C.3     1  UNL1        0.1412
      5 C          52.8741   13.2614  -23.3230 C.3     1  UNL1        0.2268
      6 O          52.5500   11.8793  -23.4557 O.3     1  UNL1       -0.4739
      7 C          52.0898   11.2486  -24.6260 C.ar    1  UNL1        0.1362
      8 C          52.2187    9.8561  -24.6857 C.ar    1  UNL1        0.0366
      9 C          51.8094    9.1453  -25.8136 C.ar    1  UNL1        0.0031
     10 C          51.2636    9.8185  -26.9122 C.ar    1  UNL1        0.0004
     11 C          51.0970   11.2091  -26.8534 C.ar    1  UNL1        0.0004
     12 C          51.4921   11.9374  -25.7170 C.ar    1  UNL1        0.0317
     13 C          51.2414   13.4240  -25.6934 C.3     1  UNL1        0.1236
     14 C          50.8238    9.0595  -28.1029 C.ar    1  UNL1        0.0069
     15 C          49.4614    8.6708  -28.2024 C.ar    1  UNL1        0.0021
     16 C          48.9946    7.9550  -29.3184 C.ar    1  UNL1        0.0207
     17 C          49.9108    7.6375  -30.3140 C.ar    1  UNL1        0.0990
     18 N          49.6813    6.9580  -31.4519 N.ar    1  UNL1       -0.2241
     19 C          50.9065    6.9259  -32.0374 C.ar    1  UNL1        0.1750
     20 N          51.8671    7.5486  -31.3140 N.ar    1  UNL1       -0.3346
     21 C          51.2223    7.9951  -30.2273 C.ar    1  UNL1        0.0811
     22 C          51.7326    8.7067  -29.1383 C.ar    1  UNL1        0.0386
     23 S          53.4885    9.0864  -29.0511 S.3     1  UNL1       -0.1400
     24 H          52.8772    7.6522  -31.5572 H       1  UNL1        0.1675
     25 H          53.3194   10.2947  -29.7522 H       1  UNL1        0.1072
     26 C          47.5887   12.4959  -22.9930 C.ar    1  UNL1        0.0503
     27 C          47.0432   12.0559  -21.7703 C.ar    1  UNL1        0.0328
     28 C          47.4907   12.5826  -20.5532 C.ar    1  UNL1        0.1069
     29 C          48.4991   13.5495  -20.5458 C.ar    1  UNL1        0.0186
     30 C          49.0520   13.9948  -21.7454 C.ar    1  UNL1        0.0071
     31 C          48.6078   13.4804  -22.9745 C.ar    1  UNL1        0.0667
     32 S          46.8002   12.0086  -19.0386 S.O2    1  UNL1        0.0105
     33 C          45.0361   11.8690  -19.2112 C.3     1  UNL1        0.1816
     34 O          47.3767   10.6655  -18.6875 O.2     1  UNL1       -0.1686
     35 O          47.1245   12.9759  -17.9348 O.2     1  UNL1       -0.1686
     36 N          47.0734   12.0010  -24.2467 N.pl3   1  UNL1       -0.3325
     37 H          47.6845   11.4014  -24.8455 H       1  UNL1        0.1468
     38 C          45.6795   11.9716  -26.2633 C.3     1  UNL1        0.0229
     39 C          45.7597   12.3470  -24.7884 C.3     1  UNL1        0.0871
@<TRIPOS>BOND
     1    38    39    1
     2    39    36    1
     3    36    26    1
     4    26    27   ar
     5    27    28   ar
     6    28    32    1
     7    32    33    1
     8    32    34    2
     9    32    35    2
    10    28    29   ar
    11    29    30   ar
    12    30    31   ar
    13    31     1    1
    14     1     2    2
    15     1     3   am
    16     3     4    1
    17     4     5    1
    18     5     6    1
    19     6     7    1
    20     7     8   ar
    21     8     9   ar
    22     9    10   ar
    23    10    14    1
    24    14    15   ar
    25    15    16   ar
    26    16    17   ar
    27    17    18   ar
    28    18    19   ar
    29    19    20   ar
    30    20    21   ar
    31    21    22   ar
    32    22    23    1
    33    10    11   ar
    34    11    12   ar
    35    12    13    1
    36    31    26   ar
    37    13     3    1
    38    12     7   ar
    39    22    14   ar
    40    21    17   ar
    41    36    37    1
    42    20    24    1
    43    23    25    1
@<TRIPOS>MOLECULE
*****
 39 43 0 0 0
SMALL
GASTEIGER

@<TRIPOS>ATOM
      1 C          46.7474   12.4408  -22.8225 C.2     1  UNL1        0.2506
      2 O          45.8333   11.7326  -23.3261 O.2     1  UNL1       -0.2699
      3 N          47.3423   13.4979  -23.6019 N.am    1  UNL1       -0.2680
      4 C          47.6782   14.7850  -22.9783 C.3     1  UNL1        0.1412
      5 C          48.9116   15.4259  -23.6211 C.3     1  UNL1        0.2268
      6 O          49.9938   14.5017  -23.7085 O.3     1  UNL1       -0.4739
      7 C          50.0910   13.4281  -24.6124 C.ar    1  UNL1        0.1362
      8 C          51.3684   12.8987  -24.8297 C.ar    1  UNL1        0.0366
      9 C          51.5666   11.8468  -25.7236 C.ar    1  UNL1        0.0031
     10 C          50.4846   11.3035  -26.4251 C.ar    1  UNL1        0.0004
     11 C          49.1948   11.8007  -26.1926 C.ar    1  UNL1        0.0004
     12 C          48.9777   12.8517  -25.2836 C.ar    1  UNL1        0.0317
     13 C          47.5621   13.3094  -25.0392 C.3     1  UNL1        0.1236
     14 C          50.6988   10.1828  -27.3661 C.ar    1  UNL1        0.0069
     15 C          49.6826    9.2003  -27.5034 C.ar    1  UNL1        0.0021
     16 C          49.8372    8.1210  -28.3906 C.ar    1  UNL1        0.0207
     17 C          51.0171    8.0468  -29.1212 C.ar    1  UNL1        0.0990
     18 N          51.3710    7.1029  -30.0117 N.ar    1  UNL1       -0.2241
     19 C          52.6060    7.5076  -30.4067 C.ar    1  UNL1        0.1750
     20 N          53.0202    8.6460  -29.8017 N.ar    1  UNL1       -0.3346
     21 C          52.0043    8.9764  -28.9924 C.ar    1  UNL1        0.0811
     22 C          51.8964   10.0659  -28.1241 C.ar    1  UNL1        0.0386
     23 S          53.2655   11.2189  -27.9483 S.3     1  UNL1       -0.1400
     24 H          53.9266    9.1451  -29.9416 H       1  UNL1        0.1675
     25 H          52.7976   12.0231  -29.0041 H       1  UNL1        0.1072
     26 C          48.4645   11.4765  -21.2298 C.ar    1  UNL1        0.0503
     27 C          48.8930   11.2696  -19.9033 C.ar    1  UNL1        0.0328
     28 C          48.1130   11.6951  -18.8219 C.ar    1  UNL1        0.1069
     29 C          46.8981   12.3437  -19.0569 C.ar    1  UNL1        0.0186
     30 C          46.4596   12.5590  -20.3624 C.ar    1  UNL1        0.0071
     31 C          47.2285   12.1311  -21.4570 C.ar    1  UNL1        0.0667
     32 S          48.6756   11.4340  -17.1740 S.O2    1  UNL1        0.0105
     33 C          49.0361   13.0031  -16.4193 C.3     1  UNL1        0.1816
     34 O          47.6169   10.7259  -16.3757 O.2     1  UNL1       -0.1686
     35 O          49.9158   10.5849  -17.1903 O.2     1  UNL1       -0.1686
     36 N          49.2389   10.9722  -22.3381 N.pl3   1  UNL1       -0.3325
     37 H          49.8968   11.6160  -22.8324 H       1  UNL1        0.1468
     38 C          50.4494    9.1441  -23.4352 C.3     1  UNL1        0.0229
     39 C          49.1119    9.6201  -22.8808 C.3     1  UNL1        0.0871
@<TRIPOS>BOND
     1    38    39    1
     2    39    36    1
     3    36    26    1
     4    26    27   ar
     5    27    28   ar
     6    28    32    1
     7    32    33    1
     8    32    34    2
     9    32    35    2
    10    28    29   ar
    11    29    30   ar
    12    30    31   ar
    13    31     1    1
    14     1     2    2
    15     1     3   am
    16     3     4    1
    17     4     5    1
    18     5     6    1
    19     6     7    1
    20     7     8   ar
    21     8     9   ar
    22     9    10   ar
    23    10    14    1
    24    14    15   ar
    25    15    16   ar
    26    16    17   ar
    27    17    18   ar
    28    18    19   ar
    29    19    20   ar
    30    20    21   ar
    31    21    22   ar
    32    22    23    1
    33    10    11   ar
    34    11    12   ar
    35    12    13    1
    36    31    26   ar
    37    13     3    1
    38    12     7   ar
    39    22    14   ar
    40    21    17   ar
    41    36    37    1
    42    20    24    1
    43    23    25    1
@<TRIPOS>MOLECULE
*****
 39 43 0 0 0
SMALL
GASTEIGER

@<TRIPOS>ATOM
      1 C          49.8313    9.7104  -27.4650 C.2     1  UNL1        0.2506
      2 O          48.8493   10.0294  -28.1893 O.2     1  UNL1       -0.2699
      3 N          49.7220    9.8088  -26.0308 N.am    1  UNL1       -0.2680
      4 C          50.3095    8.7766  -25.1660 C.3     1  UNL1        0.1412
      5 C          50.7974    9.3570  -23.8354 C.3     1  UNL1        0.2268
      6 O          51.6157   10.5071  -24.0368 O.3     1  UNL1       -0.4739
      7 C          51.1647   11.7839  -24.4186 C.ar    1  UNL1        0.1362
      8 C          52.0258   12.8588  -24.1691 C.ar    1  UNL1        0.0366
      9 C          51.6571   14.1640  -24.4941 C.ar    1  UNL1        0.0031
     10 C          50.4103   14.4211  -25.0749 C.ar    1  UNL1        0.0004
     11 C          49.5514   13.3510  -25.3617 C.ar    1  UNL1        0.0004
     12 C          49.9155   12.0283  -25.0525 C.ar    1  UNL1        0.0317
     13 C          48.9708   10.9158  -25.4308 C.3     1  UNL1        0.1236
     14 C          50.0270   15.8059  -25.4250 C.ar    1  UNL1        0.0069
     15 C          50.7762   16.4939  -26.4161 C.ar    1  UNL1        0.0021
     16 C          50.4453   17.8084  -26.7881 C.ar    1  UNL1        0.0207
     17 C          49.3674   18.4105  -26.1501 C.ar    1  UNL1        0.0990
     18 N          48.8891   19.6523  -26.3457 N.ar    1  UNL1       -0.2241
     19 C          47.8565   19.7208  -25.4660 C.ar    1  UNL1        0.1750
     20 N          47.6842   18.5868  -24.7462 N.ar    1  UNL1       -0.3346
     21 C          48.6461   17.7663  -25.1908 C.ar    1  UNL1        0.0811
     22 C          48.9368   16.4602  -24.7879 C.ar    1  UNL1        0.0386
     23 S          47.9903   15.6919  -23.4656 S.3     1  UNL1       -0.1400
     24 H          46.9625   18.4035  -24.0143 H       1  UNL1        0.1675
     25 H          47.0308   15.1929  -24.3659 H       1  UNL1        0.1072
     26 C          51.1315    8.2970  -29.1164 C.ar    1  UNL1        0.0503
     27 C          52.3610    7.9944  -29.7352 C.ar    1  UNL1        0.0328
     28 C          53.5351    8.6595  -29.3634 C.ar    1  UNL1        0.1069
     29 C          53.4894    9.6447  -28.3740 C.ar    1  UNL1        0.0186
     30 C          52.2817    9.9588  -27.7528 C.ar    1  UNL1        0.0071
     31 C          51.0971    9.2946  -28.1107 C.ar    1  UNL1        0.0667
     32 S          55.0568    8.2704  -30.1592 S.O2    1  UNL1        0.0105
     33 C          54.7893    6.9635  -31.3347 C.3     1  UNL1        0.1816
     34 O          55.5892    9.4827  -30.8708 O.2     1  UNL1       -0.1686
     35 O          56.0660    7.8303  -29.1359 O.2     1  UNL1       -0.1686
     36 N          49.9388    7.5582  -29.4539 N.pl3   1  UNL1       -0.3325
     37 H          49.6190    6.7927  -28.8189 H       1  UNL1        0.1468
     38 C          49.4169    6.6013  -31.6500 C.3     1  UNL1        0.0229
     39 C          49.1720    7.7541  -30.6837 C.3     1  UNL1        0.0871
@<TRIPOS>BOND
     1    38    39    1
     2    39    36    1
     3    36    26    1
     4    26    27   ar
     5    27    28   ar
     6    28    32    1
     7    32    33    1
     8    32    34    2
     9    32    35    2
    10    28    29   ar
    11    29    30   ar
    12    30    31   ar
    13    31     1    1
    14     1     2    2
    15     1     3   am
    16     3     4    1
    17     4     5    1
    18     5     6    1
    19     6     7    1
    20     7     8   ar
    21     8     9   ar
    22     9    10   ar
    23    10    14    1
    24    14    15   ar
    25    15    16   ar
    26    16    17   ar
    27    17    18   ar
    28    18    19   ar
    29    19    20   ar
    30    20    21   ar
    31    21    22   ar
    32    22    23    1
    33    10    11   ar
    34    11    12   ar
    35    12    13    1
    36    31    26   ar
    37    13     3    1
    38    12     7   ar
    39    22    14   ar
    40    21    17   ar
    41    36    37    1
    42    20    24    1
    43    23    25    1
@<TRIPOS>MOLECULE
*****
 39 43 0 0 0
SMALL
GASTEIGER

@<TRIPOS>ATOM
      1 C          52.1748   12.0075  -24.7711 C.2     1  UNL1        0.2506
      2 O          53.2135   11.7134  -24.1187 O.2     1  UNL1       -0.2699
      3 N          51.5622   13.3004  -24.5926 N.am    1  UNL1       -0.2680
      4 C          51.0170   14.0319  -25.7440 C.3     1  UNL1        0.1412
      5 C          49.8039   14.8827  -25.3570 C.3     1  UNL1        0.2268
      6 O          48.8471   14.1229  -24.6220 O.3     1  UNL1       -0.4739
      7 C          48.9740   13.7101  -23.2831 C.ar    1  UNL1        0.1362
      8 C          47.7964   13.3464  -22.6196 C.ar    1  UNL1        0.0366
      9 C          47.8201   12.9433  -21.2848 C.ar    1  UNL1        0.0031
     10 C          49.0293   12.9001  -20.5821 C.ar    1  UNL1        0.0004
     11 C          50.2210   13.2288  -21.2430 C.ar    1  UNL1        0.0004
     12 C          50.2143   13.6235  -22.5928 C.ar    1  UNL1        0.0317
     13 C          51.5331   13.9163  -23.2623 C.3     1  UNL1        0.1236
     14 C          49.0503   12.4644  -19.1689 C.ar    1  UNL1        0.0069
     15 C          47.8427   12.0120  -18.5739 C.ar    1  UNL1        0.0021
     16 C          47.8144   11.5807  -17.2363 C.ar    1  UNL1        0.0207
     17 C          49.0037   11.6180  -16.5182 C.ar    1  UNL1        0.0990
     18 N          49.1976   11.2622  -15.2357 N.ar    1  UNL1       -0.2241
     19 C          50.5204   11.5085  -15.0502 C.ar    1  UNL1        0.1750
     20 N          51.1385   11.9963  -16.1518 N.ar    1  UNL1       -0.3346
     21 C          50.1671   12.0587  -17.0730 C.ar    1  UNL1        0.0811
     22 C          50.2446   12.4970  -18.3976 C.ar    1  UNL1        0.0386
     23 S          51.7959   13.1335  -19.0482 S.3     1  UNL1       -0.1400
     24 H          52.1440   12.2597  -16.2507 H       1  UNL1        0.1675
     25 H          52.2156   11.8533  -19.4548 H       1  UNL1        0.1072
     26 C          50.4268   10.2504  -25.2927 C.ar    1  UNL1        0.0503
     27 C          49.8689    9.3453  -26.2177 C.ar    1  UNL1        0.0328
     28 C          50.4379    9.1709  -27.4846 C.ar    1  UNL1        0.1069
     29 C          51.5673    9.9103  -27.8443 C.ar    1  UNL1        0.0186
     30 C          52.1312   10.8119  -26.9431 C.ar    1  UNL1        0.0071
     31 C          51.5751   10.9919  -25.6660 C.ar    1  UNL1        0.0667
     32 S          49.7157    8.0414  -28.6260 S.O2    1  UNL1        0.0105
     33 C          50.8641    7.7227  -29.9455 C.3     1  UNL1        0.1816
     34 O          49.3814    6.7514  -27.9306 O.2     1  UNL1       -0.1686
     35 O          48.4510    8.6279  -29.1882 O.2     1  UNL1       -0.1686
     36 N          49.8779   10.3729  -23.9638 N.pl3   1  UNL1       -0.3325
     37 H          49.3840   11.2543  -23.6977 H       1  UNL1        0.1468
     38 C          48.8506    9.4155  -21.9542 C.3     1  UNL1        0.0229
     39 C          50.0321    9.3648  -22.9155 C.3     1  UNL1        0.0871
@<TRIPOS>BOND
     1    38    39    1
     2    39    36    1
     3    36    26    1
     4    26    27   ar
     5    27    28   ar
     6    28    32    1
     7    32    33    1
     8    32    34    2
     9    32    35    2
    10    28    29   ar
    11    29    30   ar
    12    30    31   ar
    13    31     1    1
    14     1     2    2
    15     1     3   am
    16     3     4    1
    17     4     5    1
    18     5     6    1
    19     6     7    1
    20     7     8   ar
    21     8     9   ar
    22     9    10   ar
    23    10    14    1
    24    14    15   ar
    25    15    16   ar
    26    16    17   ar
    27    17    18   ar
    28    18    19   ar
    29    19    20   ar
    30    20    21   ar
    31    21    22   ar
    32    22    23    1
    33    10    11   ar
    34    11    12   ar
    35    12    13    1
    36    31    26   ar
    37    13     3    1
    38    12     7   ar
    39    22    14   ar
    40    21    17   ar
    41    36    37    1
    42    20    24    1
    43    23    25    1
@<TRIPOS>MOLECULE
*****
 39 43 0 0 0
SMALL
GASTEIGER

@<TRIPOS>ATOM
      1 C          46.6350   12.7624  -22.3481 C.2     1  UNL1        0.2506
      2 O          45.7837   11.9762  -22.8459 O.2     1  UNL1       -0.2699
      3 N          47.1391   13.8599  -23.1355 N.am    1  UNL1       -0.2680
      4 C          47.3656   15.1753  -22.5215 C.3     1  UNL1        0.1412
      5 C          48.5409   15.9127  -23.1698 C.3     1  UNL1        0.2268
      6 O          49.6969   15.0821  -23.2509 O.3     1  UNL1       -0.4739
      7 C          49.8840   14.0139  -24.1470 C.ar    1  UNL1        0.1362
      8 C          51.2014   13.5920  -24.3611 C.ar    1  UNL1        0.0366
      9 C          51.4874   12.5539  -25.2473 C.ar    1  UNL1        0.0031
     10 C          50.4549   11.9165  -25.9442 C.ar    1  UNL1        0.0004
     11 C          49.1278   12.3053  -25.7147 C.ar    1  UNL1        0.0004
     12 C          48.8231   13.3410  -24.8133 C.ar    1  UNL1        0.0317
     13 C          47.3741   13.6800  -24.5716 C.3     1  UNL1        0.1236
     14 C          50.7625   10.8109  -26.8771 C.ar    1  UNL1        0.0069
     15 C          49.7416    9.8742  -27.1892 C.ar    1  UNL1        0.0021
     16 C          49.9840    8.8112  -28.0763 C.ar    1  UNL1        0.0207
     17 C          51.2543    8.7063  -28.6302 C.ar    1  UNL1        0.0990
     18 N          51.6992    7.7704  -29.4876 N.ar    1  UNL1       -0.2241
     19 C          52.9927    8.1337  -29.6874 C.ar    1  UNL1        0.1750
     20 N          53.3560    9.2394  -28.9953 N.ar    1  UNL1       -0.3346
     21 C          52.2458    9.5915  -28.3323 C.ar    1  UNL1        0.0811
     22 C          52.0527   10.6634  -27.4569 C.ar    1  UNL1        0.0386
     23 S          53.4232   11.7549  -27.0506 S.3     1  UNL1       -0.1400
     24 H          54.2909    9.7043  -28.9877 H       1  UNL1        0.1675
     25 H          53.1443   12.6026  -28.1386 H       1  UNL1        0.1072
     26 C          46.2827   12.0882  -19.9322 C.ar    1  UNL1        0.0503
     27 C          46.8392   11.7975  -18.6705 C.ar    1  UNL1        0.0328
     28 C          48.2152   11.9217  -18.4465 C.ar    1  UNL1        0.1069
     29 C          49.0526   12.3282  -19.4882 C.ar    1  UNL1        0.0186
     30 C          48.5200   12.6176  -20.7435 C.ar    1  UNL1        0.0071
     31 C          47.1404   12.5043  -20.9806 C.ar    1  UNL1        0.0667
     32 S          48.8872   11.5425  -16.8638 S.O2    1  UNL1        0.0105
     33 C          49.4247   13.0437  -16.0773 C.3     1  UNL1        0.1816
     34 O          47.8457   10.8750  -16.0099 O.2     1  UNL1       -0.1686
     35 O          50.0543   10.6081  -17.0192 O.2     1  UNL1       -0.1686
     36 N          44.8555   12.0268  -20.1364 N.pl3   1  UNL1       -0.3325
     37 H          44.4783   12.0948  -21.1083 H       1  UNL1        0.1468
     38 C          42.4592   11.9639  -19.6221 C.3     1  UNL1        0.0229
     39 C          43.8737   11.9524  -19.0550 C.3     1  UNL1        0.0871
@<TRIPOS>BOND
     1    38    39    1
     2    39    36    1
     3    36    26    1
     4    26    27   ar
     5    27    28   ar
     6    28    32    1
     7    32    33    1
     8    32    34    2
     9    32    35    2
    10    28    29   ar
    11    29    30   ar
    12    30    31   ar
    13    31     1    1
    14     1     2    2
    15     1     3   am
    16     3     4    1
    17     4     5    1
    18     5     6    1
    19     6     7    1
    20     7     8   ar
    21     8     9   ar
    22     9    10   ar
    23    10    14    1
    24    14    15   ar
    25    15    16   ar
    26    16    17   ar
    27    17    18   ar
    28    18    19   ar
    29    19    20   ar
    30    20    21   ar
    31    21    22   ar
    32    22    23    1
    33    10    11   ar
    34    11    12   ar
    35    12    13    1
    36    31    26   ar
    37    13     3    1
    38    12     7   ar
    39    22    14   ar
    40    21    17   ar
    41    36    37    1
    42    20    24    1
    43    23    25    1
@<TRIPOS>MOLECULE
*****
 39 43 0 0 0
SMALL
GASTEIGER

@<TRIPOS>ATOM
      1 C          52.1280   12.4617  -25.0104 C.2     1  UNL1        0.2506
      2 O          53.2789   12.3200  -24.5142 O.2     1  UNL1       -0.2699
      3 N          51.3869   13.6727  -24.7594 N.am    1  UNL1       -0.2680
      4 C          50.5922   14.2948  -25.8269 C.3     1  UNL1        0.1412
      5 C          49.3485   14.9986  -25.2762 C.3     1  UNL1        0.2268
      6 O          48.6131   14.1479  -24.3996 O.3     1  UNL1       -0.4739
      7 C          48.9835   13.7954  -23.0890 C.ar    1  UNL1        0.1362
      8 C          47.9703   13.3077  -22.2555 C.ar    1  UNL1        0.0366
      9 C          48.2376   12.9517  -20.9338 C.ar    1  UNL1        0.0031
     10 C          49.5309   13.0816  -20.4159 C.ar    1  UNL1        0.0004
     11 C          50.5628   13.5364  -21.2485 C.ar    1  UNL1        0.0004
     12 C          50.3111   13.8857  -22.5874 C.ar    1  UNL1        0.0317
     13 C          51.4711   14.3206  -23.4467 C.3     1  UNL1        0.1236
     14 C          49.8110   12.6954  -19.0160 C.ar    1  UNL1        0.0069
     15 C          51.1351   12.8296  -18.5205 C.ar    1  UNL1        0.0021
     16 C          51.4484   12.4828  -17.1948 C.ar    1  UNL1        0.0207
     17 C          50.4220   12.0005  -16.3914 C.ar    1  UNL1        0.0990
     18 N          50.5028   11.6066  -15.1079 N.ar    1  UNL1       -0.2241
     19 C          49.2298   11.2239  -14.8284 C.ar    1  UNL1        0.1750
     20 N          48.3819   11.3635  -15.8749 N.ar    1  UNL1       -0.3346
     21 C          49.1497   11.8572  -16.8561 C.ar    1  UNL1        0.0811
     22 C          48.7903   12.1884  -18.1653 C.ar    1  UNL1        0.0386
     23 S          47.1084   11.9087  -18.7376 S.3     1  UNL1       -0.1400
     24 H          47.3632   11.1361  -15.9006 H       1  UNL1        0.1675
     25 H          46.6905   13.1821  -18.3085 H       1  UNL1        0.1072
     26 C          50.4543   10.5841  -25.3079 C.ar    1  UNL1        0.0503
     27 C          49.9014    9.5845  -26.1332 C.ar    1  UNL1        0.0328
     28 C          50.4155    9.3435  -27.4125 C.ar    1  UNL1        0.1069
     29 C          51.4839   10.1095  -27.8852 C.ar    1  UNL1        0.0186
     30 C          52.0419   11.1042  -27.0837 C.ar    1  UNL1        0.0071
     31 C          51.5408   11.3522  -25.7953 C.ar    1  UNL1        0.0667
     32 S          49.7001    8.0957  -28.4280 S.O2    1  UNL1        0.0105
     33 C          50.8031    7.7270  -29.7729 C.3     1  UNL1        0.1816
     34 O          49.4611    6.8505  -27.6206 O.2     1  UNL1       -0.1686
     35 O          48.3842    8.5775  -28.9719 O.2     1  UNL1       -0.1686
     36 N          49.9662   10.7792  -23.9641 N.pl3   1  UNL1       -0.3325
     37 H          49.5124   11.6868  -23.7155 H       1  UNL1        0.1468
     38 C          48.8074    9.5892  -22.1608 C.3     1  UNL1        0.0229
     39 C          50.1320    9.8101  -22.8814 C.3     1  UNL1        0.0871
@<TRIPOS>BOND
     1    38    39    1
     2    39    36    1
     3    36    26    1
     4    26    27   ar
     5    27    28   ar
     6    28    32    1
     7    32    33    1
     8    32    34    2
     9    32    35    2
    10    28    29   ar
    11    29    30   ar
    12    30    31   ar
    13    31     1    1
    14     1     2    2
    15     1     3   am
    16     3     4    1
    17     4     5    1
    18     5     6    1
    19     6     7    1
    20     7     8   ar
    21     8     9   ar
    22     9    10   ar
    23    10    14    1
    24    14    15   ar
    25    15    16   ar
    26    16    17   ar
    27    17    18   ar
    28    18    19   ar
    29    19    20   ar
    30    20    21   ar
    31    21    22   ar
    32    22    23    1
    33    10    11   ar
    34    11    12   ar
    35    12    13    1
    36    31    26   ar
    37    13     3    1
    38    12     7   ar
    39    22    14   ar
    40    21    17   ar
    41    36    37    1
    42    20    24    1
    43    23    25    1
@<TRIPOS>MOLECULE
*****
 39 43 0 0 0
SMALL
GASTEIGER

@<TRIPOS>ATOM
      1 C          49.3638   12.5196  -20.3778 C.2     1  UNL1        0.2506
      2 O          50.1171   13.4055  -19.8894 O.2     1  UNL1       -0.2699
      3 N          49.8332   11.7087  -21.4737 N.am    1  UNL1       -0.2680
      4 C          49.5200   10.2743  -21.5269 C.3     1  UNL1        0.1412
      5 C          49.3704    9.7761  -22.9672 C.3     1  UNL1        0.2268
      6 O          48.4912   10.6097  -23.7189 O.3     1  UNL1       -0.4739
      7 C          48.7881   11.8965  -24.2039 C.ar    1  UNL1        0.1362
      8 C          47.9854   12.3807  -25.2433 C.ar    1  UNL1        0.0366
      9 C          48.2164   13.6372  -25.8027 C.ar    1  UNL1        0.0031
     10 C          49.2642   14.4368  -25.3330 C.ar    1  UNL1        0.0004
     11 C          50.0552   13.9795  -24.2698 C.ar    1  UNL1        0.0004
     12 C          49.8250   12.7207  -23.6864 C.ar    1  UNL1        0.0317
     13 C          50.6769   12.3057  -22.5137 C.3     1  UNL1        0.1236
     14 C          49.5003   15.7718  -25.9241 C.ar    1  UNL1        0.0069
     15 C          50.8376   16.2197  -26.0915 C.ar    1  UNL1        0.0021
     16 C          51.1122   17.4775  -26.6557 C.ar    1  UNL1        0.0207
     17 C          50.0333   18.2662  -27.0369 C.ar    1  UNL1        0.0990
     18 N          50.0693   19.4943  -27.5842 N.ar    1  UNL1       -0.2241
     19 C          48.7538   19.7951  -27.7392 C.ar    1  UNL1        0.1750
     20 N          47.9220   18.8151  -27.3134 N.ar    1  UNL1       -0.3346
     21 C          48.7455   17.8537  -26.8731 C.ar    1  UNL1        0.0811
     22 C          48.4230   16.6127  -26.3175 C.ar    1  UNL1        0.0386
     23 S          46.7017   16.1575  -26.0634 S.3     1  UNL1       -0.1400
     24 H          46.8781   18.8176  -27.3296 H       1  UNL1        0.1675
     25 H          46.6006   15.5991  -27.3512 H       1  UNL1        0.1072
     26 C          47.6983   12.5196  -18.4697 C.ar    1  UNL1        0.0503
     27 C          46.3585   12.4298  -18.0417 C.ar    1  UNL1        0.0328
     28 C          45.3265   12.1921  -18.9569 C.ar    1  UNL1        0.1069
     29 C          45.6235   12.0524  -20.3148 C.ar    1  UNL1        0.0186
     30 C          46.9426   12.1407  -20.7565 C.ar    1  UNL1        0.0071
     31 C          47.9890   12.3717  -19.8486 C.ar    1  UNL1        0.0667
     32 S          43.6596   12.0947  -18.3981 S.O2    1  UNL1        0.0105
     33 C          42.5796   11.9047  -19.7977 C.3     1  UNL1        0.1816
     34 O          43.4948   10.9196  -17.4754 O.2     1  UNL1       -0.1686
     35 O          43.3014   13.3486  -17.6505 O.2     1  UNL1       -0.1686
     36 N          48.7641   12.6936  -17.5127 N.pl3   1  UNL1       -0.3325
     37 H          49.1711   13.6457  -17.3736 H       1  UNL1        0.1468
     38 C          49.0780   11.7386  -15.2766 C.3     1  UNL1        0.0229
     39 C          49.3818   11.5999  -16.7636 C.3     1  UNL1        0.0871
@<TRIPOS>BOND
     1    38    39    1
     2    39    36    1
     3    36    26    1
     4    26    27   ar
     5    27    28   ar
     6    28    32    1
     7    32    33    1
     8    32    34    2
     9    32    35    2
    10    28    29   ar
    11    29    30   ar
    12    30    31   ar
    13    31     1    1
    14     1     2    2
    15     1     3   am
    16     3     4    1
    17     4     5    1
    18     5     6    1
    19     6     7    1
    20     7     8   ar
    21     8     9   ar
    22     9    10   ar
    23    10    14    1
    24    14    15   ar
    25    15    16   ar
    26    16    17   ar
    27    17    18   ar
    28    18    19   ar
    29    19    20   ar
    30    20    21   ar
    31    21    22   ar
    32    22    23    1
    33    10    11   ar
    34    11    12   ar
    35    12    13    1
    36    31    26   ar
    37    13     3    1
    38    12     7   ar
    39    22    14   ar
    40    21    17   ar
    41    36    37    1
    42    20    24    1
    43    23    25    1
@<TRIPOS>MOLECULE
*****
 39 43 0 0 0
SMALL
GASTEIGER

@<TRIPOS>ATOM
      1 C          51.1399   13.1438  -24.4737 C.2     1  UNL1        0.2506
      2 O          52.3830   13.0227  -24.2986 O.2     1  UNL1       -0.2699
      3 N          50.2709   12.0214  -24.2205 N.am    1  UNL1       -0.2680
      4 C          48.9665   12.2198  -23.5744 C.3     1  UNL1        0.1412
      5 C          47.9260   11.2103  -24.0678 C.3     1  UNL1        0.2268
      6 O          47.8871   11.1552  -25.4921 O.3     1  UNL1       -0.4739
      7 C          48.8515   10.5536  -26.3210 C.ar    1  UNL1        0.1362
      8 C          48.4547   10.2372  -27.6254 C.ar    1  UNL1        0.0366
      9 C          49.3352    9.6202  -28.5137 C.ar    1  UNL1        0.0031
     10 C          50.6366    9.3017  -28.1101 C.ar    1  UNL1        0.0004
     11 C          51.0589    9.6430  -26.8178 C.ar    1  UNL1        0.0004
     12 C          50.1866   10.2783  -25.9160 C.ar    1  UNL1        0.0317
     13 C          50.7142   10.6651  -24.5576 C.3     1  UNL1        0.1236
     14 C          51.5691    8.6544  -29.0582 C.ar    1  UNL1        0.0069
     15 C          52.9656    8.8437  -28.8820 C.ar    1  UNL1        0.0021
     16 C          53.8910    8.2427  -29.7527 C.ar    1  UNL1        0.0207
     17 C          53.3929    7.4648  -30.7911 C.ar    1  UNL1        0.0990
     18 N          54.0946    6.8117  -31.7346 N.ar    1  UNL1       -0.2241
     19 C          53.1233    6.2349  -32.4888 C.ar    1  UNL1        0.1750
     20 N          51.8698    6.5050  -32.0535 N.ar    1  UNL1       -0.3346
     21 C          52.0560    7.2827  -30.9780 C.ar    1  UNL1        0.0811
     22 C          51.0986    7.8593  -30.1392 C.ar    1  UNL1        0.0386
     23 S          49.3471    7.6378  -30.4828 S.3     1  UNL1       -0.1400
     24 H          50.9697    6.1763  -32.4683 H       1  UNL1        0.1675
     25 H          49.2900    6.4548  -29.7228 H       1  UNL1        0.1072
     26 C          50.3835   15.5385  -24.1450 C.ar    1  UNL1        0.0503
     27 C          49.9356   16.7479  -24.7134 C.ar    1  UNL1        0.0328
     28 C          49.7067   16.8531  -26.0902 C.ar    1  UNL1        0.1069
     29 C          49.9346   15.7499  -26.9165 C.ar    1  UNL1        0.0186
     30 C          50.3800   14.5464  -26.3721 C.ar    1  UNL1        0.0071
     31 C          50.6071   14.4244  -24.9915 C.ar    1  UNL1        0.0667
     32 S          49.1572   18.3783  -26.7772 S.O2    1  UNL1        0.0105
     33 C          48.3846   19.3523  -25.5060 C.3     1  UNL1        0.1816
     34 O          50.3241   19.1348  -27.3479 O.2     1  UNL1       -0.1686
     35 O          48.1702   18.1117  -27.8790 O.2     1  UNL1       -0.1686
     36 N          50.5491   15.4161  -22.7168 N.pl3   1  UNL1       -0.3325
     37 H          51.5139   15.3492  -22.3215 H       1  UNL1        0.1468
     38 C          49.8315   14.3907  -20.6087 C.3     1  UNL1        0.0229
     39 C          49.4417   15.2989  -21.7688 C.3     1  UNL1        0.0871
@<TRIPOS>BOND
     1    38    39    1
     2    39    36    1
     3    36    26    1
     4    26    27   ar
     5    27    28   ar
     6    28    32    1
     7    32    33    1
     8    32    34    2
     9    32    35    2
    10    28    29   ar
    11    29    30   ar
    12    30    31   ar
    13    31     1    1
    14     1     2    2
    15     1     3   am
    16     3     4    1
    17     4     5    1
    18     5     6    1
    19     6     7    1
    20     7     8   ar
    21     8     9   ar
    22     9    10   ar
    23    10    14    1
    24    14    15   ar
    25    15    16   ar
    26    16    17   ar
    27    17    18   ar
    28    18    19   ar
    29    19    20   ar
    30    20    21   ar
    31    21    22   ar
    32    22    23    1
    33    10    11   ar
    34    11    12   ar
    35    12    13    1
    36    31    26   ar
    37    13     3    1
    38    12     7   ar
    39    22    14   ar
    40    21    17   ar
    41    36    37    1
    42    20    24    1
    43    23    25    1
