@<TRIPOS>MOLECULE
*****
 42 46 0 0 0
SMALL
GASTEIGER

@<TRIPOS>ATOM
      1 C         -31.5678   50.2235   -6.9969 C.3     1  UNL1        0.1332
      2 N         -30.2154   50.5869   -6.5746 N.ar    1  UNL1       -0.2977
      3 C         -29.6829   50.5389   -5.3217 C.ar    1  UNL1        0.2018
      4 N         -28.3719   50.8972   -5.2709 N.ar    1  UNL1       -0.2135
      5 C         -28.0836   51.1735   -6.5543 C.ar    1  UNL1        0.0999
      6 C         -26.8465   51.5702   -7.0786 C.ar    1  UNL1        0.0282
      7 C         -26.7359   51.7561   -8.4802 C.ar    1  UNL1        0.0888
      8 C         -27.8938   51.5547   -9.2713 C.ar    1  UNL1        0.1401
      9 C         -29.0978   51.1709   -8.7270 C.ar    1  UNL1        0.0327
     10 C         -29.1841   50.9795   -7.3456 C.ar    1  UNL1        0.0789
     11 C         -30.1286   51.0577   -9.7948 C.3     1  UNL1        0.0709
     12 C         -29.3204   51.4045  -11.0883 C.3     1  UNL1        0.1375
     13 C         -29.2471   50.2010  -12.0379 C.3     1  UNL1        0.0439
     14 C         -29.9118   52.6216  -11.8118 C.3     1  UNL1        0.0439
     15 O         -28.0026   51.7219  -10.6362 O.3     1  UNL1       -0.4824
     16 C         -25.4455   52.1674   -9.0721 C.2     1  UNL1        0.2525
     17 O         -25.4193   53.1695   -9.8371 O.2     1  UNL1       -0.2697
     18 N         -24.2355   51.4425   -8.7851 N.am    1  UNL1       -0.2803
     19 H         -24.2873   50.5903   -8.1848 H       1  UNL1        0.1552
     20 C         -22.9524   51.7722   -9.3423 C.ar    1  UNL1        0.0505
     21 C         -22.7372   51.5914  -10.7100 C.ar    1  UNL1        0.0144
     22 C         -21.4993   51.8890  -11.2753 C.ar    1  UNL1       -0.0006
     23 C         -20.4397   52.3632  -10.4845 C.ar    1  UNL1        0.0109
     24 C         -20.6265   52.5039   -9.0804 C.ar    1  UNL1        0.0710
     25 C         -21.8923   52.2070   -8.5313 C.ar    1  UNL1        0.0183
     26 C         -19.5142   52.9921   -8.1690 C.3     1  UNL1        0.4184
     27 F         -18.4101   52.1574   -8.2083 F       1  UNL1       -0.1659
     28 F         -19.1011   54.2535   -8.5563 F       1  UNL1       -0.1659
     29 F         -19.9711   53.0370   -6.8644 F       1  UNL1       -0.1659
     30 C         -19.1270   52.6484  -11.1802 C.3     1  UNL1        0.1635
     31 O         -18.8425   51.6382  -12.1089 O.3     1  UNL1       -0.3772
     32 H         -18.5312   50.8524  -11.5891 H       1  UNL1        0.2109
     33 N         -30.4006   50.0761   -4.1671 N.pl3   1  UNL1       -0.2814
     34 H         -31.3361   50.4884   -3.9591 H       1  UNL1        0.1551
     35 C         -29.9743   48.9382   -3.3998 C.ar    1  UNL1        0.0889
     36 C         -29.1968   47.9245   -3.9944 C.ar    1  UNL1        0.1543
     37 F         -28.8164   48.0157   -5.2937 F       1  UNL1       -0.2028
     38 C         -28.7716   46.8283   -3.2381 C.ar    1  UNL1        0.0310
     39 C         -29.1060   46.7361   -1.8862 C.ar    1  UNL1        0.0033
     40 C         -29.8616   47.7432   -1.2827 C.ar    1  UNL1        0.0128
     41 C         -30.2925   48.8461   -2.0295 C.ar    1  UNL1        0.0733
     42 CL        -31.2628   50.0780   -1.2321 Cl      1  UNL1       -0.0809
@<TRIPOS>BOND
     1     1     2    1
     2     2     3   ar
     3     3    33    1
     4    33    35    1
     5    35    36   ar
     6    36    37    1
     7    36    38   ar
     8    38    39   ar
     9    39    40   ar
    10    40    41   ar
    11    41    42    1
    12     3     4   ar
    13     4     5   ar
    14     5     6   ar
    15     6     7   ar
    16     7    16    1
    17    16    17    2
    18    16    18   am
    19    18    20    1
    20    20    21   ar
    21    21    22   ar
    22    22    23   ar
    23    23    30    1
    24    30    31    1
    25    23    24   ar
    26    24    26    1
    27    26    27    1
    28    26    28    1
    29    26    29    1
    30    24    25   ar
    31     7     8   ar
    32     8     9   ar
    33     9    10   ar
    34     9    11    1
    35    11    12    1
    36    12    13    1
    37    12    14    1
    38    12    15    1
    39    10     2   ar
    40    41    35   ar
    41    10     5   ar
    42    25    20   ar
    43    15     8    1
    44    33    34    1
    45    18    19    1
    46    31    32    1
@<TRIPOS>MOLECULE
*****
 42 46 0 0 0
SMALL
GASTEIGER

@<TRIPOS>ATOM
      1 C         -25.6440   51.4087  -12.3812 C.3     1  UNL1        0.1332
      2 N         -25.1198   51.2544  -11.0244 N.ar    1  UNL1       -0.2977
      3 C         -23.8830   51.5822  -10.5571 C.ar    1  UNL1        0.2018
      4 N         -23.7256   51.3602   -9.2245 N.ar    1  UNL1       -0.2135
      5 C         -24.9244   50.8781   -8.8543 C.ar    1  UNL1        0.0999
      6 C         -25.3265   50.5053   -7.5652 C.ar    1  UNL1        0.0282
      7 C         -26.6638   50.0735   -7.3739 C.ar    1  UNL1        0.0888
      8 C         -27.5135   50.0185   -8.5062 C.ar    1  UNL1        0.1401
      9 C         -27.0883   50.3854   -9.7622 C.ar    1  UNL1        0.0327
     10 C         -25.7711   50.8211   -9.9289 C.ar    1  UNL1        0.0789
     11 C         -28.1890   50.2045  -10.7478 C.3     1  UNL1        0.0709
     12 C         -29.3686   49.6988   -9.8536 C.3     1  UNL1        0.1375
     13 C         -30.5257   50.7069   -9.8368 C.3     1  UNL1        0.0439
     14 C         -29.8668   48.3199  -10.3066 C.3     1  UNL1        0.0439
     15 O         -28.8249   49.5919   -8.5366 O.3     1  UNL1       -0.4824
     16 C         -27.1279   49.6786   -6.0273 C.2     1  UNL1        0.2525
     17 O         -26.4885   50.0863   -5.0198 O.2     1  UNL1       -0.2697
     18 N         -28.2888   48.8440   -5.8602 N.am    1  UNL1       -0.2803
     19 H         -28.7770   48.4817   -6.7086 H       1  UNL1        0.1552
     20 C         -28.7824   48.4037   -4.5843 C.ar    1  UNL1        0.0505
     21 C         -29.4922   49.2999   -3.7826 C.ar    1  UNL1        0.0144
     22 C         -29.9703   48.9054   -2.5351 C.ar    1  UNL1       -0.0006
     23 C         -29.7395   47.6071   -2.0511 C.ar    1  UNL1        0.0109
     24 C         -28.9732   46.6975   -2.8332 C.ar    1  UNL1        0.0710
     25 C         -28.5084   47.1155   -4.0986 C.ar    1  UNL1        0.0183
     26 C         -28.6720   45.2875   -2.3565 C.3     1  UNL1        0.4184
     27 F         -27.8980   45.2844   -1.2085 F       1  UNL1       -0.1659
     28 F         -29.8489   44.6201   -2.0714 F       1  UNL1       -0.1659
     29 F         -27.9813   44.6041   -3.3407 F       1  UNL1       -0.1659
     30 C         -30.2842   47.2694   -0.6808 C.3     1  UNL1        0.1635
     31 O         -29.3800   47.6714    0.3116 O.3     1  UNL1       -0.3772
     32 H         -28.6428   47.0072    0.3116 H       1  UNL1        0.2109
     33 N         -22.8588   52.1839  -11.3643 N.pl3   1  UNL1       -0.2814
     34 H         -23.0648   52.3878  -12.3665 H       1  UNL1        0.1551
     35 C         -21.6363   52.6919  -10.8054 C.ar    1  UNL1        0.0889
     36 C         -20.4967   51.8687  -10.7092 C.ar    1  UNL1        0.1543
     37 F         -20.5252   50.5905  -11.1641 F       1  UNL1       -0.2028
     38 C         -19.3057   52.3740  -10.1795 C.ar    1  UNL1        0.0310
     39 C         -19.2349   53.7007   -9.7518 C.ar    1  UNL1        0.0033
     40 C         -20.3530   54.5301   -9.8582 C.ar    1  UNL1        0.0128
     41 C         -21.5509   54.0357  -10.3876 C.ar    1  UNL1        0.0733
     42 CL        -22.9402   55.1109  -10.4794 Cl      1  UNL1       -0.0809
@<TRIPOS>BOND
     1     1     2    1
     2     2     3   ar
     3     3    33    1
     4    33    35    1
     5    35    36   ar
     6    36    37    1
     7    36    38   ar
     8    38    39   ar
     9    39    40   ar
    10    40    41   ar
    11    41    42    1
    12     3     4   ar
    13     4     5   ar
    14     5     6   ar
    15     6     7   ar
    16     7    16    1
    17    16    17    2
    18    16    18   am
    19    18    20    1
    20    20    21   ar
    21    21    22   ar
    22    22    23   ar
    23    23    30    1
    24    30    31    1
    25    23    24   ar
    26    24    26    1
    27    26    27    1
    28    26    28    1
    29    26    29    1
    30    24    25   ar
    31     7     8   ar
    32     8     9   ar
    33     9    10   ar
    34     9    11    1
    35    11    12    1
    36    12    13    1
    37    12    14    1
    38    12    15    1
    39    10     2   ar
    40    41    35   ar
    41    10     5   ar
    42    25    20   ar
    43    15     8    1
    44    33    34    1
    45    18    19    1
    46    31    32    1
@<TRIPOS>MOLECULE
*****
 42 46 0 0 0
SMALL
GASTEIGER

@<TRIPOS>ATOM
      1 C         -23.7103   53.0753  -11.2876 C.3     1  UNL1        0.1332
      2 N         -23.4624   52.2983  -10.0734 N.ar    1  UNL1       -0.2977
      3 C         -22.3328   52.2616   -9.3130 C.ar    1  UNL1        0.2018
      4 N         -22.4415   51.4728   -8.2104 N.ar    1  UNL1       -0.2135
      5 C         -23.6995   51.0069   -8.2944 C.ar    1  UNL1        0.0999
      6 C         -24.3518   50.1601   -7.3888 C.ar    1  UNL1        0.0282
      7 C         -25.7098   49.8307   -7.6310 C.ar    1  UNL1        0.0888
      8 C         -26.3249   50.3576   -8.7934 C.ar    1  UNL1        0.1401
      9 C         -25.6565   51.1824   -9.6686 C.ar    1  UNL1        0.0327
     10 C         -24.3229   51.5067   -9.4063 C.ar    1  UNL1        0.0789
     11 C         -26.5490   51.5595  -10.7986 C.3     1  UNL1        0.0709
     12 C         -27.8902   50.8450  -10.4279 C.3     1  UNL1        0.1375
     13 C         -29.0065   51.8629  -10.1575 C.3     1  UNL1        0.0439
     14 C         -28.3209   49.8558  -11.5191 C.3     1  UNL1        0.0439
     15 O         -27.6145   50.1256   -9.2246 O.3     1  UNL1       -0.4824
     16 C         -26.4345   48.9459   -6.6948 C.2     1  UNL1        0.2525
     17 O         -26.9961   47.9115   -7.1471 O.2     1  UNL1       -0.2697
     18 N         -26.5024   49.2523   -5.2900 N.am    1  UNL1       -0.2803
     19 H         -26.0682   50.1362   -4.9440 H       1  UNL1        0.1552
     20 C         -27.2071   48.4504   -4.3279 C.ar    1  UNL1        0.0505
     21 C         -28.4296   48.9039   -3.8281 C.ar    1  UNL1        0.0144
     22 C         -29.1281   48.1546   -2.8841 C.ar    1  UNL1       -0.0006
     23 C         -28.6155   46.9376   -2.4055 C.ar    1  UNL1        0.0109
     24 C         -27.3463   46.4865   -2.8658 C.ar    1  UNL1        0.0710
     25 C         -26.6617   47.2565   -3.8303 C.ar    1  UNL1        0.0183
     26 C         -26.7290   45.1903   -2.3712 C.3     1  UNL1        0.4184
     27 F         -27.0053   44.9635   -1.0336 F       1  UNL1       -0.1659
     28 F         -27.2290   44.1205   -3.0905 F       1  UNL1       -0.1659
     29 F         -25.3553   45.2450   -2.5216 F       1  UNL1       -0.1659
     30 C         -29.4352   46.1969   -1.3720 C.3     1  UNL1        0.1635
     31 O         -29.3276   46.8290   -0.1258 O.3     1  UNL1       -0.3772
     32 H         -28.4361   46.5906    0.2389 H       1  UNL1        0.2109
     33 N         -21.1588   53.0411   -9.5901 N.pl3   1  UNL1       -0.2814
     34 H         -21.2754   54.0134   -9.9501 H       1  UNL1        0.1551
     35 C         -19.8411   52.6107   -9.2116 C.ar    1  UNL1        0.0889
     36 C         -19.3746   52.8055   -7.8963 C.ar    1  UNL1        0.1543
     37 F         -20.1686   53.3804   -6.9579 F       1  UNL1       -0.2028
     38 C         -18.0978   52.3697   -7.5302 C.ar    1  UNL1        0.0310
     39 C         -17.2804   51.7293   -8.4629 C.ar    1  UNL1        0.0033
     40 C         -17.7390   51.5157   -9.7643 C.ar    1  UNL1        0.0128
     41 C         -19.0160   51.9470  -10.1424 C.ar    1  UNL1        0.0733
     42 CL        -19.5412   51.6778  -11.7996 Cl      1  UNL1       -0.0809
@<TRIPOS>BOND
     1     1     2    1
     2     2     3   ar
     3     3    33    1
     4    33    35    1
     5    35    36   ar
     6    36    37    1
     7    36    38   ar
     8    38    39   ar
     9    39    40   ar
    10    40    41   ar
    11    41    42    1
    12     3     4   ar
    13     4     5   ar
    14     5     6   ar
    15     6     7   ar
    16     7    16    1
    17    16    17    2
    18    16    18   am
    19    18    20    1
    20    20    21   ar
    21    21    22   ar
    22    22    23   ar
    23    23    30    1
    24    30    31    1
    25    23    24   ar
    26    24    26    1
    27    26    27    1
    28    26    28    1
    29    26    29    1
    30    24    25   ar
    31     7     8   ar
    32     8     9   ar
    33     9    10   ar
    34     9    11    1
    35    11    12    1
    36    12    13    1
    37    12    14    1
    38    12    15    1
    39    10     2   ar
    40    41    35   ar
    41    10     5   ar
    42    25    20   ar
    43    15     8    1
    44    33    34    1
    45    18    19    1
    46    31    32    1
@<TRIPOS>MOLECULE
*****
 42 46 0 0 0
SMALL
GASTEIGER

@<TRIPOS>ATOM
      1 C         -23.8494   52.0534  -11.6742 C.3     1  UNL1        0.1332
      2 N         -23.7059   51.6475  -10.2763 N.ar    1  UNL1       -0.2977
      3 C         -22.5864   51.6792   -9.5008 C.ar    1  UNL1        0.2018
      4 N         -22.7985   51.2796   -8.2182 N.ar    1  UNL1       -0.2135
      5 C         -24.1118   50.9939   -8.2034 C.ar    1  UNL1        0.0999
      6 C         -24.8720   50.5581   -7.1103 C.ar    1  UNL1        0.0282
      7 C         -26.2658   50.3682   -7.2905 C.ar    1  UNL1        0.0888
      8 C         -26.8086   50.6058   -8.5773 C.ar    1  UNL1        0.1401
      9 C         -26.0354   51.0277   -9.6344 C.ar    1  UNL1        0.0327
     10 C         -24.6663   51.2222   -9.4343 C.ar    1  UNL1        0.0789
     11 C         -26.8743   51.1731  -10.8554 C.3     1  UNL1        0.0709
     12 C         -28.3018   50.8004  -10.3357 C.3     1  UNL1        0.1375
     13 C         -29.2547   52.0006  -10.4183 C.3     1  UNL1        0.0439
     14 C         -28.8830   49.6023  -11.0982 C.3     1  UNL1        0.0439
     15 O         -28.1224   50.4417   -8.9643 O.3     1  UNL1       -0.4824
     16 C         -27.1029   49.9161   -6.1593 C.2     1  UNL1        0.2525
     17 O         -28.0127   50.6782   -5.7333 O.2     1  UNL1       -0.2697
     18 N         -26.8900   48.6297   -5.5494 N.am    1  UNL1       -0.2803
     19 H         -26.1033   48.0336   -5.8887 H       1  UNL1        0.1552
     20 C         -27.6500   48.1360   -4.4340 C.ar    1  UNL1        0.0505
     21 C         -27.3926   48.6408   -3.1578 C.ar    1  UNL1        0.0144
     22 C         -28.1036   48.1708   -2.0560 C.ar    1  UNL1       -0.0006
     23 C         -29.0823   47.1736   -2.2002 C.ar    1  UNL1        0.0109
     24 C         -29.3206   46.6114   -3.4860 C.ar    1  UNL1        0.0710
     25 C         -28.5961   47.1108   -4.5896 C.ar    1  UNL1        0.0183
     26 C         -30.3502   45.5167   -3.7036 C.3     1  UNL1        0.4184
     27 F         -30.4808   45.1887   -5.0425 F       1  UNL1       -0.1659
     28 F         -29.9772   44.3711   -3.0251 F       1  UNL1       -0.1659
     29 F         -31.5832   45.9433   -3.2449 F       1  UNL1       -0.1659
     30 C         -29.7960   46.7142   -0.9479 C.3     1  UNL1        0.1635
     31 O         -28.9927   45.8126   -0.2367 O.3     1  UNL1       -0.3772
     32 H         -29.0373   44.9476   -0.7209 H       1  UNL1        0.2109
     33 N         -21.3139   52.1649   -9.9563 N.pl3   1  UNL1       -0.2814
     34 H         -20.8830   51.7284  -10.8003 H       1  UNL1        0.1551
     35 C         -20.7036   53.3491   -9.4177 C.ar    1  UNL1        0.0889
     36 C         -21.0418   54.6210   -9.9212 C.ar    1  UNL1        0.1543
     37 F         -21.9664   54.7528  -10.9056 F       1  UNL1       -0.2028
     38 C         -20.4566   55.7703   -9.3817 C.ar    1  UNL1        0.0310
     39 C         -19.5408   55.6658   -8.3335 C.ar    1  UNL1        0.0033
     40 C         -19.2113   54.4117   -7.8156 C.ar    1  UNL1        0.0128
     41 C         -19.7913   53.2538   -8.3471 C.ar    1  UNL1        0.0733
     42 CL        -19.3271   51.6943   -7.6785 Cl      1  UNL1       -0.0809
@<TRIPOS>BOND
     1     1     2    1
     2     2     3   ar
     3     3    33    1
     4    33    35    1
     5    35    36   ar
     6    36    37    1
     7    36    38   ar
     8    38    39   ar
     9    39    40   ar
    10    40    41   ar
    11    41    42    1
    12     3     4   ar
    13     4     5   ar
    14     5     6   ar
    15     6     7   ar
    16     7    16    1
    17    16    17    2
    18    16    18   am
    19    18    20    1
    20    20    21   ar
    21    21    22   ar
    22    22    23   ar
    23    23    30    1
    24    30    31    1
    25    23    24   ar
    26    24    26    1
    27    26    27    1
    28    26    28    1
    29    26    29    1
    30    24    25   ar
    31     7     8   ar
    32     8     9   ar
    33     9    10   ar
    34     9    11    1
    35    11    12    1
    36    12    13    1
    37    12    14    1
    38    12    15    1
    39    10     2   ar
    40    41    35   ar
    41    10     5   ar
    42    25    20   ar
    43    15     8    1
    44    33    34    1
    45    18    19    1
    46    31    32    1
@<TRIPOS>MOLECULE
*****
 42 46 0 0 0
SMALL
GASTEIGER

@<TRIPOS>ATOM
      1 C         -23.6315   53.1481  -11.3385 C.3     1  UNL1        0.1332
      2 N         -23.3766   52.3619  -10.1316 N.ar    1  UNL1       -0.2977
      3 C         -22.2450   52.3245   -9.3743 C.ar    1  UNL1        0.2018
      4 N         -22.3470   51.5256   -8.2783 N.ar    1  UNL1       -0.2135
      5 C         -23.6027   51.0539   -8.3633 C.ar    1  UNL1        0.0999
      6 C         -24.2484   50.1960   -7.4635 C.ar    1  UNL1        0.0282
      7 C         -25.6053   49.8617   -7.7053 C.ar    1  UNL1        0.0888
      8 C         -26.2259   50.3954   -8.8617 C.ar    1  UNL1        0.1401
      9 C         -25.5639   51.2312   -9.7313 C.ar    1  UNL1        0.0327
     10 C         -24.2314   51.5601   -9.4693 C.ar    1  UNL1        0.0789
     11 C         -26.4612   51.6135  -10.8558 C.3     1  UNL1        0.0709
     12 C         -27.7977   50.8888  -10.4881 C.3     1  UNL1        0.1375
     13 C         -28.9186   51.8986  -10.2062 C.3     1  UNL1        0.0439
     14 C         -28.2260   49.9069  -11.5867 C.3     1  UNL1        0.0439
     15 O         -27.5154   50.1605   -9.2917 O.3     1  UNL1       -0.4824
     16 C         -26.3231   48.9651   -6.7750 C.2     1  UNL1        0.2525
     17 O         -26.7761   47.8723   -7.2116 O.2     1  UNL1       -0.2697
     18 N         -26.5059   49.3255   -5.3935 N.am    1  UNL1       -0.2803
     19 H         -26.1617   50.2541   -5.0636 H       1  UNL1        0.1552
     20 C         -27.2117   48.5141   -4.4401 C.ar    1  UNL1        0.0505
     21 C         -28.3790   49.0098   -3.8559 C.ar    1  UNL1        0.0144
     22 C         -29.0763   48.2515   -2.9182 C.ar    1  UNL1       -0.0006
     23 C         -28.6166   46.9821   -2.5305 C.ar    1  UNL1        0.0109
     24 C         -27.4006   46.4839   -3.0776 C.ar    1  UNL1        0.0710
     25 C         -26.7170   47.2647   -4.0341 C.ar    1  UNL1        0.0183
     26 C         -26.8407   45.1284   -2.6836 C.3     1  UNL1        0.4184
     27 F         -26.7623   44.9813   -1.3091 F       1  UNL1       -0.1659
     28 F         -27.6523   44.1193   -3.1684 F       1  UNL1       -0.1659
     29 F         -25.5670   44.9852   -3.2031 F       1  UNL1       -0.1659
     30 C         -29.4298   46.2344   -1.4969 C.3     1  UNL1        0.1635
     31 O         -29.2787   46.8318   -0.2382 O.3     1  UNL1       -0.3772
     32 H         -28.3850   46.5634    0.0994 H       1  UNL1        0.2109
     33 N         -21.0758   53.1124   -9.6475 N.pl3   1  UNL1       -0.2814
     34 H         -21.1939   54.1238   -9.8747 H       1  UNL1        0.1551
     35 C         -19.7445   52.6158   -9.4324 C.ar    1  UNL1        0.0889
     36 C         -19.0223   52.0234  -10.4874 C.ar    1  UNL1        0.1543
     37 F         -19.5602   51.9328  -11.7299 F       1  UNL1       -0.2028
     38 C         -17.7215   51.5572  -10.2755 C.ar    1  UNL1        0.0310
     39 C         -17.1258   51.6849   -9.0197 C.ar    1  UNL1        0.0033
     40 C         -17.8260   52.2857   -7.9717 C.ar    1  UNL1        0.0128
     41 C         -19.1289   52.7571   -8.1720 C.ar    1  UNL1        0.0733
     42 CL        -19.9808   53.4847   -6.8157 Cl      1  UNL1       -0.0809
@<TRIPOS>BOND
     1     1     2    1
     2     2     3   ar
     3     3    33    1
     4    33    35    1
     5    35    36   ar
     6    36    37    1
     7    36    38   ar
     8    38    39   ar
     9    39    40   ar
    10    40    41   ar
    11    41    42    1
    12     3     4   ar
    13     4     5   ar
    14     5     6   ar
    15     6     7   ar
    16     7    16    1
    17    16    17    2
    18    16    18   am
    19    18    20    1
    20    20    21   ar
    21    21    22   ar
    22    22    23   ar
    23    23    30    1
    24    30    31    1
    25    23    24   ar
    26    24    26    1
    27    26    27    1
    28    26    28    1
    29    26    29    1
    30    24    25   ar
    31     7     8   ar
    32     8     9   ar
    33     9    10   ar
    34     9    11    1
    35    11    12    1
    36    12    13    1
    37    12    14    1
    38    12    15    1
    39    10     2   ar
    40    41    35   ar
    41    10     5   ar
    42    25    20   ar
    43    15     8    1
    44    33    34    1
    45    18    19    1
    46    31    32    1
@<TRIPOS>MOLECULE
*****
 42 46 0 0 0
SMALL
GASTEIGER

@<TRIPOS>ATOM
      1 C         -23.5143   52.8241  -11.5562 C.3     1  UNL1        0.1332
      2 N         -23.3020   52.2091  -10.2462 N.ar    1  UNL1       -0.2977
      3 C         -22.1824   52.2437   -9.4711 C.ar    1  UNL1        0.2018
      4 N         -22.3257   51.6116   -8.2754 N.ar    1  UNL1       -0.2135
      5 C         -23.5953   51.1723   -8.3154 C.ar    1  UNL1        0.0999
      6 C         -24.2813   50.4710   -7.3153 C.ar    1  UNL1        0.0282
      7 C         -25.6453   50.1486   -7.5317 C.ar    1  UNL1        0.0888
      8 C         -26.2323   50.5325   -8.7627 C.ar    1  UNL1        0.1401
      9 C         -25.5312   51.2156   -9.7295 C.ar    1  UNL1        0.0327
     10 C         -24.1919   51.5363   -9.4928 C.ar    1  UNL1        0.0789
     11 C         -26.4001   51.4628  -10.9125 C.3     1  UNL1        0.0709
     12 C         -27.7650   50.8398  -10.4702 C.3     1  UNL1        0.1375
     13 C         -28.8550   51.9139  -10.3536 C.3     1  UNL1        0.0439
     14 C         -28.2114   49.7262  -11.4268 C.3     1  UNL1        0.0439
     15 O         -27.5232   50.2796   -9.1782 O.3     1  UNL1       -0.4824
     16 C         -26.4052   49.4157   -6.4972 C.2     1  UNL1        0.2525
     17 O         -26.8038   48.2463   -6.7496 O.2     1  UNL1       -0.2697
     18 N         -26.6889   50.0189   -5.2215 N.am    1  UNL1       -0.2803
     19 H         -26.3880   51.0035   -5.0499 H       1  UNL1        0.1552
     20 C         -27.4402   49.3743   -4.1795 C.ar    1  UNL1        0.0505
     21 C         -26.7574   48.7019   -3.1640 C.ar    1  UNL1        0.0144
     22 C         -27.4594   48.0560   -2.1488 C.ar    1  UNL1       -0.0006
     23 C         -28.8639   48.0548   -2.1303 C.ar    1  UNL1        0.0109
     24 C         -29.5757   48.6912   -3.1860 C.ar    1  UNL1        0.0710
     25 C         -28.8435   49.3487   -4.1979 C.ar    1  UNL1        0.0183
     26 C         -31.0933   48.7070   -3.2337 C.3     1  UNL1        0.4184
     27 F         -31.5680   49.3099   -4.3863 F       1  UNL1       -0.1659
     28 F         -31.5837   47.4146   -3.2034 F       1  UNL1       -0.1659
     29 F         -31.5830   49.4114   -2.1489 F       1  UNL1       -0.1659
     30 C         -29.5432   47.3176   -0.9972 C.3     1  UNL1        0.1635
     31 O         -28.9185   46.0819   -0.7811 O.3     1  UNL1       -0.3772
     32 H         -29.2190   45.4791   -1.5098 H       1  UNL1        0.2109
     33 N         -20.9839   52.9479   -9.8318 N.pl3   1  UNL1       -0.2814
     34 H         -21.0687   53.8592  -10.3326 H       1  UNL1        0.1551
     35 C         -19.6852   52.5486   -9.3638 C.ar    1  UNL1        0.0889
     36 C         -19.3178   52.7449   -8.0177 C.ar    1  UNL1        0.1543
     37 F         -20.1907   53.2916   -7.1342 F       1  UNL1       -0.2028
     38 C         -18.0588   52.3392   -7.5651 C.ar    1  UNL1        0.0310
     39 C         -17.1613   51.7276   -8.4417 C.ar    1  UNL1        0.0033
     40 C         -17.5214   51.5127   -9.7735 C.ar    1  UNL1        0.0128
     41 C         -18.7795   51.9139  -10.2381 C.ar    1  UNL1        0.0733
     42 CL        -19.1794   51.6445  -11.9299 Cl      1  UNL1       -0.0809
@<TRIPOS>BOND
     1     1     2    1
     2     2     3   ar
     3     3    33    1
     4    33    35    1
     5    35    36   ar
     6    36    37    1
     7    36    38   ar
     8    38    39   ar
     9    39    40   ar
    10    40    41   ar
    11    41    42    1
    12     3     4   ar
    13     4     5   ar
    14     5     6   ar
    15     6     7   ar
    16     7    16    1
    17    16    17    2
    18    16    18   am
    19    18    20    1
    20    20    21   ar
    21    21    22   ar
    22    22    23   ar
    23    23    30    1
    24    30    31    1
    25    23    24   ar
    26    24    26    1
    27    26    27    1
    28    26    28    1
    29    26    29    1
    30    24    25   ar
    31     7     8   ar
    32     8     9   ar
    33     9    10   ar
    34     9    11    1
    35    11    12    1
    36    12    13    1
    37    12    14    1
    38    12    15    1
    39    10     2   ar
    40    41    35   ar
    41    10     5   ar
    42    25    20   ar
    43    15     8    1
    44    33    34    1
    45    18    19    1
    46    31    32    1
@<TRIPOS>MOLECULE
*****
 42 46 0 0 0
SMALL
GASTEIGER

@<TRIPOS>ATOM
      1 C         -23.4043   52.9233  -11.6115 C.3     1  UNL1        0.1332
      2 N         -23.1833   52.3004  -10.3067 N.ar    1  UNL1       -0.2977
      3 C         -22.0593   52.3323   -9.5377 C.ar    1  UNL1        0.2018
      4 N         -22.1945   51.6923   -8.3453 N.ar    1  UNL1       -0.2135
      5 C         -23.4634   51.2506   -8.3809 C.ar    1  UNL1        0.0999
      6 C         -24.1423   50.5416   -7.3814 C.ar    1  UNL1        0.0282
      7 C         -25.5069   50.2178   -7.5922 C.ar    1  UNL1        0.0888
      8 C         -26.1017   50.6084   -8.8172 C.ar    1  UNL1        0.1401
      9 C         -25.4074   51.2991   -9.7837 C.ar    1  UNL1        0.0327
     10 C         -24.0675   51.6210   -9.5525 C.ar    1  UNL1        0.0789
     11 C         -26.2836   51.5521  -10.9601 C.3     1  UNL1        0.0709
     12 C         -27.6447   50.9234  -10.5140 C.3     1  UNL1        0.1375
     13 C         -28.7361   51.9946  -10.3844 C.3     1  UNL1        0.0439
     14 C         -28.0943   49.8150  -11.4752 C.3     1  UNL1        0.0439
     15 O         -27.3943   50.3555   -9.2270 O.3     1  UNL1       -0.4824
     16 C         -26.2593   49.4768   -6.5581 C.2     1  UNL1        0.2525
     17 O         -26.6254   50.0877   -5.5174 O.2     1  UNL1       -0.2697
     18 N         -26.5732   48.0823   -6.7284 N.am    1  UNL1       -0.2803
     19 H         -26.2226   47.5854   -7.5767 H       1  UNL1        0.1552
     20 C         -27.2805   47.2954   -5.7558 C.ar    1  UNL1        0.0505
     21 C         -26.5663   46.4085   -4.9477 C.ar    1  UNL1        0.0144
     22 C         -27.2270   45.6226   -4.0062 C.ar    1  UNL1       -0.0006
     23 C         -28.6219   45.6941   -3.8574 C.ar    1  UNL1        0.0109
     24 C         -29.3707   46.5548   -4.7088 C.ar    1  UNL1        0.0710
     25 C         -28.6790   47.3497   -5.6477 C.ar    1  UNL1        0.0183
     26 C         -30.8824   46.6614   -4.6112 C.3     1  UNL1        0.4184
     27 F         -31.4020   47.5250   -5.5605 F       1  UNL1       -0.1659
     28 F         -31.4606   45.4212   -4.8104 F       1  UNL1       -0.1659
     29 F         -31.2328   47.1379   -3.3610 F       1  UNL1       -0.1659
     30 C         -29.2568   44.7953   -2.8192 C.3     1  UNL1        0.1635
     31 O         -29.3482   45.4645   -1.5913 O.3     1  UNL1       -0.3772
     32 H         -28.4361   45.4689   -1.2004 H       1  UNL1        0.2109
     33 N         -20.8642   53.0413   -9.9007 N.pl3   1  UNL1       -0.2814
     34 H         -20.9514   54.0041  -10.2929 H       1  UNL1        0.1551
     35 C         -19.5517   52.5598   -9.5683 C.ar    1  UNL1        0.0889
     36 C         -18.7849   51.8571  -10.5190 C.ar    1  UNL1        0.1543
     37 F         -19.2610   51.6435  -11.7717 F       1  UNL1       -0.2028
     38 C         -17.5023   51.4057  -10.1945 C.ar    1  UNL1        0.0310
     39 C         -16.9688   51.6572   -8.9295 C.ar    1  UNL1        0.0033
     40 C         -17.7131   52.3672   -7.9854 C.ar    1  UNL1        0.0128
     41 C         -18.9984   52.8250   -8.2990 C.ar    1  UNL1        0.0733
     42 CL        -19.9080   53.6940   -7.0694 Cl      1  UNL1       -0.0809
@<TRIPOS>BOND
     1     1     2    1
     2     2     3   ar
     3     3    33    1
     4    33    35    1
     5    35    36   ar
     6    36    37    1
     7    36    38   ar
     8    38    39   ar
     9    39    40   ar
    10    40    41   ar
    11    41    42    1
    12     3     4   ar
    13     4     5   ar
    14     5     6   ar
    15     6     7   ar
    16     7    16    1
    17    16    17    2
    18    16    18   am
    19    18    20    1
    20    20    21   ar
    21    21    22   ar
    22    22    23   ar
    23    23    30    1
    24    30    31    1
    25    23    24   ar
    26    24    26    1
    27    26    27    1
    28    26    28    1
    29    26    29    1
    30    24    25   ar
    31     7     8   ar
    32     8     9   ar
    33     9    10   ar
    34     9    11    1
    35    11    12    1
    36    12    13    1
    37    12    14    1
    38    12    15    1
    39    10     2   ar
    40    41    35   ar
    41    10     5   ar
    42    25    20   ar
    43    15     8    1
    44    33    34    1
    45    18    19    1
    46    31    32    1
