@<TRIPOS>MOLECULE
*****
 35 36 0 0 0
SMALL
GASTEIGER

@<TRIPOS>ATOM
      1 C          49.3585   10.7948  -23.6443 C.3     1  UNL1        0.0187
      2 C          47.9077   10.8400  -23.1555 C.3     1  UNL1        0.0722
      3 N          47.3642   12.2077  -23.3416 N.3     1  UNL1       -0.2712
      4 C          47.0498   12.8256  -22.0426 C.3     1  UNL1        0.0896
      5 C          46.1721   12.2031  -24.2161 C.3     1  UNL1        0.0768
      6 C          46.1184   13.4984  -25.0464 C.3     1  UNL1        0.0434
      7 C          45.9509   14.1892  -27.5207 C.ar    1  UNL1       -0.0229
      8 C          45.9948   13.8209  -28.8760 C.ar    1  UNL1        0.0355
      9 C          46.2136   12.4857  -29.2601 C.ar    1  UNL1        0.1721
     10 C          46.3987   11.5049  -28.2789 C.ar    1  UNL1        0.1721
     11 C          46.3686   11.8662  -26.9216 C.ar    1  UNL1        0.0355
     12 C          46.1636   13.1993  -26.5286 C.ar    1  UNL1       -0.0215
     13 C          45.8982   16.5210  -28.4262 C.3     1  UNL1        0.0050
     14 C          45.7388   15.6490  -27.1843 C.3     1  UNL1        0.0261
     15 O          46.2550   12.0945  -30.6081 O.3     1  UNL1       -0.4684
     16 C          45.6361   12.8053  -31.6756 C.3     1  UNL1        0.2526
     17 O          46.6115   10.1796  -28.6916 O.3     1  UNL1       -0.4684
     18 C          47.8912    9.6102  -28.9498 C.3     1  UNL1        0.2526
     19 C          49.6431   11.6983  -24.8676 C.3     1  UNL1        0.0197
     20 C          50.8256   12.7249  -24.7728 C.3     1  UNL1        0.0981
     21 C          50.2468   14.1148  -25.1483 C.ar    1  UNL1       -0.0065
     22 C          50.2841   14.6322  -26.4603 C.ar    1  UNL1        0.0000
     23 C          49.6994   15.8601  -26.7729 C.ar    1  UNL1        0.0398
     24 C          49.0220   16.6005  -25.7927 C.ar    1  UNL1        0.1724
     25 C          48.9210   16.0903  -24.4944 C.ar    1  UNL1        0.1721
     26 C          49.5144   14.8517  -24.1845 C.ar    1  UNL1        0.0367
     27 O          48.4277   17.8416  -26.0720 O.3     1  UNL1       -0.4684
     28 C          49.0898   18.9273  -26.7127 C.3     1  UNL1        0.2526
     29 O          48.2170   16.8409  -23.5386 O.3     1  UNL1       -0.4684
     30 C          46.8028   16.8189  -23.3730 C.3     1  UNL1        0.2526
     31 C          52.1067   12.2798  -25.5970 C.3     1  UNL1        0.0169
     32 C          53.3745   11.9476  -24.7677 C.3     1  UNL1        0.0014
     33 C          51.8184   11.1556  -26.6165 C.3     1  UNL1        0.0014
     34 C          51.2539   12.7895  -23.3505 C.1     1  UNL1        0.0752
     35 N          51.5846   12.8385  -22.2420 N.1     1  UNL1       -0.1956
@<TRIPOS>BOND
     1    13    14    1
     2    14     7    1
     3     7     8   ar
     4     8     9   ar
     5     9    15    1
     6    15    16    1
     7     9    10   ar
     8    10    17    1
     9    17    18    1
    10    10    11   ar
    11    11    12   ar
    12    12     6    1
    13     6     5    1
    14     5     3    1
    15     3     4    1
    16     3     2    1
    17     2     1    1
    18     1    19    1
    19    19    20    1
    20    20    34    1
    21    34    35    3
    22    20    21    1
    23    21    22   ar
    24    22    23   ar
    25    23    24   ar
    26    24    27    1
    27    27    28    1
    28    24    25   ar
    29    25    29    1
    30    29    30    1
    31    25    26   ar
    32    20    31    1
    33    31    32    1
    34    31    33    1
    35    12     7   ar
    36    26    21   ar
@<TRIPOS>MOLECULE
*****
 35 36 0 0 0
SMALL
GASTEIGER

@<TRIPOS>ATOM
      1 C          48.3049   15.1130  -26.8285 C.3     1  UNL1        0.0187
      2 C          48.0882   16.5776  -27.2202 C.3     1  UNL1        0.0722
      3 N          48.9537   17.4472  -26.3865 N.3     1  UNL1       -0.2712
      4 C          49.1445   18.7601  -27.0250 C.3     1  UNL1        0.0896
      5 C          50.2590   16.8093  -26.1116 C.3     1  UNL1        0.0768
      6 C          50.6115   16.9443  -24.6190 C.3     1  UNL1        0.0434
      7 C          49.0949   15.6373  -23.0006 C.ar    1  UNL1       -0.0229
      8 C          48.8194   14.4435  -22.3126 C.ar    1  UNL1        0.0355
      9 C          49.6634   13.3247  -22.4306 C.ar    1  UNL1        0.1721
     10 C          50.7942   13.3946  -23.2523 C.ar    1  UNL1        0.1721
     11 C          51.0708   14.5801  -23.9535 C.ar    1  UNL1        0.0355
     12 C          50.2265   15.6985  -23.8521 C.ar    1  UNL1       -0.0215
     13 C          46.7587   16.4297  -23.4181 C.3     1  UNL1        0.0050
     14 C          48.1268   16.7897  -22.8465 C.3     1  UNL1        0.0261
     15 O          49.4105   12.1242  -21.7473 O.3     1  UNL1       -0.4684
     16 C          49.7919   11.8650  -20.4000 C.3     1  UNL1        0.2526
     17 O          51.6208   12.2633  -23.3481 O.3     1  UNL1       -0.4684
     18 C          52.5701   12.0429  -24.3867 C.3     1  UNL1        0.2526
     19 C          47.1340   14.4907  -26.0313 C.3     1  UNL1        0.0197
     20 C          46.8719   12.9509  -26.1780 C.3     1  UNL1        0.0981
     21 C          46.4891   12.6982  -27.6604 C.ar    1  UNL1       -0.0065
     22 C          46.0116   13.7155  -28.5133 C.ar    1  UNL1        0.0000
     23 C          45.7347   13.4645  -29.8578 C.ar    1  UNL1        0.0398
     24 C          45.9606   12.1949  -30.4102 C.ar    1  UNL1        0.1724
     25 C          46.4837   11.1786  -29.6043 C.ar    1  UNL1        0.1721
     26 C          46.7595   11.4373  -28.2480 C.ar    1  UNL1        0.0367
     27 O          45.6874   11.9071  -31.7571 O.3     1  UNL1       -0.4684
     28 C          45.4503   12.8895  -32.7601 C.3     1  UNL1        0.2526
     29 O          46.7224    9.9239  -30.1886 O.3     1  UNL1       -0.4684
     30 C          47.8249    9.0800  -29.8725 C.3     1  UNL1        0.2526
     31 C          45.8442   12.3876  -25.1078 C.3     1  UNL1        0.0169
     32 C          46.4365   11.9920  -23.7301 C.3     1  UNL1        0.0014
     33 C          44.5997   13.2839  -24.9234 C.3     1  UNL1        0.0014
     34 C          48.1572   12.2483  -25.9232 C.1     1  UNL1        0.0752
     35 N          49.1594   11.7040  -25.7240 N.1     1  UNL1       -0.1956
@<TRIPOS>BOND
     1    13    14    1
     2    14     7    1
     3     7     8   ar
     4     8     9   ar
     5     9    15    1
     6    15    16    1
     7     9    10   ar
     8    10    17    1
     9    17    18    1
    10    10    11   ar
    11    11    12   ar
    12    12     6    1
    13     6     5    1
    14     5     3    1
    15     3     4    1
    16     3     2    1
    17     2     1    1
    18     1    19    1
    19    19    20    1
    20    20    34    1
    21    34    35    3
    22    20    21    1
    23    21    22   ar
    24    22    23   ar
    25    23    24   ar
    26    24    27    1
    27    27    28    1
    28    24    25   ar
    29    25    29    1
    30    29    30    1
    31    25    26   ar
    32    20    31    1
    33    31    32    1
    34    31    33    1
    35    12     7   ar
    36    26    21   ar
@<TRIPOS>MOLECULE
*****
 35 36 0 0 0
SMALL
GASTEIGER

@<TRIPOS>ATOM
      1 C          46.5999   16.1506  -26.5159 C.3     1  UNL1        0.0187
      2 C          45.8187   14.9529  -25.9672 C.3     1  UNL1        0.0722
      3 N          46.7680   13.9307  -25.4630 N.3     1  UNL1       -0.2712
      4 C          46.9819   12.8760  -26.4679 C.3     1  UNL1        0.0896
      5 C          46.3064   13.3450  -24.1863 C.3     1  UNL1        0.0768
      6 C          46.8528   11.9141  -24.0309 C.3     1  UNL1        0.0434
      7 C          48.2698   10.7762  -22.2075 C.ar    1  UNL1       -0.0229
      8 C          48.5022   10.5355  -20.8428 C.ar    1  UNL1        0.0355
      9 C          47.6639   11.0824  -19.8548 C.ar    1  UNL1        0.1721
     10 C          46.5829   11.8870  -20.2324 C.ar    1  UNL1        0.1721
     11 C          46.3502   12.1431  -21.5940 C.ar    1  UNL1        0.0355
     12 C          47.1897   11.6119  -22.5874 C.ar    1  UNL1       -0.0215
     13 C          49.8115    8.8658  -22.6913 C.3     1  UNL1        0.0050
     14 C          49.2300   10.1771  -23.2116 C.3     1  UNL1        0.0261
     15 O          47.8739   10.8496  -18.4860 O.3     1  UNL1       -0.4684
     16 C          48.6987   11.6516  -17.6467 C.3     1  UNL1        0.2526
     17 O          45.7607   12.4166  -19.2246 O.3     1  UNL1       -0.4684
     18 C          44.4092   12.0283  -18.9983 C.3     1  UNL1        0.2526
     19 C          47.3769   16.9463  -25.4404 C.3     1  UNL1        0.0197
     20 C          48.9403   16.8186  -25.4079 C.3     1  UNL1        0.0981
     21 C          49.2940   15.9235  -24.1907 C.ar    1  UNL1       -0.0065
     22 C          48.6387   16.0281  -22.9456 C.ar    1  UNL1        0.0000
     23 C          48.9417   15.1653  -21.8916 C.ar    1  UNL1        0.0398
     24 C          49.8854   14.1401  -22.0544 C.ar    1  UNL1        0.1724
     25 C          50.5142   13.9760  -23.2928 C.ar    1  UNL1        0.1721
     26 C          50.2057   14.8507  -24.3522 C.ar    1  UNL1        0.0367
     27 O          50.2177   13.2586  -21.0132 O.3     1  UNL1       -0.4684
     28 C          51.2049   13.5182  -20.0204 C.3     1  UNL1        0.2526
     29 O          51.4372   12.9270  -23.4354 O.3     1  UNL1       -0.4684
     30 C          51.9841   12.4926  -24.6764 C.3     1  UNL1        0.2526
     31 C          49.6825   18.2205  -25.4560 C.3     1  UNL1        0.0169
     32 C          51.2187   18.1765  -25.6646 C.3     1  UNL1        0.0014
     33 C          49.0331   19.2237  -26.4348 C.3     1  UNL1        0.0014
     34 C          49.3588   16.0896  -26.6342 C.1     1  UNL1        0.0752
     35 N          49.6827   15.5236  -27.5909 N.1     1  UNL1       -0.1956
@<TRIPOS>BOND
     1    13    14    1
     2    14     7    1
     3     7     8   ar
     4     8     9   ar
     5     9    15    1
     6    15    16    1
     7     9    10   ar
     8    10    17    1
     9    17    18    1
    10    10    11   ar
    11    11    12   ar
    12    12     6    1
    13     6     5    1
    14     5     3    1
    15     3     4    1
    16     3     2    1
    17     2     1    1
    18     1    19    1
    19    19    20    1
    20    20    34    1
    21    34    35    3
    22    20    21    1
    23    21    22   ar
    24    22    23   ar
    25    23    24   ar
    26    24    27    1
    27    27    28    1
    28    24    25   ar
    29    25    29    1
    30    29    30    1
    31    25    26   ar
    32    20    31    1
    33    31    32    1
    34    31    33    1
    35    12     7   ar
    36    26    21   ar
@<TRIPOS>MOLECULE
*****
 35 36 0 0 0
SMALL
GASTEIGER

@<TRIPOS>ATOM
      1 C          46.8142   16.2181  -26.8923 C.3     1  UNL1        0.0187
      2 C          45.9781   14.9507  -26.6918 C.3     1  UNL1        0.0722
      3 N          46.8137   13.7566  -26.9678 N.3     1  UNL1       -0.2712
      4 C          46.2627   12.9825  -28.0926 C.3     1  UNL1        0.0896
      5 C          46.9521   12.9027  -25.7687 C.3     1  UNL1        0.0768
      6 C          48.3114   12.1801  -25.7861 C.3     1  UNL1        0.0434
      7 C          49.6690   10.5825  -24.2921 C.ar    1  UNL1       -0.0229
      8 C          49.7870    9.8804  -23.0806 C.ar    1  UNL1        0.0355
      9 C          48.7837    9.9525  -22.0977 C.ar    1  UNL1        0.1721
     10 C          47.6500   10.7418  -22.3226 C.ar    1  UNL1        0.1721
     11 C          47.5294   11.4569  -23.5258 C.ar    1  UNL1        0.0355
     12 C          48.5323   11.4014  -24.5081 C.ar    1  UNL1       -0.0215
     13 C          52.0270    9.8287  -24.6555 C.3     1  UNL1        0.0050
     14 C          50.8011   10.4786  -25.2905 C.3     1  UNL1        0.0261
     15 O          48.8781    9.2544  -20.8829 O.3     1  UNL1       -0.4684
     16 C          49.7141    9.6349  -19.7947 C.3     1  UNL1        0.2526
     17 O          46.6629   10.7920  -21.3250 O.3     1  UNL1       -0.4684
     18 C          46.4511   11.8986  -20.4539 C.3     1  UNL1        0.2526
     19 C          47.4328   16.7813  -25.5908 C.3     1  UNL1        0.0197
     20 C          48.9902   16.7063  -25.4164 C.3     1  UNL1        0.0981
     21 C          49.2639   15.7672  -24.2119 C.ar    1  UNL1       -0.0065
     22 C          48.3470   15.5887  -23.1546 C.ar    1  UNL1        0.0000
     23 C          48.6008   14.6896  -22.1181 C.ar    1  UNL1        0.0398
     24 C          49.7648   13.9065  -22.1188 C.ar    1  UNL1        0.1724
     25 C          50.6686   14.0209  -23.1799 C.ar    1  UNL1        0.1721
     26 C          50.4080   14.9310  -24.2221 C.ar    1  UNL1        0.0367
     27 O          50.0535   12.9967  -21.0890 O.3     1  UNL1       -0.4684
     28 C          50.3378   13.3650  -19.7432 C.3     1  UNL1        0.2526
     29 O          51.8140   13.2080  -23.1675 O.3     1  UNL1       -0.4684
     30 C          53.0677   13.5839  -22.6066 C.3     1  UNL1        0.2526
     31 C          49.6786   18.1338  -25.3323 C.3     1  UNL1        0.0169
     32 C          51.2170   18.1658  -25.5255 C.3     1  UNL1        0.0014
     33 C          48.9997   19.1944  -26.2270 C.3     1  UNL1        0.0014
     34 C          49.5488   16.0513  -26.6286 C.1     1  UNL1        0.0752
     35 N          49.9845   15.5387  -27.5709 N.1     1  UNL1       -0.1956
@<TRIPOS>BOND
     1    13    14    1
     2    14     7    1
     3     7     8   ar
     4     8     9   ar
     5     9    15    1
     6    15    16    1
     7     9    10   ar
     8    10    17    1
     9    17    18    1
    10    10    11   ar
    11    11    12   ar
    12    12     6    1
    13     6     5    1
    14     5     3    1
    15     3     4    1
    16     3     2    1
    17     2     1    1
    18     1    19    1
    19    19    20    1
    20    20    34    1
    21    34    35    3
    22    20    21    1
    23    21    22   ar
    24    22    23   ar
    25    23    24   ar
    26    24    27    1
    27    27    28    1
    28    24    25   ar
    29    25    29    1
    30    29    30    1
    31    25    26   ar
    32    20    31    1
    33    31    32    1
    34    31    33    1
    35    12     7   ar
    36    26    21   ar
@<TRIPOS>MOLECULE
*****
 35 36 0 0 0
SMALL
GASTEIGER

@<TRIPOS>ATOM
      1 C          49.4813   10.1051  -23.5097 C.3     1  UNL1        0.0187
      2 C          48.2580   10.7483  -22.8497 C.3     1  UNL1        0.0722
      3 N          47.9713   12.0505  -23.4998 N.3     1  UNL1       -0.2712
      4 C          47.9459   13.1361  -22.5053 C.3     1  UNL1        0.0896
      5 C          46.7019   12.0107  -24.2569 C.3     1  UNL1        0.0768
      6 C          46.5137   13.3191  -25.0460 C.3     1  UNL1        0.0434
      7 C          46.2044   14.0769  -27.4869 C.ar    1  UNL1       -0.0229
      8 C          46.1238   13.7386  -28.8483 C.ar    1  UNL1        0.0355
      9 C          46.2299   12.4022  -29.2731 C.ar    1  UNL1        0.1721
     10 C          46.4269   11.3891  -28.3277 C.ar    1  UNL1        0.1721
     11 C          46.5210   11.7194  -26.9655 C.ar    1  UNL1        0.0355
     12 C          46.4292   13.0529  -26.5328 C.ar    1  UNL1       -0.0215
     13 C          45.0695   16.2550  -27.9645 C.3     1  UNL1        0.0050
     14 C          46.1091   15.5385  -27.1077 C.3     1  UNL1        0.0261
     15 O          46.1459   12.0411  -30.6276 O.3     1  UNL1       -0.4684
     16 C          45.5968   12.8647  -31.6513 C.3     1  UNL1        0.2526
     17 O          46.5257   10.0634  -28.7805 O.3     1  UNL1       -0.4684
     18 C          47.7077    9.4809  -29.3207 C.3     1  UNL1        0.2526
     19 C          49.6091   10.3941  -25.0242 C.3     1  UNL1        0.0197
     20 C          50.9369   11.0472  -25.5455 C.3     1  UNL1        0.0981
     21 C          50.8364   12.5677  -25.2527 C.ar    1  UNL1       -0.0065
     22 C          50.0832   13.4543  -26.0507 C.ar    1  UNL1        0.0000
     23 C          49.9664   14.8054  -25.7219 C.ar    1  UNL1        0.0398
     24 C          50.5679   15.3143  -24.5612 C.ar    1  UNL1        0.1724
     25 C          51.2773   14.4507  -23.7204 C.ar    1  UNL1        0.1721
     26 C          51.3931   13.0887  -24.0581 C.ar    1  UNL1        0.0367
     27 O          50.4749   16.6691  -24.2042 O.3     1  UNL1       -0.4684
     28 C          50.7970   17.7549  -25.0673 C.3     1  UNL1        0.2526
     29 O          51.8494   14.9816  -22.5527 O.3     1  UNL1       -0.4684
     30 C          52.4089   14.2040  -21.4992 C.3     1  UNL1        0.2526
     31 C          51.2706   10.6680  -27.0501 C.3     1  UNL1        0.0169
     32 C          52.6601   11.1115  -27.5772 C.3     1  UNL1        0.0014
     33 C          51.0192    9.1791  -27.3762 C.3     1  UNL1        0.0014
     34 C          52.0558   10.5084  -24.7280 C.1     1  UNL1        0.0752
     35 N          52.9278   10.0919  -24.0903 N.1     1  UNL1       -0.1956
@<TRIPOS>BOND
     1    13    14    1
     2    14     7    1
     3     7     8   ar
     4     8     9   ar
     5     9    15    1
     6    15    16    1
     7     9    10   ar
     8    10    17    1
     9    17    18    1
    10    10    11   ar
    11    11    12   ar
    12    12     6    1
    13     6     5    1
    14     5     3    1
    15     3     4    1
    16     3     2    1
    17     2     1    1
    18     1    19    1
    19    19    20    1
    20    20    34    1
    21    34    35    3
    22    20    21    1
    23    21    22   ar
    24    22    23   ar
    25    23    24   ar
    26    24    27    1
    27    27    28    1
    28    24    25   ar
    29    25    29    1
    30    29    30    1
    31    25    26   ar
    32    20    31    1
    33    31    32    1
    34    31    33    1
    35    12     7   ar
    36    26    21   ar
@<TRIPOS>MOLECULE
*****
 35 36 0 0 0
SMALL
GASTEIGER

@<TRIPOS>ATOM
      1 C          46.8783   16.6260  -27.0341 C.3     1  UNL1        0.0187
      2 C          45.8065   15.5386  -26.9132 C.3     1  UNL1        0.0722
      3 N          46.3921   14.2234  -27.2709 N.3     1  UNL1       -0.2712
      4 C          46.0857   13.8785  -28.6691 C.3     1  UNL1        0.0896
      5 C          45.9263   13.1566  -26.3593 C.3     1  UNL1        0.0768
      6 C          46.3919   13.4473  -24.9209 C.3     1  UNL1        0.0434
      7 C          47.5267   11.8849  -23.2182 C.ar    1  UNL1       -0.0229
      8 C          48.5903   11.0227  -22.9025 C.ar    1  UNL1        0.0355
      9 C          49.6277   10.7809  -23.8208 C.ar    1  UNL1        0.1721
     10 C          49.6003   11.4016  -25.0749 C.ar    1  UNL1        0.1721
     11 C          48.5344   12.2556  -25.4038 C.ar    1  UNL1        0.0355
     12 C          47.4871   12.4931  -24.4980 C.ar    1  UNL1       -0.0215
     13 C          46.7652   11.3321  -20.8999 C.3     1  UNL1        0.0050
     14 C          46.4327   12.0750  -22.1906 C.3     1  UNL1        0.0261
     15 O          50.7031    9.9282  -23.5238 O.3     1  UNL1       -0.4684
     16 C          50.6675    8.5097  -23.6444 C.3     1  UNL1        0.2526
     17 O          50.6512   11.1444  -25.9702 O.3     1  UNL1       -0.4684
     18 C          51.8189   11.9499  -26.0971 C.3     1  UNL1        0.2526
     19 C          47.5334   17.0219  -25.6895 C.3     1  UNL1        0.0197
     20 C          49.0866   16.8559  -25.5436 C.3     1  UNL1        0.0981
     21 C          49.3326   16.0365  -24.2491 C.ar    1  UNL1       -0.0065
     22 C          48.4362   16.0361  -23.1597 C.ar    1  UNL1        0.0000
     23 C          48.6601   15.2395  -22.0361 C.ar    1  UNL1        0.0398
     24 C          49.7702   14.3839  -21.9750 C.ar    1  UNL1        0.1724
     25 C          50.6493   14.3212  -23.0610 C.ar    1  UNL1        0.1721
     26 C          50.4191   15.1286  -24.1912 C.ar    1  UNL1        0.0367
     27 O          50.0281   13.5736  -20.8577 O.3     1  UNL1       -0.4684
     28 C          49.3741   13.7024  -19.5994 C.3     1  UNL1        0.2526
     29 O          51.7392   13.4388  -22.9832 O.3     1  UNL1       -0.4684
     30 C          52.9681   13.7259  -22.3234 C.3     1  UNL1        0.2526
     31 C          49.8728   18.2316  -25.6339 C.3     1  UNL1        0.0169
     32 C          51.4119   18.1548  -25.4592 C.3     1  UNL1        0.0014
     33 C          49.5121   19.0617  -26.8857 C.3     1  UNL1        0.0014
     34 C          49.5621   16.0349  -26.6884 C.1     1  UNL1        0.0752
     35 N          49.9347   15.3944  -27.5780 N.1     1  UNL1       -0.1956
@<TRIPOS>BOND
     1    13    14    1
     2    14     7    1
     3     7     8   ar
     4     8     9   ar
     5     9    15    1
     6    15    16    1
     7     9    10   ar
     8    10    17    1
     9    17    18    1
    10    10    11   ar
    11    11    12   ar
    12    12     6    1
    13     6     5    1
    14     5     3    1
    15     3     4    1
    16     3     2    1
    17     2     1    1
    18     1    19    1
    19    19    20    1
    20    20    34    1
    21    34    35    3
    22    20    21    1
    23    21    22   ar
    24    22    23   ar
    25    23    24   ar
    26    24    27    1
    27    27    28    1
    28    24    25   ar
    29    25    29    1
    30    29    30    1
    31    25    26   ar
    32    20    31    1
    33    31    32    1
    34    31    33    1
    35    12     7   ar
    36    26    21   ar
@<TRIPOS>MOLECULE
*****
 35 36 0 0 0
SMALL
GASTEIGER

@<TRIPOS>ATOM
      1 C          49.7088    9.6484  -23.2972 C.3     1  UNL1        0.0187
      2 C          48.6460   10.0635  -22.2755 C.3     1  UNL1        0.0722
      3 N          48.9330   11.4360  -21.7914 N.3     1  UNL1       -0.2712
      4 C          49.7304   11.3971  -20.5542 C.3     1  UNL1        0.0896
      5 C          47.6897   12.2086  -21.5834 C.3     1  UNL1        0.0768
      6 C          46.7541   12.0443  -22.7949 C.3     1  UNL1        0.0434
      7 C          46.6336   13.1776  -25.1033 C.ar    1  UNL1       -0.0229
      8 C          46.7217   14.3511  -25.8711 C.ar    1  UNL1        0.0355
      9 C          47.0168   15.5900  -25.2745 C.ar    1  UNL1        0.1721
     10 C          47.2195   15.6613  -23.8916 C.ar    1  UNL1        0.1721
     11 C          47.1212   14.4952  -23.1144 C.ar    1  UNL1        0.0355
     12 C          46.8141   13.2554  -23.6995 C.ar    1  UNL1       -0.0215
     13 C          46.7101   11.9378  -27.2753 C.3     1  UNL1        0.0050
     14 C          46.2853   11.8863  -25.8106 C.3     1  UNL1        0.0261
     15 O          47.1159   16.7738  -26.0234 O.3     1  UNL1       -0.4684
     16 C          47.6536   16.8552  -27.3395 C.3     1  UNL1        0.2526
     17 O          47.5162   16.9111  -23.3238 O.3     1  UNL1       -0.4684
     18 C          46.5479   17.9110  -23.0221 C.3     1  UNL1        0.2526
     19 C          49.5531   10.3210  -24.6818 C.3     1  UNL1        0.0197
     20 C          50.8322   10.9230  -25.3623 C.3     1  UNL1        0.0981
     21 C          50.8168   12.4488  -25.0800 C.ar    1  UNL1       -0.0065
     22 C          50.4410   13.4041  -26.0477 C.ar    1  UNL1        0.0000
     23 C          50.3808   14.7638  -25.7399 C.ar    1  UNL1        0.0398
     24 C          50.6580   15.2166  -24.4414 C.ar    1  UNL1        0.1724
     25 C          50.9819   14.2896  -23.4454 C.ar    1  UNL1        0.1721
     26 C          51.0428   12.9192  -23.7625 C.ar    1  UNL1        0.0367
     27 O          50.6122   16.5777  -24.0993 O.3     1  UNL1       -0.4684
     28 C          50.7632   17.6481  -25.0261 C.3     1  UNL1        0.2526
     29 O          51.2316   14.7678  -22.1487 O.3     1  UNL1       -0.4684
     30 C          52.2594   14.2828  -21.2906 C.3     1  UNL1        0.2526
     31 C          50.9757   10.5184  -26.8902 C.3     1  UNL1        0.0169
     32 C          52.3928   10.6544  -27.5055 C.3     1  UNL1        0.0014
     33 C          50.3765    9.1322  -27.2152 C.3     1  UNL1        0.0014
     34 C          52.0201   10.3538  -24.6730 C.1     1  UNL1        0.0752
     35 N          52.9472    9.9119  -24.1383 N.1     1  UNL1       -0.1956
@<TRIPOS>BOND
     1    13    14    1
     2    14     7    1
     3     7     8   ar
     4     8     9   ar
     5     9    15    1
     6    15    16    1
     7     9    10   ar
     8    10    17    1
     9    17    18    1
    10    10    11   ar
    11    11    12   ar
    12    12     6    1
    13     6     5    1
    14     5     3    1
    15     3     4    1
    16     3     2    1
    17     2     1    1
    18     1    19    1
    19    19    20    1
    20    20    34    1
    21    34    35    3
    22    20    21    1
    23    21    22   ar
    24    22    23   ar
    25    23    24   ar
    26    24    27    1
    27    27    28    1
    28    24    25   ar
    29    25    29    1
    30    29    30    1
    31    25    26   ar
    32    20    31    1
    33    31    32    1
    34    31    33    1
    35    12     7   ar
    36    26    21   ar
@<TRIPOS>MOLECULE
*****
 35 36 0 0 0
SMALL
GASTEIGER

@<TRIPOS>ATOM
      1 C          46.6511   16.1029  -24.2829 C.3     1  UNL1        0.0187
      2 C          46.7531   14.7956  -23.4917 C.3     1  UNL1        0.0722
      3 N          46.4606   13.6499  -24.3873 N.3     1  UNL1       -0.2712
      4 C          45.4380   14.0129  -25.3825 C.3     1  UNL1        0.0896
      5 C          46.0393   12.4571  -23.6218 C.3     1  UNL1        0.0768
      6 C          47.2648   11.5973  -23.2626 C.3     1  UNL1        0.0434
      7 C          48.6018   10.9443  -21.1617 C.ar    1  UNL1       -0.0229
      8 C          48.6837   10.8868  -19.7601 C.ar    1  UNL1        0.0355
      9 C          47.6305   11.3486  -18.9505 C.ar    1  UNL1        0.1721
     10 C          46.4822   11.8823  -19.5466 C.ar    1  UNL1        0.1721
     11 C          46.3967   11.9550  -20.9470 C.ar    1  UNL1        0.0355
     12 C          47.4490   11.5082  -21.7637 C.ar    1  UNL1       -0.0215
     13 C          49.6274    8.9786  -22.3211 C.3     1  UNL1        0.0050
     14 C          49.7854   10.4543  -21.9666 C.3     1  UNL1        0.0261
     15 O          47.6887   11.2948  -17.5485 O.3     1  UNL1       -0.4684
     16 C          48.7960   11.7334  -16.7678 C.3     1  UNL1        0.2526
     17 O          45.4451   12.3323  -18.7134 O.3     1  UNL1       -0.4684
     18 C          44.0692   12.0104  -18.8917 C.3     1  UNL1        0.2526
     19 C          47.9282   16.9749  -24.2329 C.3     1  UNL1        0.0197
     20 C          49.0250   16.7480  -25.3315 C.3     1  UNL1        0.0981
     21 C          49.8353   15.4946  -24.9071 C.ar    1  UNL1       -0.0065
     22 C          50.1259   14.4338  -25.7907 C.ar    1  UNL1        0.0000
     23 C          50.9092   13.3504  -25.3908 C.ar    1  UNL1        0.0398
     24 C          51.4634   13.3045  -24.1028 C.ar    1  UNL1        0.1724
     25 C          51.2382   14.3658  -23.2203 C.ar    1  UNL1        0.1721
     26 C          50.4457   15.4555  -23.6288 C.ar    1  UNL1        0.0367
     27 O          52.2510   12.2270  -23.6666 O.3     1  UNL1       -0.4684
     28 C          53.2254   11.5642  -24.4658 C.3     1  UNL1        0.2526
     29 O          51.8244   14.3053  -21.9454 O.3     1  UNL1       -0.4684
     30 C          51.1437   13.9086  -20.7591 C.3     1  UNL1        0.2526
     31 C          49.8900   18.0453  -25.6275 C.3     1  UNL1        0.0169
     32 C          51.2259   17.8213  -26.3828 C.3     1  UNL1        0.0014
     33 C          49.0805   19.1832  -26.2878 C.3     1  UNL1        0.0014
     34 C          48.3285   16.4194  -26.6032 C.1     1  UNL1        0.0752
     35 N          47.7844   16.1612  -27.5921 N.1     1  UNL1       -0.1956
@<TRIPOS>BOND
     1    13    14    1
     2    14     7    1
     3     7     8   ar
     4     8     9   ar
     5     9    15    1
     6    15    16    1
     7     9    10   ar
     8    10    17    1
     9    17    18    1
    10    10    11   ar
    11    11    12   ar
    12    12     6    1
    13     6     5    1
    14     5     3    1
    15     3     4    1
    16     3     2    1
    17     2     1    1
    18     1    19    1
    19    19    20    1
    20    20    34    1
    21    34    35    3
    22    20    21    1
    23    21    22   ar
    24    22    23   ar
    25    23    24   ar
    26    24    27    1
    27    27    28    1
    28    24    25   ar
    29    25    29    1
    30    29    30    1
    31    25    26   ar
    32    20    31    1
    33    31    32    1
    34    31    33    1
    35    12     7   ar
    36    26    21   ar
@<TRIPOS>MOLECULE
*****
 35 36 0 0 0
SMALL
GASTEIGER

@<TRIPOS>ATOM
      1 C          49.8742    9.3443  -23.4115 C.3     1  UNL1        0.0187
      2 C          48.9450    9.6564  -22.2348 C.3     1  UNL1        0.0722
      3 N          48.9371   11.1183  -21.9834 N.3     1  UNL1       -0.2712
      4 C          49.5306   11.4256  -20.6714 C.3     1  UNL1        0.0896
      5 C          47.5718   11.6776  -22.0791 C.3     1  UNL1        0.0768
      6 C          47.6351   13.2084  -22.2303 C.3     1  UNL1        0.0434
      7 C          46.9607   15.0046  -23.9468 C.ar    1  UNL1       -0.0229
      8 C          46.4774   15.3201  -25.2279 C.ar    1  UNL1        0.0355
      9 C          46.1372   14.3103  -26.1459 C.ar    1  UNL1        0.1721
     10 C          46.2881   12.9667  -25.7840 C.ar    1  UNL1        0.1721
     11 C          46.7821   12.6422  -24.5096 C.ar    1  UNL1        0.0355
     12 C          47.1369   13.6439  -23.5906 C.ar    1  UNL1       -0.0215
     13 C          46.7869   17.4687  -23.5493 C.3     1  UNL1        0.0050
     14 C          47.3320   16.1441  -23.0234 C.3     1  UNL1        0.0261
     15 O          45.6467   14.6029  -27.4287 O.3     1  UNL1       -0.4684
     16 C          45.6097   15.9057  -28.0025 C.3     1  UNL1        0.2526
     17 O          45.9370   11.9799  -26.7195 O.3     1  UNL1       -0.4684
     18 C          46.8254   11.4360  -27.6908 C.3     1  UNL1        0.2526
     19 C          49.6270   10.2195  -24.6632 C.3     1  UNL1        0.0197
     20 C          50.8682   10.8595  -25.3781 C.3     1  UNL1        0.0981
     21 C          50.8029   12.3870  -25.1127 C.ar    1  UNL1       -0.0065
     22 C          50.2711   13.3050  -26.0426 C.ar    1  UNL1        0.0000
     23 C          50.1730   14.6648  -25.7449 C.ar    1  UNL1        0.0398
     24 C          50.5685   15.1532  -24.4907 C.ar    1  UNL1        0.1724
     25 C          51.0504   14.2613  -23.5272 C.ar    1  UNL1        0.1721
     26 C          51.1487   12.8906  -23.8340 C.ar    1  UNL1        0.0367
     27 O          50.4885   16.5157  -24.1606 O.3     1  UNL1       -0.4684
     28 C          50.6729   17.5822  -25.0858 C.3     1  UNL1        0.2526
     29 O          51.4170   14.7736  -22.2720 O.3     1  UNL1       -0.4684
     30 C          52.3949   14.1934  -21.4147 C.3     1  UNL1        0.2526
     31 C          50.9937   10.4421  -26.9041 C.3     1  UNL1        0.0169
     32 C          52.4067   10.5580  -27.5329 C.3     1  UNL1        0.0014
     33 C          50.3767    9.0602  -27.2135 C.3     1  UNL1        0.0014
     34 C          52.0907   10.3423  -24.7085 C.1     1  UNL1        0.0752
     35 N          53.0414    9.9399  -24.1842 N.1     1  UNL1       -0.1956
@<TRIPOS>BOND
     1    13    14    1
     2    14     7    1
     3     7     8   ar
     4     8     9   ar
     5     9    15    1
     6    15    16    1
     7     9    10   ar
     8    10    17    1
     9    17    18    1
    10    10    11   ar
    11    11    12   ar
    12    12     6    1
    13     6     5    1
    14     5     3    1
    15     3     4    1
    16     3     2    1
    17     2     1    1
    18     1    19    1
    19    19    20    1
    20    20    34    1
    21    34    35    3
    22    20    21    1
    23    21    22   ar
    24    22    23   ar
    25    23    24   ar
    26    24    27    1
    27    27    28    1
    28    24    25   ar
    29    25    29    1
    30    29    30    1
    31    25    26   ar
    32    20    31    1
    33    31    32    1
    34    31    33    1
    35    12     7   ar
    36    26    21   ar
