@<TRIPOS>MOLECULE
*****
 46 51 0 0 0
SMALL
GASTEIGER

@<TRIPOS>ATOM
      1 C          11.6941   80.8421   25.2066 C.ar    1  UNL1        0.0756
      2 C          11.1289   82.1178   25.0624 C.ar    1  UNL1        0.1154
      3 N          11.8921   83.1638   24.6526 N.ar    1  UNL1       -0.2278
      4 C          13.2159   83.0328   24.3595 C.ar    1  UNL1        0.1323
      5 C          13.8159   81.7672   24.4782 C.ar    1  UNL1        0.0414
      6 C          13.0538   80.6714   24.8935 C.ar    1  UNL1        0.0393
      7 S          13.8517   79.0714   25.0540 S.3     1  UNL1       -0.1401
      8 H          13.5373   78.7218   23.7274 H       1  UNL1        0.1072
      9 N          13.9730   84.1875   23.9316 N.pl3   1  UNL1       -0.2932
     10 C          15.0287   84.0518   22.9130 C.3     1  UNL1        0.0923
     11 C          15.3852   85.4056   22.2905 C.3     1  UNL1        0.0252
     12 C          15.7760   86.4361   23.3703 C.3     1  UNL1        0.0472
     13 C          14.8435   86.3911   24.6148 C.3     1  UNL1        0.0252
     14 C          13.5943   85.5274   24.4069 C.3     1  UNL1        0.0923
     15 C          15.8288   87.8481   22.7526 C.3     1  UNL1        0.2054
     16 O          14.5151   88.3693   22.5408 O.3     1  UNL1       -0.4755
     17 C          13.7358   88.1827   21.3868 C.ar    1  UNL1        0.1388
     18 C          12.4332   87.6991   21.5462 C.ar    1  UNL1        0.0369
     19 C          11.6149   87.4871   20.4362 C.ar    1  UNL1        0.0033
     20 C          12.0892   87.7613   19.1522 C.ar    1  UNL1        0.0066
     21 C          13.3912   88.2567   18.9646 C.ar    1  UNL1        0.0785
     22 C          14.2157   88.4522   20.0886 C.ar    1  UNL1        0.0433
     23 C          13.8829   88.5435   17.5950 C.2     1  UNL1        0.3381
     24 O          14.6732   89.5058   17.4033 O.2     1  UNL1       -0.2451
     25 O          13.5079   87.7626   16.5020 O.3     1  UNL1       -0.4771
     26 H          12.9652   86.9141   16.5989 H       1  UNL1        0.2954
     27 C           9.8019   79.2032   24.8166 C.2     1  UNL1        0.2840
     28 O           9.5633   79.6754   23.6729 O.2     1  UNL1       -0.2665
     29 N          10.8891   79.7192   25.6033 N.am    1  UNL1       -0.2763
     30 H          11.1026   79.2732   26.5216 H       1  UNL1        0.1553
     31 C           8.1368   79.0763   27.5884 C.3     1  UNL1        0.0345
     32 C           8.2548   78.0344   26.5177 C.ar    1  UNL1        0.0202
     33 C           8.9604   78.0994   25.3096 C.ar    1  UNL1        0.1946
     34 O           8.7595   76.9969   24.6092 O.2     1  UNL1       -0.4492
     35 C           7.9806   76.2103   25.3111 C.ar    1  UNL1        0.1452
     36 C           7.5172   74.9470   24.9606 C.ar    1  UNL1        0.0375
     37 C           6.6823   74.2745   25.8702 C.ar    1  UNL1        0.0031
     38 C           6.3244   74.8715   27.1096 C.ar    1  UNL1        0.0002
     39 C           6.8177   76.1600   27.4266 C.ar    1  UNL1        0.0028
     40 C           7.6448   76.7963   26.5010 C.ar    1  UNL1        0.0337
     41 C           5.4419   74.1519   28.0628 C.ar    1  UNL1        0.0000
     42 C           5.1437   72.7891   27.8730 C.ar    1  UNL1        0.0000
     43 C           4.3116   72.1144   28.7716 C.ar    1  UNL1        0.0000
     44 C           3.7693   72.7896   29.8674 C.ar    1  UNL1        0.0000
     45 C           4.0577   74.1414   30.0667 C.ar    1  UNL1        0.0000
     46 C           4.8885   74.8214   29.1709 C.ar    1  UNL1        0.0000
@<TRIPOS>BOND
     1    31    32    1
     2    32    33   ar
     3    33    27    1
     4    27    28    2
     5    27    29   am
     6    29     1    1
     7     1     2   ar
     8     2     3   ar
     9     3     4   ar
    10     4     9    1
    11     9    10    1
    12    10    11    1
    13    11    12    1
    14    12    15    1
    15    15    16    1
    16    16    17    1
    17    17    18   ar
    18    18    19   ar
    19    19    20   ar
    20    20    21   ar
    21    21    23    1
    22    23    24    2
    23    23    25    1
    24    21    22   ar
    25    12    13    1
    26    13    14    1
    27     4     5   ar
    28     5     6   ar
    29     6     7    1
    30    33    34   ar
    31    34    35   ar
    32    35    36   ar
    33    36    37   ar
    34    37    38   ar
    35    38    41    1
    36    41    42   ar
    37    42    43   ar
    38    43    44   ar
    39    44    45   ar
    40    45    46   ar
    41    38    39   ar
    42    39    40   ar
    43    40    32   ar
    44     6     1   ar
    45    40    35   ar
    46    14     9    1
    47    46    41   ar
    48    22    17   ar
    49    29    30    1
    50    25    26    1
    51     7     8    1
@<TRIPOS>MOLECULE
*****
 46 51 0 0 0
SMALL
GASTEIGER

@<TRIPOS>ATOM
      1 C          11.6703   81.1190   25.7914 C.ar    1  UNL1        0.0756
      2 C          12.6545   81.8291   26.4949 C.ar    1  UNL1        0.1154
      3 N          13.3524   82.8216   25.8843 N.ar    1  UNL1       -0.2278
      4 C          13.1351   83.1776   24.5876 C.ar    1  UNL1        0.1323
      5 C          12.1474   82.4989   23.8531 C.ar    1  UNL1        0.0414
      6 C          11.4102   81.4761   24.4570 C.ar    1  UNL1        0.0393
      7 S          10.1683   80.6145   23.4886 S.3     1  UNL1       -0.1401
      8 H           9.1583   81.5090   23.8892 H       1  UNL1        0.1072
      9 N          13.9154   84.2410   23.9959 N.pl3   1  UNL1       -0.2932
     10 C          14.8990   83.9456   22.9396 C.3     1  UNL1        0.0923
     11 C          15.2767   85.2068   22.1560 C.3     1  UNL1        0.0252
     12 C          15.7793   86.3233   23.0949 C.3     1  UNL1        0.0472
     13 C          14.9243   86.4566   24.3878 C.3     1  UNL1        0.0252
     14 C          13.6271   85.6409   24.3450 C.3     1  UNL1        0.0923
     15 C          15.8571   87.6583   22.3270 C.3     1  UNL1        0.2054
     16 O          14.5708   88.2726   22.2261 O.3     1  UNL1       -0.4755
     17 C          13.7120   88.1980   21.1167 C.ar    1  UNL1        0.1388
     18 C          12.4017   87.7581   21.3300 C.ar    1  UNL1        0.0369
     19 C          11.5057   87.6568   20.2653 C.ar    1  UNL1        0.0033
     20 C          11.9092   87.9994   18.9736 C.ar    1  UNL1        0.0066
     21 C          13.2177   88.4531   18.7330 C.ar    1  UNL1        0.0785
     22 C          14.1200   88.5367   19.8102 C.ar    1  UNL1        0.0433
     23 C          13.6337   88.8135   17.3557 C.2     1  UNL1        0.3381
     24 O          14.7358   89.3943   17.1674 O.2     1  UNL1       -0.2451
     25 O          12.8430   88.5111   16.2474 O.3     1  UNL1       -0.4771
     26 H          12.0016   87.9531   16.3140 H       1  UNL1        0.2954
     27 C          11.1557   78.6864   26.2775 C.2     1  UNL1        0.2840
     28 O          12.1531   78.2923   25.6159 O.2     1  UNL1       -0.2665
     29 N          10.8988   80.0921   26.4368 N.am    1  UNL1       -0.2763
     30 H          10.1008   80.3936   27.0368 H       1  UNL1        0.1553
     31 C           8.0343   78.1137   25.6449 C.3     1  UNL1        0.0345
     32 C           8.9272   77.4399   26.6422 C.ar    1  UNL1        0.0202
     33 C          10.2832   77.6763   26.9005 C.ar    1  UNL1        0.1946
     34 O          10.7248   76.8259   27.8106 O.2     1  UNL1       -0.4492
     35 C           9.7197   76.0669   28.1736 C.ar    1  UNL1        0.1452
     36 C           9.7307   75.0403   29.1113 C.ar    1  UNL1        0.0375
     37 C           8.5298   74.3477   29.3457 C.ar    1  UNL1        0.0031
     38 C           7.3424   74.6892   28.6430 C.ar    1  UNL1        0.0002
     39 C           7.3754   75.7409   27.6959 C.ar    1  UNL1        0.0028
     40 C           8.5838   76.4068   27.4907 C.ar    1  UNL1        0.0337
     41 C           6.0796   73.9509   28.8987 C.ar    1  UNL1        0.0000
     42 C           5.7135   72.8576   28.0906 C.ar    1  UNL1        0.0000
     43 C           4.5232   72.1649   28.3331 C.ar    1  UNL1        0.0000
     44 C           3.6871   72.5536   29.3822 C.ar    1  UNL1        0.0000
     45 C           4.0394   73.6362   30.1910 C.ar    1  UNL1        0.0000
     46 C           5.2278   74.3332   29.9526 C.ar    1  UNL1        0.0000
@<TRIPOS>BOND
     1    31    32    1
     2    32    33   ar
     3    33    27    1
     4    27    28    2
     5    27    29   am
     6    29     1    1
     7     1     2   ar
     8     2     3   ar
     9     3     4   ar
    10     4     9    1
    11     9    10    1
    12    10    11    1
    13    11    12    1
    14    12    15    1
    15    15    16    1
    16    16    17    1
    17    17    18   ar
    18    18    19   ar
    19    19    20   ar
    20    20    21   ar
    21    21    23    1
    22    23    24    2
    23    23    25    1
    24    21    22   ar
    25    12    13    1
    26    13    14    1
    27     4     5   ar
    28     5     6   ar
    29     6     7    1
    30    33    34   ar
    31    34    35   ar
    32    35    36   ar
    33    36    37   ar
    34    37    38   ar
    35    38    41    1
    36    41    42   ar
    37    42    43   ar
    38    43    44   ar
    39    44    45   ar
    40    45    46   ar
    41    38    39   ar
    42    39    40   ar
    43    40    32   ar
    44     6     1   ar
    45    40    35   ar
    46    14     9    1
    47    46    41   ar
    48    22    17   ar
    49    29    30    1
    50    25    26    1
    51     7     8    1
@<TRIPOS>MOLECULE
*****
 46 51 0 0 0
SMALL
GASTEIGER

@<TRIPOS>ATOM
      1 C          11.5224   80.9707   25.7642 C.ar    1  UNL1        0.0756
      2 C          12.5030   81.6803   26.4731 C.ar    1  UNL1        0.1154
      3 N          13.2112   82.6663   25.8637 N.ar    1  UNL1       -0.2278
      4 C          13.0077   83.0162   24.5631 C.ar    1  UNL1        0.1323
      5 C          12.0239   82.3379   23.8230 C.ar    1  UNL1        0.0414
      6 C          11.2765   81.3217   24.4254 C.ar    1  UNL1        0.0393
      7 S          10.0400   80.4604   23.4499 S.3     1  UNL1       -0.1401
      8 H           9.0302   81.3615   23.8361 H       1  UNL1        0.1072
      9 N          13.7983   84.0728   23.9731 N.pl3   1  UNL1       -0.2932
     10 C          15.0814   83.7669   23.3168 C.3     1  UNL1        0.0923
     11 C          15.5252   84.9063   22.3937 C.3     1  UNL1        0.0252
     12 C          15.5872   86.2504   23.1487 C.3     1  UNL1        0.0472
     13 C          14.3741   86.4672   24.0982 C.3     1  UNL1        0.0252
     14 C          13.2554   85.4382   23.8991 C.3     1  UNL1        0.0923
     15 C          15.7338   87.4102   22.1429 C.3     1  UNL1        0.2054
     16 O          14.5960   87.4955   21.2826 O.3     1  UNL1       -0.4755
     17 C          14.2801   86.5964   20.2503 C.ar    1  UNL1        0.1388
     18 C          12.9324   86.4288   19.9161 C.ar    1  UNL1        0.0369
     19 C          12.5576   85.5442   18.9043 C.ar    1  UNL1        0.0033
     20 C          13.5284   84.8195   18.2107 C.ar    1  UNL1        0.0066
     21 C          14.8906   84.9759   18.5203 C.ar    1  UNL1        0.0785
     22 C          15.2587   85.8582   19.5536 C.ar    1  UNL1        0.0433
     23 C          15.9118   84.1996   17.7760 C.2     1  UNL1        0.3381
     24 O          16.6171   83.3506   18.3835 O.2     1  UNL1       -0.2451
     25 O          16.1073   84.3686   16.4054 O.3     1  UNL1       -0.4771
     26 H          15.5065   84.9515   15.8370 H       1  UNL1        0.2954
     27 C          11.0740   78.5528   26.3731 C.2     1  UNL1        0.2840
     28 O          12.1463   78.1672   25.8353 O.2     1  UNL1       -0.2665
     29 N          10.7401   79.9508   26.4077 N.am    1  UNL1       -0.2763
     30 H           9.8761   80.2503   26.9092 H       1  UNL1        0.1553
     31 C           7.9686   77.9638   25.6796 C.3     1  UNL1        0.0345
     32 C           8.8432   77.2995   26.6992 C.ar    1  UNL1        0.0202
     33 C          10.1927   77.5429   26.9841 C.ar    1  UNL1        0.1946
     34 O          10.6186   76.6997   27.9082 O.2     1  UNL1       -0.4492
     35 C           9.6092   75.9389   28.2550 C.ar    1  UNL1        0.1452
     36 C           9.6048   74.9179   29.1989 C.ar    1  UNL1        0.0375
     37 C           8.4020   74.2220   29.4126 C.ar    1  UNL1        0.0031
     38 C           7.2280   74.5545   28.6834 C.ar    1  UNL1        0.0002
     39 C           7.2766   75.6007   27.7309 C.ar    1  UNL1        0.0028
     40 C           8.4863   76.2701   27.5467 C.ar    1  UNL1        0.0337
     41 C           5.9631   73.8127   28.9175 C.ar    1  UNL1        0.0000
     42 C           5.6229   72.7068   28.1152 C.ar    1  UNL1        0.0000
     43 C           4.4306   72.0109   28.3373 C.ar    1  UNL1        0.0000
     44 C           3.5666   72.4088   29.3599 C.ar    1  UNL1        0.0000
     45 C           3.8929   73.5039   30.1627 C.ar    1  UNL1        0.0000
     46 C           5.0833   74.2042   29.9447 C.ar    1  UNL1        0.0000
@<TRIPOS>BOND
     1    31    32    1
     2    32    33   ar
     3    33    27    1
     4    27    28    2
     5    27    29   am
     6    29     1    1
     7     1     2   ar
     8     2     3   ar
     9     3     4   ar
    10     4     9    1
    11     9    10    1
    12    10    11    1
    13    11    12    1
    14    12    15    1
    15    15    16    1
    16    16    17    1
    17    17    18   ar
    18    18    19   ar
    19    19    20   ar
    20    20    21   ar
    21    21    23    1
    22    23    24    2
    23    23    25    1
    24    21    22   ar
    25    12    13    1
    26    13    14    1
    27     4     5   ar
    28     5     6   ar
    29     6     7    1
    30    33    34   ar
    31    34    35   ar
    32    35    36   ar
    33    36    37   ar
    34    37    38   ar
    35    38    41    1
    36    41    42   ar
    37    42    43   ar
    38    43    44   ar
    39    44    45   ar
    40    45    46   ar
    41    38    39   ar
    42    39    40   ar
    43    40    32   ar
    44     6     1   ar
    45    40    35   ar
    46    14     9    1
    47    46    41   ar
    48    22    17   ar
    49    29    30    1
    50    25    26    1
    51     7     8    1
@<TRIPOS>MOLECULE
*****
 46 51 0 0 0
SMALL
GASTEIGER

@<TRIPOS>ATOM
      1 C          11.6254   80.9770   24.2883 C.ar    1  UNL1        0.0756
      2 C          10.2397   81.1775   24.2031 C.ar    1  UNL1        0.1154
      3 N           9.3810   80.1660   24.4937 N.ar    1  UNL1       -0.2278
      4 C           9.8088   78.9322   24.8813 C.ar    1  UNL1        0.1323
      5 C          11.1899   78.6958   24.9922 C.ar    1  UNL1        0.0414
      6 C          12.0970   79.7197   24.7038 C.ar    1  UNL1        0.0393
      7 S          13.8552   79.3828   24.8361 S.3     1  UNL1       -0.1401
      8 H          13.8888   79.8015   26.1794 H       1  UNL1        0.1072
      9 N           8.8424   77.8975   25.1728 N.pl3   1  UNL1       -0.2932
     10 C           8.3380   77.7127   26.5446 C.3     1  UNL1        0.0923
     11 C           7.0377   76.9026   26.5601 C.3     1  UNL1        0.0252
     12 C           7.2089   75.5499   25.8380 C.3     1  UNL1        0.0472
     13 C           8.0170   75.6692   24.5139 C.3     1  UNL1        0.0252
     14 C           8.2507   77.1188   24.0735 C.3     1  UNL1        0.0923
     15 C           5.8289   74.9028   25.6031 C.3     1  UNL1        0.2054
     16 O           5.2066   75.4243   24.4272 O.3     1  UNL1       -0.4755
     17 C           4.2024   76.4064   24.3985 C.ar    1  UNL1        0.1388
     18 C           3.4756   76.6357   25.5711 C.ar    1  UNL1        0.0369
     19 C           2.4614   77.5935   25.6007 C.ar    1  UNL1        0.0033
     20 C           2.1652   78.3374   24.4573 C.ar    1  UNL1        0.0066
     21 C           2.8865   78.1333   23.2682 C.ar    1  UNL1        0.0785
     22 C           3.8970   77.1537   23.2424 C.ar    1  UNL1        0.0433
     23 C           2.5614   78.9302   22.0603 C.2     1  UNL1        0.3381
     24 O           3.4917   79.3910   21.3464 O.2     1  UNL1       -0.2451
     25 O           1.2435   79.1744   21.6748 O.3     1  UNL1       -0.4771
     26 H           0.4520   78.7466   22.1378 H       1  UNL1        0.2954
     27 C          12.8939   83.0564   24.9849 C.2     1  UNL1        0.2840
     28 O          12.4633   82.9827   26.1668 O.2     1  UNL1       -0.2665
     29 N          12.5438   82.0497   24.0199 N.am    1  UNL1       -0.2763
     30 H          12.9593   82.1012   23.0647 H       1  UNL1        0.1553
     31 C          15.0177   83.1985   22.5475 C.3     1  UNL1        0.0345
     32 C          14.7139   84.2342   23.5872 C.ar    1  UNL1        0.0202
     33 C          13.7802   84.1779   24.6295 C.ar    1  UNL1        0.1946
     34 O          13.7701   85.3229   25.2893 O.2     1  UNL1       -0.4492
     35 C          14.6660   86.1095   24.7444 C.ar    1  UNL1        0.1452
     36 C          14.9949   87.4064   25.1230 C.ar    1  UNL1        0.0375
     37 C          15.9929   88.0742   24.3916 C.ar    1  UNL1        0.0031
     38 C          16.6432   87.4397   23.2984 C.ar    1  UNL1        0.0002
     39 C          16.2771   86.1184   22.9460 C.ar    1  UNL1        0.0028
     40 C          15.2845   85.4864   23.6950 C.ar    1  UNL1        0.0337
     41 C          17.6958   88.1547   22.5330 C.ar    1  UNL1        0.0000
     42 C          17.4390   88.6261   21.2314 C.ar    1  UNL1        0.0000
     43 C          18.4326   89.2981   20.5127 C.ar    1  UNL1        0.0000
     44 C          19.6901   89.5076   21.0830 C.ar    1  UNL1        0.0000
     45 C          19.9571   89.0452   22.3734 C.ar    1  UNL1        0.0000
     46 C          18.9678   88.3717   23.0965 C.ar    1  UNL1        0.0000
@<TRIPOS>BOND
     1    31    32    1
     2    32    33   ar
     3    33    27    1
     4    27    28    2
     5    27    29   am
     6    29     1    1
     7     1     2   ar
     8     2     3   ar
     9     3     4   ar
    10     4     9    1
    11     9    10    1
    12    10    11    1
    13    11    12    1
    14    12    15    1
    15    15    16    1
    16    16    17    1
    17    17    18   ar
    18    18    19   ar
    19    19    20   ar
    20    20    21   ar
    21    21    23    1
    22    23    24    2
    23    23    25    1
    24    21    22   ar
    25    12    13    1
    26    13    14    1
    27     4     5   ar
    28     5     6   ar
    29     6     7    1
    30    33    34   ar
    31    34    35   ar
    32    35    36   ar
    33    36    37   ar
    34    37    38   ar
    35    38    41    1
    36    41    42   ar
    37    42    43   ar
    38    43    44   ar
    39    44    45   ar
    40    45    46   ar
    41    38    39   ar
    42    39    40   ar
    43    40    32   ar
    44     6     1   ar
    45    40    35   ar
    46    14     9    1
    47    46    41   ar
    48    22    17   ar
    49    29    30    1
    50    25    26    1
    51     7     8    1
@<TRIPOS>MOLECULE
*****
 46 51 0 0 0
SMALL
GASTEIGER

@<TRIPOS>ATOM
      1 C          11.5422   80.8909   24.3784 C.ar    1  UNL1        0.0756
      2 C          10.1467   81.0331   24.3843 C.ar    1  UNL1        0.1154
      3 N           9.3530   79.9949   24.7545 N.ar    1  UNL1       -0.2278
      4 C           9.8575   78.7890   25.1377 C.ar    1  UNL1        0.1323
      5 C          11.2517   78.6115   25.1585 C.ar    1  UNL1        0.0414
      6 C          12.0933   79.6640   24.7870 C.ar    1  UNL1        0.0393
      7 S          13.8691   79.4019   24.8053 S.3     1  UNL1       -0.1401
      8 H          13.9759   79.8536   26.1340 H       1  UNL1        0.1072
      9 N           8.9574   77.7233   25.5166 N.pl3   1  UNL1       -0.2932
     10 C           7.6042   78.0303   26.0119 C.3     1  UNL1        0.0923
     11 C           6.6855   76.8070   25.9294 C.3     1  UNL1        0.0252
     12 C           7.2926   75.5964   26.6686 C.3     1  UNL1        0.0472
     13 C           8.8155   75.4255   26.4002 C.3     1  UNL1        0.0252
     14 C           9.3380   76.3232   25.2728 C.3     1  UNL1        0.0923
     15 C           6.5076   74.3176   26.3129 C.3     1  UNL1        0.2054
     16 O           5.8609   74.4437   25.0448 O.3     1  UNL1       -0.4755
     17 C           6.3872   74.0248   23.8114 C.ar    1  UNL1        0.1388
     18 C           7.6640   73.4542   23.8030 C.ar    1  UNL1        0.0369
     19 C           8.2414   73.0261   22.6070 C.ar    1  UNL1        0.0033
     20 C           7.5451   73.1597   21.4045 C.ar    1  UNL1        0.0066
     21 C           6.2567   73.7213   21.3860 C.ar    1  UNL1        0.0785
     22 C           5.6884   74.1656   22.5948 C.ar    1  UNL1        0.0433
     23 C           5.5280   73.8578   20.1015 C.2     1  UNL1        0.3381
     24 O           4.2790   74.0235   20.1058 O.2     1  UNL1       -0.2451
     25 O           6.1907   73.8257   18.8747 O.3     1  UNL1       -0.4771
     26 H           7.1996   73.8041   18.8006 H       1  UNL1        0.2954
     27 C          12.9314   82.9216   24.9827 C.2     1  UNL1        0.2840
     28 O          12.7409   82.7459   26.2158 O.2     1  UNL1       -0.2665
     29 N          12.3944   81.9932   24.0250 N.am    1  UNL1       -0.2763
     30 H          12.6145   82.1280   23.0145 H       1  UNL1        0.1553
     31 C          15.3827   82.9502   22.8704 C.3     1  UNL1        0.0345
     32 C          14.8090   84.0905   23.6556 C.ar    1  UNL1        0.0202
     33 C          13.7353   84.0793   24.5546 C.ar    1  UNL1        0.1946
     34 O          13.4975   85.3042   24.9898 O.2     1  UNL1       -0.4492
     35 C          14.3769   86.1049   24.4389 C.ar    1  UNL1        0.1452
     36 C          14.4996   87.4783   24.6187 C.ar    1  UNL1        0.0375
     37 C          15.5213   88.1465   23.9212 C.ar    1  UNL1        0.0031
     38 C          16.3999   87.4362   23.0586 C.ar    1  UNL1        0.0002
     39 C          16.2393   86.0382   22.9035 C.ar    1  UNL1        0.0028
     40 C          15.2162   85.4087   23.6125 C.ar    1  UNL1        0.0337
     41 C          17.4755   88.1523   22.3268 C.ar    1  UNL1        0.0000
     42 C          17.2243   88.7247   21.0653 C.ar    1  UNL1        0.0000
     43 C          18.2395   89.3975   20.3781 C.ar    1  UNL1        0.0000
     44 C          19.5132   89.5072   20.9404 C.ar    1  UNL1        0.0000
     45 C          19.7748   88.9439   22.1912 C.ar    1  UNL1        0.0000
     46 C          18.7639   88.2692   22.8826 C.ar    1  UNL1        0.0000
@<TRIPOS>BOND
     1    31    32    1
     2    32    33   ar
     3    33    27    1
     4    27    28    2
     5    27    29   am
     6    29     1    1
     7     1     2   ar
     8     2     3   ar
     9     3     4   ar
    10     4     9    1
    11     9    10    1
    12    10    11    1
    13    11    12    1
    14    12    15    1
    15    15    16    1
    16    16    17    1
    17    17    18   ar
    18    18    19   ar
    19    19    20   ar
    20    20    21   ar
    21    21    23    1
    22    23    24    2
    23    23    25    1
    24    21    22   ar
    25    12    13    1
    26    13    14    1
    27     4     5   ar
    28     5     6   ar
    29     6     7    1
    30    33    34   ar
    31    34    35   ar
    32    35    36   ar
    33    36    37   ar
    34    37    38   ar
    35    38    41    1
    36    41    42   ar
    37    42    43   ar
    38    43    44   ar
    39    44    45   ar
    40    45    46   ar
    41    38    39   ar
    42    39    40   ar
    43    40    32   ar
    44     6     1   ar
    45    40    35   ar
    46    14     9    1
    47    46    41   ar
    48    22    17   ar
    49    29    30    1
    50    25    26    1
    51     7     8    1
@<TRIPOS>MOLECULE
*****
 46 51 0 0 0
SMALL
GASTEIGER

@<TRIPOS>ATOM
      1 C          10.0700   80.0478   23.8442 C.ar    1  UNL1        0.0756
      2 C           9.7838   79.5997   22.5462 C.ar    1  UNL1        0.1154
      3 N           9.0710   78.4593   22.3558 N.ar    1  UNL1       -0.2278
      4 C           8.6003   77.7096   23.3911 C.ar    1  UNL1        0.1323
      5 C           8.8543   78.1330   24.7071 C.ar    1  UNL1        0.0414
      6 C           9.5815   79.3054   24.9333 C.ar    1  UNL1        0.0393
      7 S           9.9065   79.8112   26.6247 S.3     1  UNL1       -0.1401
      8 H           8.7349   80.5896   26.6736 H       1  UNL1        0.1072
      9 N           7.8509   76.5035   23.1201 N.pl3   1  UNL1       -0.2932
     10 C           6.9918   75.9096   24.1592 C.3     1  UNL1        0.0923
     11 C           5.9721   74.9379   23.5564 C.3     1  UNL1        0.0252
     12 C           6.6643   73.8491   22.7102 C.3     1  UNL1        0.0472
     13 C           7.8026   74.4135   21.8124 C.3     1  UNL1        0.0252
     14 C           7.8311   75.9452   21.7590 C.3     1  UNL1        0.0923
     15 C           5.6140   73.0842   21.8795 C.3     1  UNL1        0.2054
     16 O           5.5503   73.5822   20.5416 O.3     1  UNL1       -0.4755
     17 C           4.5823   74.4698   20.0429 C.ar    1  UNL1        0.1388
     18 C           3.2634   74.3163   20.4822 C.ar    1  UNL1        0.0369
     19 C           2.2577   75.1637   20.0159 C.ar    1  UNL1        0.0033
     20 C           2.5610   76.1789   19.1072 C.ar    1  UNL1        0.0066
     21 C           3.8799   76.3609   18.6565 C.ar    1  UNL1        0.0785
     22 C           4.8854   75.4913   19.1193 C.ar    1  UNL1        0.0433
     23 C           4.1885   77.4433   17.6906 C.2     1  UNL1        0.3381
     24 O           3.9830   78.6443   18.0110 O.2     1  UNL1       -0.2451
     25 O           4.7213   77.1726   16.4305 O.3     1  UNL1       -0.4771
     26 H           5.0109   76.2449   16.1490 H       1  UNL1        0.2954
     27 C          12.1871   81.3240   24.3989 C.2     1  UNL1        0.2840
     28 O          12.8730   80.2675   24.4345 O.2     1  UNL1       -0.2665
     29 N          10.7909   81.2727   24.0595 N.am    1  UNL1       -0.2763
     30 H          10.2585   82.1659   23.9799 H       1  UNL1        0.1553
     31 C          13.2310   82.4082   27.2635 C.3     1  UNL1        0.0345
     32 C          13.2906   83.0844   25.9274 C.ar    1  UNL1        0.0202
     33 C          12.8557   82.6048   24.6855 C.ar    1  UNL1        0.1946
     34 O          13.1469   83.4776   23.7369 O.2     1  UNL1       -0.4492
     35 C          13.7256   84.5088   24.3025 C.ar    1  UNL1        0.1452
     36 C          14.1930   85.6619   23.6818 C.ar    1  UNL1        0.0375
     37 C          14.7883   86.6494   24.4863 C.ar    1  UNL1        0.0031
     38 C          14.9075   86.4704   25.8914 C.ar    1  UNL1        0.0002
     39 C          14.4190   85.2806   26.4828 C.ar    1  UNL1        0.0028
     40 C          13.8329   84.3239   25.6539 C.ar    1  UNL1        0.0337
     41 C          15.5382   87.5201   26.7314 C.ar    1  UNL1        0.0000
     42 C          16.6307   88.2642   26.2467 C.ar    1  UNL1        0.0000
     43 C          17.2232   89.2513   27.0404 C.ar    1  UNL1        0.0000
     44 C          16.7333   89.5072   28.3231 C.ar    1  UNL1        0.0000
     45 C          15.6500   88.7761   28.8151 C.ar    1  UNL1        0.0000
     46 C          15.0542   87.7872   28.0264 C.ar    1  UNL1        0.0000
@<TRIPOS>BOND
     1    31    32    1
     2    32    33   ar
     3    33    27    1
     4    27    28    2
     5    27    29   am
     6    29     1    1
     7     1     2   ar
     8     2     3   ar
     9     3     4   ar
    10     4     9    1
    11     9    10    1
    12    10    11    1
    13    11    12    1
    14    12    15    1
    15    15    16    1
    16    16    17    1
    17    17    18   ar
    18    18    19   ar
    19    19    20   ar
    20    20    21   ar
    21    21    23    1
    22    23    24    2
    23    23    25    1
    24    21    22   ar
    25    12    13    1
    26    13    14    1
    27     4     5   ar
    28     5     6   ar
    29     6     7    1
    30    33    34   ar
    31    34    35   ar
    32    35    36   ar
    33    36    37   ar
    34    37    38   ar
    35    38    41    1
    36    41    42   ar
    37    42    43   ar
    38    43    44   ar
    39    44    45   ar
    40    45    46   ar
    41    38    39   ar
    42    39    40   ar
    43    40    32   ar
    44     6     1   ar
    45    40    35   ar
    46    14     9    1
    47    46    41   ar
    48    22    17   ar
    49    29    30    1
    50    25    26    1
    51     7     8    1
@<TRIPOS>MOLECULE
*****
 46 51 0 0 0
SMALL
GASTEIGER

@<TRIPOS>ATOM
      1 C          11.3282   80.6375   24.2190 C.ar    1  UNL1        0.0756
      2 C           9.9280   80.7045   24.1680 C.ar    1  UNL1        0.1154
      3 N           9.1759   79.6398   24.5496 N.ar    1  UNL1       -0.2278
      4 C           9.7276   78.4780   24.9985 C.ar    1  UNL1        0.1323
      5 C          11.1272   78.3766   25.0774 C.ar    1  UNL1        0.0414
      6 C          11.9264   79.4582   24.6957 C.ar    1  UNL1        0.0393
      7 S          13.7115   79.2928   24.7895 S.3     1  UNL1       -0.1401
      8 H          13.7430   79.7991   26.1023 H       1  UNL1        0.1072
      9 N           8.8704   77.3804   25.3859 N.pl3   1  UNL1       -0.2932
     10 C           9.2899   75.9877   25.1518 C.3     1  UNL1        0.0923
     11 C           8.4842   75.0071   26.0101 C.3     1  UNL1        0.0252
     12 C           6.9671   75.1812   25.7894 C.3     1  UNL1        0.0472
     13 C           6.5326   76.6736   25.7257 C.3     1  UNL1        0.0252
     14 C           7.6395   77.6470   26.1465 C.3     1  UNL1        0.0923
     15 C           6.1878   74.4099   26.8738 C.3     1  UNL1        0.2054
     16 O           6.9174   74.3651   28.1017 O.3     1  UNL1       -0.4755
     17 C           6.7621   75.2522   29.1800 C.ar    1  UNL1        0.1388
     18 C           5.7077   75.0244   30.0700 C.ar    1  UNL1        0.0369
     19 C           5.4995   75.8762   31.1553 C.ar    1  UNL1        0.0033
     20 C           6.3479   76.9645   31.3659 C.ar    1  UNL1        0.0066
     21 C           7.4208   77.2109   30.4918 C.ar    1  UNL1        0.0785
     22 C           7.6137   76.3562   29.3901 C.ar    1  UNL1        0.0433
     23 C           8.3144   78.3710   30.7268 C.2     1  UNL1        0.3381
     24 O           7.8943   79.3607   31.3836 O.2     1  UNL1       -0.2451
     25 O           9.6261   78.3948   30.2536 O.3     1  UNL1       -0.4771
     26 H          10.0617   77.5941   29.8144 H       1  UNL1        0.2954
     27 C          12.7026   82.6823   24.8088 C.2     1  UNL1        0.2840
     28 O          12.5845   82.4657   26.0446 O.2     1  UNL1       -0.2665
     29 N          12.1346   81.7699   23.8538 N.am    1  UNL1       -0.2763
     30 H          12.2955   81.9397   22.8374 H       1  UNL1        0.1553
     31 C          15.4993   82.7618   23.1828 C.3     1  UNL1        0.0345
     32 C          14.6756   83.9078   23.6870 C.ar    1  UNL1        0.0202
     33 C          13.4555   83.8711   24.3735 C.ar    1  UNL1        0.1946
     34 O          13.0187   85.1004   24.5846 O.2     1  UNL1       -0.4492
     35 C          13.9041   85.9323   24.0926 C.ar    1  UNL1        0.1452
     36 C          13.8537   87.3218   24.0983 C.ar    1  UNL1        0.0375
     37 C          14.9194   88.0232   23.5073 C.ar    1  UNL1        0.0031
     38 C          16.0132   87.3293   22.9221 C.ar    1  UNL1        0.0002
     39 C          16.0243   85.9138   22.9372 C.ar    1  UNL1        0.0028
     40 C          14.9512   85.2516   23.5337 C.ar    1  UNL1        0.0337
     41 C          17.1333   88.0805   22.3007 C.ar    1  UNL1        0.0000
     42 C          18.3630   88.2177   22.9725 C.ar    1  UNL1        0.0000
     43 C          19.4156   88.9266   22.3854 C.ar    1  UNL1        0.0000
     44 C          19.2542   89.5045   21.1242 C.ar    1  UNL1        0.0000
     45 C          18.0395   89.3752   20.4475 C.ar    1  UNL1        0.0000
     46 C          16.9831   88.6684   21.0301 C.ar    1  UNL1        0.0000
@<TRIPOS>BOND
     1    31    32    1
     2    32    33   ar
     3    33    27    1
     4    27    28    2
     5    27    29   am
     6    29     1    1
     7     1     2   ar
     8     2     3   ar
     9     3     4   ar
    10     4     9    1
    11     9    10    1
    12    10    11    1
    13    11    12    1
    14    12    15    1
    15    15    16    1
    16    16    17    1
    17    17    18   ar
    18    18    19   ar
    19    19    20   ar
    20    20    21   ar
    21    21    23    1
    22    23    24    2
    23    23    25    1
    24    21    22   ar
    25    12    13    1
    26    13    14    1
    27     4     5   ar
    28     5     6   ar
    29     6     7    1
    30    33    34   ar
    31    34    35   ar
    32    35    36   ar
    33    36    37   ar
    34    37    38   ar
    35    38    41    1
    36    41    42   ar
    37    42    43   ar
    38    43    44   ar
    39    44    45   ar
    40    45    46   ar
    41    38    39   ar
    42    39    40   ar
    43    40    32   ar
    44     6     1   ar
    45    40    35   ar
    46    14     9    1
    47    46    41   ar
    48    22    17   ar
    49    29    30    1
    50    25    26    1
    51     7     8    1
@<TRIPOS>MOLECULE
*****
 46 51 0 0 0
SMALL
GASTEIGER

@<TRIPOS>ATOM
      1 C          12.5999   82.6355   25.5468 C.ar    1  UNL1        0.0756
      2 C          12.5170   82.7745   24.1534 C.ar    1  UNL1        0.1154
      3 N          13.2267   83.7422   23.5172 N.ar    1  UNL1       -0.2278
      4 C          14.0440   84.6061   24.1815 C.ar    1  UNL1        0.1323
      5 C          14.1649   84.4899   25.5770 C.ar    1  UNL1        0.0414
      6 C          13.4497   83.5004   26.2579 C.ar    1  UNL1        0.0393
      7 S          13.6095   83.3882   28.0424 S.3     1  UNL1       -0.1401
      8 H          14.6768   82.4761   27.9431 H       1  UNL1        0.1072
      9 N          14.7694   85.6164   23.4447 N.pl3   1  UNL1       -0.2932
     10 C          15.5107   85.2602   22.2223 C.3     1  UNL1        0.0923
     11 C          15.8191   86.4972   21.3726 C.3     1  UNL1        0.0252
     12 C          16.5680   87.5696   22.1909 C.3     1  UNL1        0.0472
     13 C          15.9865   87.7536   23.6222 C.3     1  UNL1        0.0252
     14 C          14.6513   87.0306   23.8329 C.3     1  UNL1        0.0923
     15 C          16.5909   88.9011   21.4133 C.3     1  UNL1        0.2054
     16 O          15.2972   89.5075   21.3880 O.3     1  UNL1       -0.4755
     17 C          14.2652   89.1991   20.4859 C.ar    1  UNL1        0.1388
     18 C          13.0016   88.9076   21.0097 C.ar    1  UNL1        0.0369
     19 C          11.9399   88.5871   20.1630 C.ar    1  UNL1        0.0033
     20 C          12.1290   88.5592   18.7802 C.ar    1  UNL1        0.0066
     21 C          13.3865   88.8571   18.2271 C.ar    1  UNL1        0.0785
     22 C          14.4562   89.1633   19.0894 C.ar    1  UNL1        0.0433
     23 C          13.5739   88.8234   16.7562 C.2     1  UNL1        0.3381
     24 O          12.5678   88.8136   15.9980 O.2     1  UNL1       -0.2451
     25 O          14.8430   88.8197   16.1779 O.3     1  UNL1       -0.4771
     26 H          15.6894   88.9349   16.7203 H       1  UNL1        0.2954
     27 C          10.6748   80.9982   25.7239 C.2     1  UNL1        0.2840
     28 O          10.2333   81.3188   24.5881 O.2     1  UNL1       -0.2665
     29 N          11.8834   81.5920   26.2278 N.am    1  UNL1       -0.2763
     30 H          12.2597   81.2677   27.1449 H       1  UNL1        0.1553
     31 C           8.8671   78.5647   24.5918 C.3     1  UNL1        0.0345
     32 C           9.1409   78.9450   26.0152 C.ar    1  UNL1        0.0202
     33 C           9.9396   79.9870   26.5029 C.ar    1  UNL1        0.1946
     34 O           9.9765   79.9481   27.8233 O.2     1  UNL1       -0.4492
     35 C           9.2235   78.9504   28.2178 C.ar    1  UNL1        0.1452
     36 C           8.9709   78.5466   29.5242 C.ar    1  UNL1        0.0375
     37 C           8.1279   77.4388   29.7212 C.ar    1  UNL1        0.0031
     38 C           7.5534   76.7544   28.6156 C.ar    1  UNL1        0.0002
     39 C           7.8375   77.1983   27.3017 C.ar    1  UNL1        0.0028
     40 C           8.6765   78.3015   27.1446 C.ar    1  UNL1        0.0337
     41 C           6.6644   75.5855   28.8355 C.ar    1  UNL1        0.0000
     42 C           6.5513   74.5783   27.8582 C.ar    1  UNL1        0.0000
     43 C           5.7125   73.4793   28.0676 C.ar    1  UNL1        0.0000
     44 C           4.9793   73.3724   29.2515 C.ar    1  UNL1        0.0000
     45 C           5.0831   74.3647   30.2287 C.ar    1  UNL1        0.0000
     46 C           5.9195   75.4664   30.0244 C.ar    1  UNL1        0.0000
@<TRIPOS>BOND
     1    31    32    1
     2    32    33   ar
     3    33    27    1
     4    27    28    2
     5    27    29   am
     6    29     1    1
     7     1     2   ar
     8     2     3   ar
     9     3     4   ar
    10     4     9    1
    11     9    10    1
    12    10    11    1
    13    11    12    1
    14    12    15    1
    15    15    16    1
    16    16    17    1
    17    17    18   ar
    18    18    19   ar
    19    19    20   ar
    20    20    21   ar
    21    21    23    1
    22    23    24    2
    23    23    25    1
    24    21    22   ar
    25    12    13    1
    26    13    14    1
    27     4     5   ar
    28     5     6   ar
    29     6     7    1
    30    33    34   ar
    31    34    35   ar
    32    35    36   ar
    33    36    37   ar
    34    37    38   ar
    35    38    41    1
    36    41    42   ar
    37    42    43   ar
    38    43    44   ar
    39    44    45   ar
    40    45    46   ar
    41    38    39   ar
    42    39    40   ar
    43    40    32   ar
    44     6     1   ar
    45    40    35   ar
    46    14     9    1
    47    46    41   ar
    48    22    17   ar
    49    29    30    1
    50    25    26    1
    51     7     8    1
