@<TRIPOS>MOLECULE
*****
 29 32 0 0 0
SMALL
GASTEIGER

@<TRIPOS>ATOM
      1 N         -23.6470  -10.0530  -12.5656 N.ar    1  UNL1       -0.3246
      2 C         -22.4801  -10.5182  -12.0454 C.ar    1  UNL1        0.0600
      3 C         -21.6306   -9.8924  -11.1250 C.ar    1  UNL1        0.0177
      4 C         -20.4940  -10.5952  -10.6861 C.ar    1  UNL1        0.0082
      5 C         -20.2244  -11.8972  -11.1621 C.ar    1  UNL1        0.0347
      6 BR        -18.6932  -12.8429  -10.5260 Br      1  UNL1       -0.0490
      7 C         -21.0834  -12.5064  -12.0933 C.ar    1  UNL1        0.0082
      8 C         -22.1978  -11.7859  -12.5172 C.ar    1  UNL1        0.0177
      9 C         -23.2192  -12.1178  -13.3765 C.ar    1  UNL1        0.0177
     10 C         -23.4656  -13.2761  -14.1107 C.ar    1  UNL1        0.0082
     11 C         -24.6361  -13.3217  -14.8892 C.ar    1  UNL1        0.0347
     12 BR        -25.0302  -14.8816  -15.9170 Br      1  UNL1       -0.0490
     13 C         -25.5233  -12.2223  -14.9115 C.ar    1  UNL1        0.0082
     14 C         -25.2525  -11.0677  -14.1551 C.ar    1  UNL1        0.0177
     15 C         -24.0832  -11.0409  -13.3890 C.ar    1  UNL1        0.0600
     16 C         -24.3532   -8.8115  -12.2258 C.3     1  UNL1        0.1365
     17 O         -24.3682   -6.4192  -12.4178 O.3     1  UNL1       -0.3811
     18 C         -23.6692   -7.5645  -12.8346 C.3     1  UNL1        0.1486
     19 H         -24.1217   -6.2580  -11.4692 H       1  UNL1        0.2105
     20 C         -23.6350   -7.5888  -14.3803 C.3     1  UNL1        0.1001
     21 N         -22.2500   -7.6617  -14.8740 N.3     1  UNL1       -0.2965
     22 H         -21.6587   -8.2073  -14.2101 H       1  UNL1        0.1233
     23 C         -22.1561   -8.2725  -16.2132 C.3     1  UNL1        0.0542
     24 C         -20.9123   -9.1947  -16.2615 C.3     1  UNL1        0.0185
     25 C         -21.2583  -10.6363  -15.8673 C.3     1  UNL1        0.0366
     26 C         -22.2921  -11.2627  -16.8291 C.3     1  UNL1        0.1611
     27 F         -21.6367  -11.9992  -17.8016 F       1  UNL1       -0.2373
     28 C         -23.1961  -10.2182  -17.5146 C.3     1  UNL1        0.0366
     29 C         -23.4649   -9.0258  -16.5929 C.3     1  UNL1        0.0185
@<TRIPOS>BOND
     1    17    18    1
     2    18    20    1
     3    20    21    1
     4    21    23    1
     5    23    24    1
     6    24    25    1
     7    25    26    1
     8    26    27    1
     9    26    28    1
    10    28    29    1
    11    18    16    1
    12    16     1    1
    13     1     2   ar
    14     2     3   ar
    15     3     4   ar
    16     4     5   ar
    17     5     6    1
    18     5     7   ar
    19     7     8   ar
    20     8     9   ar
    21     9    10   ar
    22    10    11   ar
    23    11    12    1
    24    11    13   ar
    25    13    14   ar
    26    14    15   ar
    27    29    23    1
    28    15     1   ar
    29     8     2   ar
    30    15     9   ar
    31    17    19    1
    32    21    22    1
@<TRIPOS>MOLECULE
*****
 29 32 0 0 0
SMALL
GASTEIGER

@<TRIPOS>ATOM
      1 N         -25.0263   -9.6541  -11.1968 N.ar    1  UNL1       -0.3246
      2 C         -25.5272   -8.5414  -11.7966 C.ar    1  UNL1        0.0600
      3 C         -26.3181   -7.5334  -11.2320 C.ar    1  UNL1        0.0177
      4 C         -26.6773   -6.4401  -12.0408 C.ar    1  UNL1        0.0082
      5 C         -26.2462   -6.3654  -13.3835 C.ar    1  UNL1        0.0347
      6 BR        -26.7196   -4.8551  -14.4505 Br      1  UNL1       -0.0490
      7 C         -25.4603   -7.3915  -13.9366 C.ar    1  UNL1        0.0082
      8 C         -25.1248   -8.4664  -13.1164 C.ar    1  UNL1        0.0177
      9 C         -24.3569   -9.5828  -13.3533 C.ar    1  UNL1        0.0177
     10 C         -23.6754  -10.0073  -14.4920 C.ar    1  UNL1        0.0082
     11 C         -22.9388  -11.2025  -14.4071 C.ar    1  UNL1        0.0347
     12 BR        -21.9826  -11.8365  -15.9331 Br      1  UNL1       -0.0490
     13 C         -22.8991  -11.9337  -13.1987 C.ar    1  UNL1        0.0082
     14 C         -23.5919  -11.4780  -12.0625 C.ar    1  UNL1        0.0177
     15 C         -24.3197  -10.2887  -12.1674 C.ar    1  UNL1        0.0600
     16 C         -25.1188  -10.0334   -9.7814 C.3     1  UNL1        0.1365
     17 O         -23.8190  -10.5930   -7.8430 O.3     1  UNL1       -0.3811
     18 C         -23.7719   -9.8595   -9.0404 C.3     1  UNL1        0.1486
     19 H         -23.7164  -11.5508   -8.0851 H       1  UNL1        0.2105
     20 C         -23.4531   -8.3840   -8.7054 C.3     1  UNL1        0.1001
     21 N         -22.0141   -8.2013   -8.4543 N.3     1  UNL1       -0.2965
     22 H         -21.5341   -9.1267   -8.4175 H       1  UNL1        0.1233
     23 C         -21.3613   -7.3628   -9.4770 C.3     1  UNL1        0.0542
     24 C         -20.3056   -8.2122  -10.2279 C.3     1  UNL1        0.0185
     25 C         -20.8988   -8.8858  -11.4719 C.3     1  UNL1        0.0366
     26 C         -21.4189   -7.8502  -12.4933 C.3     1  UNL1        0.1611
     27 F         -20.4463   -7.6107  -13.4497 F       1  UNL1       -0.2373
     28 C         -21.8279   -6.5110  -11.8472 C.3     1  UNL1        0.0366
     29 C         -22.4013   -6.7237  -10.4438 C.3     1  UNL1        0.0185
@<TRIPOS>BOND
     1    17    18    1
     2    18    20    1
     3    20    21    1
     4    21    23    1
     5    23    24    1
     6    24    25    1
     7    25    26    1
     8    26    27    1
     9    26    28    1
    10    28    29    1
    11    18    16    1
    12    16     1    1
    13     1     2   ar
    14     2     3   ar
    15     3     4   ar
    16     4     5   ar
    17     5     6    1
    18     5     7   ar
    19     7     8   ar
    20     8     9   ar
    21     9    10   ar
    22    10    11   ar
    23    11    12    1
    24    11    13   ar
    25    13    14   ar
    26    14    15   ar
    27    29    23    1
    28    15     1   ar
    29     8     2   ar
    30    15     9   ar
    31    17    19    1
    32    21    22    1
@<TRIPOS>MOLECULE
*****
 29 32 0 0 0
SMALL
GASTEIGER

@<TRIPOS>ATOM
      1 N         -24.7405   -9.5878  -11.2958 N.ar    1  UNL1       -0.3246
      2 C         -24.0613  -10.2225  -12.2881 C.ar    1  UNL1        0.0600
      3 C         -23.3694  -11.4381  -12.2252 C.ar    1  UNL1        0.0177
      4 C         -22.7815  -11.9292  -13.4048 C.ar    1  UNL1        0.0082
      5 C         -22.8925  -11.2129  -14.6168 C.ar    1  UNL1        0.0347
      6 BR        -22.1141  -11.9171  -16.2111 Br      1  UNL1       -0.0490
      7 C         -23.5831   -9.9891  -14.6593 C.ar    1  UNL1        0.0082
      8 C         -24.1496   -9.5215  -13.4756 C.ar    1  UNL1        0.0177
      9 C         -24.8989   -8.3990  -13.2103 C.ar    1  UNL1        0.0177
     10 C         -25.3248   -7.3598  -14.0349 C.ar    1  UNL1        0.0082
     11 C         -26.1206   -6.3522  -13.4608 C.ar    1  UNL1        0.0347
     12 BR        -26.7365   -4.9019  -14.5389 Br      1  UNL1       -0.0490
     13 C         -26.4701   -6.4094  -12.0930 C.ar    1  UNL1        0.0082
     14 C         -26.0311   -7.4741  -11.2853 C.ar    1  UNL1        0.0177
     15 C         -25.2396   -8.4650  -11.8741 C.ar    1  UNL1        0.0600
     16 C         -24.9908  -10.0625   -9.9291 C.3     1  UNL1        0.1365
     17 O         -23.9514  -10.6840   -7.8571 O.3     1  UNL1       -0.3811
     18 C         -23.7389   -9.9384   -9.0288 C.3     1  UNL1        0.1486
     19 H         -23.8479  -11.6415   -8.0997 H       1  UNL1        0.2105
     20 C         -23.4206   -8.4773   -8.6353 C.3     1  UNL1        0.1001
     21 N         -21.9894   -8.3149   -8.3312 N.3     1  UNL1       -0.2965
     22 H         -21.5160   -9.2444   -8.3168 H       1  UNL1        0.1233
     23 C         -21.2993   -7.4401   -9.2975 C.3     1  UNL1        0.0542
     24 C         -20.2249   -8.2658  -10.0485 C.3     1  UNL1        0.0185
     25 C         -20.7818   -8.8840  -11.3372 C.3     1  UNL1        0.0366
     26 C         -21.2629   -7.8041  -12.3315 C.3     1  UNL1        0.1611
     27 F         -20.2588   -7.5328  -13.2459 F       1  UNL1       -0.2373
     28 C         -21.6847   -6.4894  -11.6445 C.3     1  UNL1        0.0366
     29 C         -22.3040   -6.7549  -10.2699 C.3     1  UNL1        0.0185
@<TRIPOS>BOND
     1    17    18    1
     2    18    20    1
     3    20    21    1
     4    21    23    1
     5    23    24    1
     6    24    25    1
     7    25    26    1
     8    26    27    1
     9    26    28    1
    10    28    29    1
    11    18    16    1
    12    16     1    1
    13     1     2   ar
    14     2     3   ar
    15     3     4   ar
    16     4     5   ar
    17     5     6    1
    18     5     7   ar
    19     7     8   ar
    20     8     9   ar
    21     9    10   ar
    22    10    11   ar
    23    11    12    1
    24    11    13   ar
    25    13    14   ar
    26    14    15   ar
    27    29    23    1
    28    15     1   ar
    29     8     2   ar
    30    15     9   ar
    31    17    19    1
    32    21    22    1
@<TRIPOS>MOLECULE
*****
 29 32 0 0 0
SMALL
GASTEIGER

@<TRIPOS>ATOM
      1 N         -24.0302  -11.1573  -12.9685 N.ar    1  UNL1       -0.3246
      2 C         -24.6216   -9.9395  -13.0944 C.ar    1  UNL1        0.0600
      3 C         -25.8839   -9.6387  -13.6203 C.ar    1  UNL1        0.0177
      4 C         -26.3098   -8.2984  -13.5990 C.ar    1  UNL1        0.0082
      5 C         -25.4837   -7.2889  -13.0578 C.ar    1  UNL1        0.0347
      6 BR        -26.0984   -5.4824  -13.0105 Br      1  UNL1       -0.0490
      7 C         -24.2152   -7.6079  -12.5425 C.ar    1  UNL1        0.0082
      8 C         -23.8146   -8.9415  -12.5824 C.ar    1  UNL1        0.0177
      9 C         -22.6696   -9.5582  -12.1346 C.ar    1  UNL1        0.0177
     10 C         -21.5344   -9.0494  -11.5070 C.ar    1  UNL1        0.0082
     11 C         -20.5274   -9.9588  -11.1367 C.ar    1  UNL1        0.0347
     12 BR        -18.9481   -9.3233  -10.2724 Br      1  UNL1       -0.0490
     13 C         -20.6798  -11.3392  -11.3966 C.ar    1  UNL1        0.0082
     14 C         -21.8396  -11.8260  -12.0262 C.ar    1  UNL1        0.0177
     15 C         -22.8285  -10.9061  -12.3881 C.ar    1  UNL1        0.0600
     16 C         -24.6042  -12.4735  -13.2749 C.3     1  UNL1        0.1365
     17 O         -26.0978  -13.6634  -14.7286 O.3     1  UNL1       -0.3811
     18 C         -25.3266  -12.4921  -14.6428 C.3     1  UNL1        0.1486
     19 H         -26.8978  -13.5268  -14.1561 H       1  UNL1        0.2105
     20 C         -24.3508  -12.4524  -15.8416 C.3     1  UNL1        0.1001
     21 N         -24.4528  -11.1715  -16.5600 N.3     1  UNL1       -0.2965
     22 H         -24.8774  -10.4451  -15.9434 H       1  UNL1        0.1233
     23 C         -23.1468  -10.6863  -17.0438 C.3     1  UNL1        0.0542
     24 C         -23.2669   -9.1835  -17.4002 C.3     1  UNL1        0.0185
     25 C         -22.9128   -8.2867  -16.2070 C.3     1  UNL1        0.0366
     26 C         -21.4559   -8.4999  -15.7401 C.3     1  UNL1        0.1611
     27 F         -20.6366   -7.5466  -16.3213 F       1  UNL1       -0.2373
     28 C         -20.9092   -9.9026  -16.0743 C.3     1  UNL1        0.0366
     29 C         -22.0148  -10.9595  -16.0100 C.3     1  UNL1        0.0185
@<TRIPOS>BOND
     1    17    18    1
     2    18    20    1
     3    20    21    1
     4    21    23    1
     5    23    24    1
     6    24    25    1
     7    25    26    1
     8    26    27    1
     9    26    28    1
    10    28    29    1
    11    18    16    1
    12    16     1    1
    13     1     2   ar
    14     2     3   ar
    15     3     4   ar
    16     4     5   ar
    17     5     6    1
    18     5     7   ar
    19     7     8   ar
    20     8     9   ar
    21     9    10   ar
    22    10    11   ar
    23    11    12    1
    24    11    13   ar
    25    13    14   ar
    26    14    15   ar
    27    29    23    1
    28    15     1   ar
    29     8     2   ar
    30    15     9   ar
    31    17    19    1
    32    21    22    1
@<TRIPOS>MOLECULE
*****
 29 32 0 0 0
SMALL
GASTEIGER

@<TRIPOS>ATOM
      1 N         -22.8646   -6.1969  -12.1393 N.ar    1  UNL1       -0.3246
      2 C         -24.1935   -6.1216  -12.4169 C.ar    1  UNL1        0.0600
      3 C         -25.1514   -5.2732  -11.8486 C.ar    1  UNL1        0.0177
      4 C         -26.4691   -5.3384  -12.3364 C.ar    1  UNL1        0.0082
      5 C         -26.8094   -6.2347  -13.3733 C.ar    1  UNL1        0.0347
      6 BR        -28.5972   -6.2806  -14.0405 Br      1  UNL1       -0.0490
      7 C         -25.8365   -7.0860  -13.9258 C.ar    1  UNL1        0.0082
      8 C         -24.5411   -7.0066  -13.4197 C.ar    1  UNL1        0.0177
      9 C         -23.3884   -7.6704  -13.7698 C.ar    1  UNL1        0.0177
     10 C         -23.1436   -8.6449  -14.7350 C.ar    1  UNL1        0.0082
     11 C         -21.8246   -9.1131  -14.8734 C.ar    1  UNL1        0.0347
     12 BR        -21.4250  -10.4475  -16.1791 Br      1  UNL1       -0.0490
     13 C         -20.7937   -8.5989  -14.0553 C.ar    1  UNL1        0.0082
     14 C         -21.0686   -7.6106  -13.0929 C.ar    1  UNL1        0.0177
     15 C         -22.3862   -7.1592  -12.9695 C.ar    1  UNL1        0.0600
     16 C         -22.0841   -5.3456  -11.2327 C.3     1  UNL1        0.1365
     17 O         -21.6408   -4.7871   -8.9412 O.3     1  UNL1       -0.3811
     18 C         -22.2609   -5.7534   -9.7509 C.3     1  UNL1        0.1486
     19 H         -22.2346   -3.9909   -8.9331 H       1  UNL1        0.2105
     20 C         -21.6494   -7.1365   -9.4282 C.3     1  UNL1        0.1001
     21 N         -22.5267   -7.9014   -8.5268 N.3     1  UNL1       -0.2965
     22 H         -23.4780   -7.4742   -8.5011 H       1  UNL1        0.1233
     23 C         -22.6477   -9.3179   -8.9193 C.3     1  UNL1        0.0542
     24 C         -24.1463   -9.6650   -9.1026 C.3     1  UNL1        0.0185
     25 C         -24.6061   -9.4506  -10.5503 C.3     1  UNL1        0.0366
     26 C         -23.8346  -10.3535  -11.5380 C.3     1  UNL1        0.1611
     27 F         -24.5666  -11.5023  -11.7876 F       1  UNL1       -0.2373
     28 C         -22.4335  -10.7514  -11.0313 C.3     1  UNL1        0.0366
     29 C         -21.8083   -9.6339  -10.1923 C.3     1  UNL1        0.0185
@<TRIPOS>BOND
     1    17    18    1
     2    18    20    1
     3    20    21    1
     4    21    23    1
     5    23    24    1
     6    24    25    1
     7    25    26    1
     8    26    27    1
     9    26    28    1
    10    28    29    1
    11    18    16    1
    12    16     1    1
    13     1     2   ar
    14     2     3   ar
    15     3     4   ar
    16     4     5   ar
    17     5     6    1
    18     5     7   ar
    19     7     8   ar
    20     8     9   ar
    21     9    10   ar
    22    10    11   ar
    23    11    12    1
    24    11    13   ar
    25    13    14   ar
    26    14    15   ar
    27    29    23    1
    28    15     1   ar
    29     8     2   ar
    30    15     9   ar
    31    17    19    1
    32    21    22    1
@<TRIPOS>MOLECULE
*****
 29 32 0 0 0
SMALL
GASTEIGER

@<TRIPOS>ATOM
      1 N         -23.8223  -10.0749  -12.5091 N.ar    1  UNL1       -0.3246
      2 C         -24.2384  -11.0830  -13.3210 C.ar    1  UNL1        0.0600
      3 C         -25.3752  -11.1259  -14.1374 C.ar    1  UNL1        0.0177
      4 C         -25.5750  -12.2649  -14.9381 C.ar    1  UNL1        0.0082
      5 C         -24.6491  -13.3311  -14.9172 C.ar    1  UNL1        0.0347
      6 BR        -24.9257  -14.8512  -16.0379 Br      1  UNL1       -0.0490
      7 C         -23.5180  -13.2749  -14.0843 C.ar    1  UNL1        0.0082
      8 C         -23.3476  -12.1391  -13.2959 C.ar    1  UNL1        0.0177
      9 C         -22.3460  -11.7828  -12.4231 C.ar    1  UNL1        0.0177
     10 C         -21.1836  -12.4456  -12.0350 C.ar    1  UNL1        0.0082
     11 C         -20.3278  -11.7920  -11.1302 C.ar    1  UNL1        0.0347
     12 BR        -18.7190  -12.6479  -10.5608 Br      1  UNL1       -0.0490
     13 C         -20.6496  -10.5050  -10.6440 C.ar    1  UNL1        0.0082
     14 C         -21.8272   -9.8566  -11.0580 C.ar    1  UNL1        0.0177
     15 C         -22.6657  -10.5234  -11.9566 C.ar    1  UNL1        0.0600
     16 C         -24.4172   -8.7420  -12.3507 C.3     1  UNL1        0.1365
     17 O         -23.9958   -6.3833  -12.4887 O.3     1  UNL1       -0.3811
     18 C         -23.5173   -7.6270  -12.9340 C.3     1  UNL1        0.1486
     19 H         -23.7241   -6.2914  -11.5377 H       1  UNL1        0.2105
     20 C         -23.4879   -7.6217  -14.4800 C.3     1  UNL1        0.1001
     21 N         -22.1091   -7.7503  -14.9797 N.3     1  UNL1       -0.2965
     22 H         -21.5294   -8.2928  -14.3030 H       1  UNL1        0.1233
     23 C         -22.0424   -8.4037  -16.3002 C.3     1  UNL1        0.0542
     24 C         -20.8451   -9.3866  -16.3173 C.3     1  UNL1        0.0185
     25 C         -21.2621  -10.7975  -15.8828 C.3     1  UNL1        0.0366
     26 C         -22.3233  -11.4004  -16.8295 C.3     1  UNL1        0.1611
     27 F         -21.7026  -12.1960  -17.7780 F       1  UNL1       -0.2373
     28 C         -23.1737  -10.3334  -17.5483 C.3     1  UNL1        0.0366
     29 C         -23.3857   -9.1029  -16.6625 C.3     1  UNL1        0.0185
@<TRIPOS>BOND
     1    17    18    1
     2    18    20    1
     3    20    21    1
     4    21    23    1
     5    23    24    1
     6    24    25    1
     7    25    26    1
     8    26    27    1
     9    26    28    1
    10    28    29    1
    11    18    16    1
    12    16     1    1
    13     1     2   ar
    14     2     3   ar
    15     3     4   ar
    16     4     5   ar
    17     5     6    1
    18     5     7   ar
    19     7     8   ar
    20     8     9   ar
    21     9    10   ar
    22    10    11   ar
    23    11    12    1
    24    11    13   ar
    25    13    14   ar
    26    14    15   ar
    27    29    23    1
    28    15     1   ar
    29     8     2   ar
    30    15     9   ar
    31    17    19    1
    32    21    22    1
@<TRIPOS>MOLECULE
*****
 29 32 0 0 0
SMALL
GASTEIGER

@<TRIPOS>ATOM
      1 N         -21.8182  -10.4581  -12.2685 N.ar    1  UNL1       -0.3246
      2 C         -20.8167  -10.9905  -11.5186 C.ar    1  UNL1        0.0600
      3 C         -20.3808  -12.3203  -11.4726 C.ar    1  UNL1        0.0177
      4 C         -19.2807  -12.6304  -10.6528 C.ar    1  UNL1        0.0082
      5 C         -18.6359  -11.6231   -9.9018 C.ar    1  UNL1        0.0347
      6 BR        -17.1244  -12.0637   -8.8225 Br      1  UNL1       -0.0490
      7 C         -19.0932  -10.2947   -9.9529 C.ar    1  UNL1        0.0082
      8 C         -20.1889  -10.0158  -10.7667 C.ar    1  UNL1        0.0177
      9 C         -20.8334   -8.8333  -11.0461 C.ar    1  UNL1        0.0177
     10 C         -20.6083   -7.5333  -10.5982 C.ar    1  UNL1        0.0082
     11 C         -21.4363   -6.5141  -11.1020 C.ar    1  UNL1        0.0347
     12 BR        -21.1771   -4.7121  -10.5273 Br      1  UNL1       -0.0490
     13 C         -22.4550   -6.8155  -12.0335 C.ar    1  UNL1        0.0082
     14 C         -22.6558   -8.1365  -12.4732 C.ar    1  UNL1        0.0177
     15 C         -21.8236   -9.1357  -11.9596 C.ar    1  UNL1        0.0600
     16 C         -22.6384  -11.1305  -13.2838 C.3     1  UNL1        0.1365
     17 O         -24.4762  -12.1352  -12.1122 O.3     1  UNL1       -0.3811
     18 C         -24.1486  -11.0605  -12.9556 C.3     1  UNL1        0.1486
     19 H         -24.1317  -11.9102  -11.2082 H       1  UNL1        0.2105
     20 C         -25.0438  -11.1280  -14.2146 C.3     1  UNL1        0.1001
     21 N         -24.2272  -11.1568  -15.4391 N.3     1  UNL1       -0.2965
     22 H         -23.2184  -11.0362  -15.2027 H       1  UNL1        0.1233
     23 C         -24.3945  -12.4068  -16.2038 C.3     1  UNL1        0.0542
     24 C         -23.0006  -12.9202  -16.6434 C.3     1  UNL1        0.0185
     25 C         -22.4005  -13.8865  -15.6141 C.3     1  UNL1        0.0366
     26 C         -23.2787  -15.1431  -15.4253 C.3     1  UNL1        0.1611
     27 F         -22.8029  -16.1680  -16.2260 F       1  UNL1       -0.2373
     28 C         -24.7662  -14.9005  -15.7518 C.3     1  UNL1        0.0366
     29 C         -25.1879  -13.4733  -15.3928 C.3     1  UNL1        0.0185
@<TRIPOS>BOND
     1    17    18    1
     2    18    20    1
     3    20    21    1
     4    21    23    1
     5    23    24    1
     6    24    25    1
     7    25    26    1
     8    26    27    1
     9    26    28    1
    10    28    29    1
    11    18    16    1
    12    16     1    1
    13     1     2   ar
    14     2     3   ar
    15     3     4   ar
    16     4     5   ar
    17     5     6    1
    18     5     7   ar
    19     7     8   ar
    20     8     9   ar
    21     9    10   ar
    22    10    11   ar
    23    11    12    1
    24    11    13   ar
    25    13    14   ar
    26    14    15   ar
    27    29    23    1
    28    15     1   ar
    29     8     2   ar
    30    15     9   ar
    31    17    19    1
    32    21    22    1
@<TRIPOS>MOLECULE
*****
 29 32 0 0 0
SMALL
GASTEIGER

@<TRIPOS>ATOM
      1 N         -21.2096  -11.2528  -12.2476 N.ar    1  UNL1       -0.3246
      2 C         -21.3878   -9.9107  -12.1228 C.ar    1  UNL1        0.0600
      3 C         -22.3185   -9.0949  -12.7775 C.ar    1  UNL1        0.0177
      4 C         -22.3528   -7.7284  -12.4459 C.ar    1  UNL1        0.0082
      5 C         -21.4723   -7.2005  -11.4761 C.ar    1  UNL1        0.0347
      6 BR        -21.5612   -5.3492  -11.0200 Br      1  UNL1       -0.0490
      7 C         -20.5377   -8.0327  -10.8356 C.ar    1  UNL1        0.0082
      8 C         -20.5196   -9.3805  -11.1876 C.ar    1  UNL1        0.0177
      9 C         -19.7603  -10.4290  -10.7229 C.ar    1  UNL1        0.0177
     10 C         -18.7557  -10.4827   -9.7589 C.ar    1  UNL1        0.0082
     11 C         -18.1808  -11.7359   -9.4809 C.ar    1  UNL1        0.0347
     12 BR        -16.8003  -11.8749   -8.1695 Br      1  UNL1       -0.0490
     13 C         -18.6218  -12.8920  -10.1630 C.ar    1  UNL1        0.0082
     14 C         -19.6426  -12.8093  -11.1272 C.ar    1  UNL1        0.0177
     15 C         -20.2003  -11.5545  -11.3906 C.ar    1  UNL1        0.0600
     16 C         -22.0079  -12.1978  -13.0384 C.3     1  UNL1        0.1365
     17 O         -21.1718  -11.4505  -15.1603 O.3     1  UNL1       -0.3811
     18 C         -21.3049  -12.5960  -14.3577 C.3     1  UNL1        0.1486
     19 H         -20.4345  -10.9091  -14.7733 H       1  UNL1        0.2105
     20 C         -22.0796  -13.6715  -15.1540 C.3     1  UNL1        0.1001
     21 N         -22.6182  -13.1128  -16.4050 N.3     1  UNL1       -0.2965
     22 H         -22.3151  -13.6914  -17.2183 H       1  UNL1        0.1233
     23 C         -24.0905  -13.0259  -16.4004 C.3     1  UNL1        0.0542
     24 C         -24.6751  -14.3844  -15.9390 C.3     1  UNL1        0.0185
     25 C         -24.8902  -14.4239  -14.4207 C.3     1  UNL1        0.0366
     26 C         -25.8939  -13.3464  -13.9541 C.3     1  UNL1        0.1611
     27 F         -27.1583  -13.9018  -13.8504 F       1  UNL1       -0.2373
     28 C         -25.9574  -12.1262  -14.8950 C.3     1  UNL1        0.0366
     29 C         -24.5922  -11.8394  -15.5256 C.3     1  UNL1        0.0185
@<TRIPOS>BOND
     1    17    18    1
     2    18    20    1
     3    20    21    1
     4    21    23    1
     5    23    24    1
     6    24    25    1
     7    25    26    1
     8    26    27    1
     9    26    28    1
    10    28    29    1
    11    18    16    1
    12    16     1    1
    13     1     2   ar
    14     2     3   ar
    15     3     4   ar
    16     4     5   ar
    17     5     6    1
    18     5     7   ar
    19     7     8   ar
    20     8     9   ar
    21     9    10   ar
    22    10    11   ar
    23    11    12    1
    24    11    13   ar
    25    13    14   ar
    26    14    15   ar
    27    29    23    1
    28    15     1   ar
    29     8     2   ar
    30    15     9   ar
    31    17    19    1
    32    21    22    1
@<TRIPOS>MOLECULE
*****
 29 32 0 0 0
SMALL
GASTEIGER

@<TRIPOS>ATOM
      1 N         -21.4311  -11.2971  -12.1786 N.ar    1  UNL1       -0.3246
      2 C         -20.3915  -11.6136  -11.3614 C.ar    1  UNL1        0.0600
      3 C         -19.8239  -12.8722  -11.1280 C.ar    1  UNL1        0.0177
      4 C         -18.7097  -12.9498  -10.2731 C.ar    1  UNL1        0.0082
      5 C         -18.1808  -11.7863   -9.6722 C.ar    1  UNL1        0.0347
      6 BR        -16.6478  -11.9140   -8.5421 Br      1  UNL1       -0.0490
      7 C         -18.7694  -10.5321   -9.9104 C.ar    1  UNL1        0.0082
      8 C         -19.8761  -10.4839  -10.7551 C.ar    1  UNL1        0.0177
      9 C         -20.6330   -9.4245  -11.1986 C.ar    1  UNL1        0.0177
     10 C         -20.5468   -8.0583  -10.9391 C.ar    1  UNL1        0.0082
     11 C         -21.4666   -7.2101  -11.5816 C.ar    1  UNL1        0.0347
     12 BR        -21.3991   -5.3281  -11.2675 Br      1  UNL1       -0.0490
     13 C         -22.4364   -7.7420  -12.4607 C.ar    1  UNL1        0.0082
     14 C         -22.4963   -9.1252  -12.7092 C.ar    1  UNL1        0.0177
     15 C         -21.5745   -9.9520  -12.0597 C.ar    1  UNL1        0.0600
     16 C         -22.1646  -12.1859  -13.0883 C.3     1  UNL1        0.1365
     17 O         -21.2435  -11.3004  -15.1199 O.3     1  UNL1       -0.3811
     18 C         -21.3676  -12.4879  -14.3794 C.3     1  UNL1        0.1486
     19 H         -20.5570  -10.7451  -14.6651 H       1  UNL1        0.2105
     20 C         -22.0417  -13.5582  -15.2688 C.3     1  UNL1        0.1001
     21 N         -22.6129  -12.9498  -16.4815 N.3     1  UNL1       -0.2965
     22 H         -22.2995  -13.4716  -17.3287 H       1  UNL1        0.1233
     23 C         -24.0871  -12.9140  -16.4585 C.3     1  UNL1        0.0542
     24 C         -24.6192  -14.3026  -16.0241 C.3     1  UNL1        0.0185
     25 C         -24.8148  -14.3861  -14.5049 C.3     1  UNL1        0.0366
     26 C         -25.8491  -13.3555  -14.0010 C.3     1  UNL1        0.1611
     27 F         -27.0924  -13.9566  -13.8968 F       1  UNL1       -0.2373
     28 C         -25.9656  -12.1159  -14.9109 C.3     1  UNL1        0.0366
     29 C         -24.6187  -11.7670  -15.5494 C.3     1  UNL1        0.0185
@<TRIPOS>BOND
     1    17    18    1
     2    18    20    1
     3    20    21    1
     4    21    23    1
     5    23    24    1
     6    24    25    1
     7    25    26    1
     8    26    27    1
     9    26    28    1
    10    28    29    1
    11    18    16    1
    12    16     1    1
    13     1     2   ar
    14     2     3   ar
    15     3     4   ar
    16     4     5   ar
    17     5     6    1
    18     5     7   ar
    19     7     8   ar
    20     8     9   ar
    21     9    10   ar
    22    10    11   ar
    23    11    12    1
    24    11    13   ar
    25    13    14   ar
    26    14    15   ar
    27    29    23    1
    28    15     1   ar
    29     8     2   ar
    30    15     9   ar
    31    17    19    1
    32    21    22    1
