@<TRIPOS>MOLECULE
*****
 48 53 0 0 0
SMALL
GASTEIGER

@<TRIPOS>ATOM
      1 O          63.9461   88.2762   15.5900 O.2     1  UNL1       -0.2701
      2 C          64.1785   87.7330   14.4753 C.2     1  UNL1        0.2483
      3 N          64.6774   88.5255   13.3853 N.am    1  UNL1       -0.2945
      4 H          65.0971   88.0310   12.5659 H       1  UNL1        0.1501
      5 C          63.9646   86.2764   14.3208 C.ar    1  UNL1        0.0808
      6 C          62.8208   85.8104   13.6514 C.ar    1  UNL1        0.0080
      7 C          62.5963   84.4401   13.4967 C.ar    1  UNL1        0.0148
      8 C          63.5196   83.5079   13.9937 C.ar    1  UNL1        0.0502
      9 C          64.6694   83.9708   14.6529 C.ar    1  UNL1        0.0443
     10 C          64.8966   85.3414   14.8118 C.ar    1  UNL1        0.1457
     11 F          66.0478   85.7464   15.4058 F       1  UNL1       -0.2040
     12 N          63.2823   82.0950   13.8449 N.pl3   1  UNL1       -0.3040
     13 C          62.7289   81.3059   14.9548 C.3     1  UNL1        0.1122
     14 C          61.4696   80.5671   14.4873 C.3     1  UNL1        0.1122
     15 N          61.6563   79.9811   13.1498 N.pl3   1  UNL1       -0.3040
     16 C          62.9830   80.0185   12.5179 C.3     1  UNL1        0.1122
     17 C          63.5287   81.4508   12.5444 C.3     1  UNL1        0.1122
     18 C          60.5210   79.4436   12.4447 C.ar    1  UNL1        0.0488
     19 C          59.8152   78.3464   12.9641 C.ar    1  UNL1        0.0154
     20 C          58.7067   77.8338   12.2852 C.ar    1  UNL1        0.0135
     21 C          58.2847   78.4124   11.0837 C.ar    1  UNL1        0.0683
     22 CL         56.8848   77.7395   10.2594 Cl      1  UNL1       -0.0814
     23 C          58.9789   79.5154   10.5598 C.ar    1  UNL1        0.0694
     24 CL         58.4753   80.2799    9.0584 Cl      1  UNL1       -0.0813
     25 C          60.0899   80.0267   11.2410 C.ar    1  UNL1        0.0268
     26 C          64.6796   89.9929   13.4282 C.3     1  UNL1        0.1535
     27 C          65.8509   90.5518   12.6541 C.2     1  UNL1        0.2443
     28 O          67.0093   90.5017   13.1514 O.2     1  UNL1       -0.2730
     29 N          65.6565   91.0114   11.3060 N.am    1  UNL1       -0.2825
     30 H          64.7277   90.8343   10.8602 H       1  UNL1        0.1549
     31 C          66.7149   91.4965   10.4651 C.ar    1  UNL1        0.0535
     32 C          67.8449   90.7122   10.1816 C.ar    1  UNL1        0.0353
     33 C          68.8592   91.2340    9.3745 C.ar    1  UNL1        0.1002
     34 N          68.7564   92.4957    8.8790 N.ar    1  UNL1       -0.2422
     35 C          67.6816   93.2823    9.1510 C.ar    1  UNL1        0.1002
     36 C          66.6462   92.8000    9.9550 C.ar    1  UNL1        0.0353
     37 C          63.3522   90.5391   12.8686 C.3     1  UNL1        0.0569
     38 C          62.9048   89.7682   11.6587 C.ar    1  UNL1       -0.0016
     39 C          63.1843   90.0790   10.3318 C.ar    1  UNL1        0.0681
     40 N          62.5028   89.2587    9.5008 N.ar    1  UNL1       -0.3519
     41 C          61.7838   88.4392   10.2902 C.ar    1  UNL1        0.0617
     42 C          60.8872   87.4414    9.8959 C.ar    1  UNL1        0.0456
     43 I          60.5204   87.0017    7.8624 I       1  UNL1       -0.0410
     44 C          60.2131   86.7294   10.9063 C.ar    1  UNL1        0.0072
     45 C          60.4384   87.0283   12.2677 C.ar    1  UNL1        0.0005
     46 C          61.3409   88.0414   12.6351 C.ar    1  UNL1        0.0012
     47 C          62.0023   88.7244   11.6150 C.ar    1  UNL1        0.0135
     48 H          62.5168   89.2856    8.4573 H       1  UNL1        0.1660
@<TRIPOS>BOND
     1     1     2    2
     2     2     3   am
     3     3    26    1
     4    26    37    1
     5    37    38    1
     6    38    39   ar
     7    39    40   ar
     8    40    41   ar
     9    41    42   ar
    10    42    43    1
    11    42    44   ar
    12    44    45   ar
    13    45    46   ar
    14    46    47   ar
    15    26    27    1
    16    27    28    2
    17    27    29   am
    18    29    31    1
    19    31    32   ar
    20    32    33   ar
    21    33    34   ar
    22    34    35   ar
    23    35    36   ar
    24     2     5    1
    25     5     6   ar
    26     6     7   ar
    27     7     8   ar
    28     8    12    1
    29    12    13    1
    30    13    14    1
    31    14    15    1
    32    15    18    1
    33    18    19   ar
    34    19    20   ar
    35    20    21   ar
    36    21    22    1
    37    21    23   ar
    38    23    24    1
    39    23    25   ar
    40    15    16    1
    41    16    17    1
    42     8     9   ar
    43     9    10   ar
    44    10    11    1
    45    47    38   ar
    46    36    31   ar
    47    10     5   ar
    48    47    41   ar
    49    17    12    1
    50    25    18   ar
    51     3     4    1
    52    40    48    1
    53    29    30    1
@<TRIPOS>MOLECULE
*****
 48 53 0 0 0
SMALL
GASTEIGER

@<TRIPOS>ATOM
      1 O          60.7853   83.8237    6.5000 O.2     1  UNL1       -0.2701
      2 C          60.8079   83.9118    7.7584 C.2     1  UNL1        0.2483
      3 N          60.4398   82.7773    8.5599 N.am    1  UNL1       -0.2945
      4 H          60.7008   82.7812    9.5718 H       1  UNL1        0.1501
      5 C          61.2483   85.1770    8.3881 C.ar    1  UNL1        0.0808
      6 C          60.2979   86.0229    8.9839 C.ar    1  UNL1        0.0080
      7 C          60.6899   87.2236    9.5810 C.ar    1  UNL1        0.0148
      8 C          62.0426   87.5950    9.6094 C.ar    1  UNL1        0.0502
      9 C          62.9960   86.7462    9.0252 C.ar    1  UNL1        0.0443
     10 C          62.6075   85.5448    8.4244 C.ar    1  UNL1        0.1457
     11 F          63.5673   84.7278    7.9210 F       1  UNL1       -0.2040
     12 N          62.4454   88.8386   10.2144 N.pl3   1  UNL1       -0.3040
     13 C          61.9275   89.2349   11.5318 C.3     1  UNL1        0.1122
     14 C          63.0954   89.5310   12.4796 C.3     1  UNL1        0.1122
     15 N          64.1498   90.3072   11.8063 N.pl3   1  UNL1       -0.3040
     16 C          63.9196   90.8221   10.4489 C.3     1  UNL1        0.1122
     17 C          63.4420   89.6853    9.5382 C.3     1  UNL1        0.1122
     18 C          65.4221   90.4905   12.4564 C.ar    1  UNL1        0.0488
     19 C          66.6125   90.4565   11.7125 C.ar    1  UNL1        0.0154
     20 C          67.8451   90.6466   12.3426 C.ar    1  UNL1        0.0135
     21 C          67.9056   90.8789   13.7205 C.ar    1  UNL1        0.0683
     22 CL         69.4754   91.1143   14.4770 Cl      1  UNL1       -0.0814
     23 C          66.7199   90.9229   14.4725 C.ar    1  UNL1        0.0694
     24 CL         66.7500   91.2234   16.2049 Cl      1  UNL1       -0.0813
     25 C          65.4862   90.7311   13.8394 C.ar    1  UNL1        0.0268
     26 C          59.7823   81.5983    7.9831 C.3     1  UNL1        0.1535
     27 C          60.2364   80.3355    8.6779 C.2     1  UNL1        0.2443
     28 O          60.6026   79.3422    7.9917 O.2     1  UNL1       -0.2730
     29 N          60.3754   80.3232   10.1087 N.am    1  UNL1       -0.2825
     30 H          60.2694   81.2309   10.6162 H       1  UNL1        0.1549
     31 C          60.8624   79.1975   10.8560 C.ar    1  UNL1        0.0535
     32 C          61.2615   78.0111   10.2192 C.ar    1  UNL1        0.0353
     33 C          61.7097   76.9347   10.9892 C.ar    1  UNL1        0.1002
     34 N          61.7465   77.0332   12.3446 N.ar    1  UNL1       -0.2422
     35 C          61.3505   78.1636   12.9874 C.ar    1  UNL1        0.1002
     36 C          60.8941   79.2623   12.2556 C.ar    1  UNL1        0.0353
     37 C          58.2519   81.7475    8.0797 C.3     1  UNL1        0.0569
     38 C          57.8594   82.7229    9.1535 C.ar    1  UNL1       -0.0016
     39 C          57.5389   84.0645    8.9733 C.ar    1  UNL1        0.0681
     40 N          57.3797   84.6769   10.1682 N.ar    1  UNL1       -0.3519
     41 C          57.6096   83.7371   11.1040 C.ar    1  UNL1        0.0617
     42 C          57.6046   83.8946   12.4933 C.ar    1  UNL1        0.0456
     43 I          57.1678   85.7464   13.4115 I       1  UNL1       -0.0410
     44 C          57.9141   82.7698   13.2816 C.ar    1  UNL1        0.0072
     45 C          58.2247   81.5325   12.6765 C.ar    1  UNL1        0.0005
     46 C          58.2285   81.4048   11.2767 C.ar    1  UNL1        0.0012
     47 C          57.9090   82.5316   10.5199 C.ar    1  UNL1        0.0135
     48 H          57.1536   85.6845   10.3209 H       1  UNL1        0.1660
@<TRIPOS>BOND
     1     1     2    2
     2     2     3   am
     3     3    26    1
     4    26    37    1
     5    37    38    1
     6    38    39   ar
     7    39    40   ar
     8    40    41   ar
     9    41    42   ar
    10    42    43    1
    11    42    44   ar
    12    44    45   ar
    13    45    46   ar
    14    46    47   ar
    15    26    27    1
    16    27    28    2
    17    27    29   am
    18    29    31    1
    19    31    32   ar
    20    32    33   ar
    21    33    34   ar
    22    34    35   ar
    23    35    36   ar
    24     2     5    1
    25     5     6   ar
    26     6     7   ar
    27     7     8   ar
    28     8    12    1
    29    12    13    1
    30    13    14    1
    31    14    15    1
    32    15    18    1
    33    18    19   ar
    34    19    20   ar
    35    20    21   ar
    36    21    22    1
    37    21    23   ar
    38    23    24    1
    39    23    25   ar
    40    15    16    1
    41    16    17    1
    42     8     9   ar
    43     9    10   ar
    44    10    11    1
    45    47    38   ar
    46    36    31   ar
    47    10     5   ar
    48    47    41   ar
    49    17    12    1
    50    25    18   ar
    51     3     4    1
    52    40    48    1
    53    29    30    1
@<TRIPOS>MOLECULE
*****
 48 53 0 0 0
SMALL
GASTEIGER

@<TRIPOS>ATOM
      1 O          59.4488   84.3571    7.5097 O.2     1  UNL1       -0.2701
      2 C          59.9127   84.4439    8.6797 C.2     1  UNL1        0.2483
      3 N          59.7995   83.3272    9.5771 N.am    1  UNL1       -0.2945
      4 H          60.3971   83.3192   10.4344 H       1  UNL1        0.1501
      5 C          60.5987   85.6878    9.0964 C.ar    1  UNL1        0.0808
      6 C          59.9480   86.5818    9.9630 C.ar    1  UNL1        0.0080
      7 C          60.5744   87.7635   10.3669 C.ar    1  UNL1        0.0148
      8 C          61.8711   88.0674    9.9257 C.ar    1  UNL1        0.0502
      9 C          62.5284   87.1703    9.0690 C.ar    1  UNL1        0.0443
     10 C          61.9040   85.9876    8.6605 C.ar    1  UNL1        0.1457
     11 F          62.5964   85.1223    7.8770 F       1  UNL1       -0.2040
     12 N          62.5124   89.2914   10.3323 N.pl3   1  UNL1       -0.3040
     13 C          62.1032   89.9794   11.5652 C.3     1  UNL1        0.1122
     14 C          63.3236   90.1939   12.4679 C.3     1  UNL1        0.1122
     15 N          64.4925   90.6419   11.6929 N.pl3   1  UNL1       -0.3040
     16 C          64.3380   90.9723   10.2690 C.3     1  UNL1        0.1122
     17 C          63.6377   89.8181    9.5428 C.3     1  UNL1        0.1122
     18 C          65.7885   90.6807   12.3204 C.ar    1  UNL1        0.0488
     19 C          66.9557   90.5500   11.5509 C.ar    1  UNL1        0.0154
     20 C          68.2125   90.6001   12.1595 C.ar    1  UNL1        0.0135
     21 C          68.3212   90.7871   13.5414 C.ar    1  UNL1        0.0683
     22 CL         69.9204   90.8455   14.2702 Cl      1  UNL1       -0.0814
     23 C          67.1599   90.9271   14.3191 C.ar    1  UNL1        0.0694
     24 CL         67.2516   91.1752   16.0576 Cl      1  UNL1       -0.0813
     25 C          65.9017   90.8755   13.7075 C.ar    1  UNL1        0.0268
     26 C          58.9325   82.1794    9.2843 C.3     1  UNL1        0.1535
     27 C          59.7506   80.9245    9.0851 C.2     1  UNL1        0.2443
     28 O          60.1127   80.5930    7.9230 O.2     1  UNL1       -0.2730
     29 N          60.2220   80.1951   10.2306 N.am    1  UNL1       -0.2825
     30 H          60.0816   80.6247   11.1732 H       1  UNL1        0.1549
     31 C          61.0599   79.0315   10.1494 C.ar    1  UNL1        0.0535
     32 C          60.7849   77.8755   10.8980 C.ar    1  UNL1        0.0353
     33 C          61.6399   76.7745   10.8020 C.ar    1  UNL1        0.1002
     34 N          62.7354   76.8288    9.9989 N.ar    1  UNL1       -0.2422
     35 C          63.0342   77.9407    9.2763 C.ar    1  UNL1        0.1002
     36 C          62.2068   79.0640    9.3448 C.ar    1  UNL1        0.0353
     37 C          57.9128   81.9845   10.4227 C.3     1  UNL1        0.0569
     38 C          58.0431   83.0549   11.4694 C.ar    1  UNL1       -0.0016
     39 C          57.2419   84.1847   11.5991 C.ar    1  UNL1        0.0681
     40 N          57.7327   85.0046   12.5556 N.ar    1  UNL1       -0.3519
     41 C          58.8456   84.4097   13.0238 C.ar    1  UNL1        0.0617
     42 C          59.7277   84.8904   13.9963 C.ar    1  UNL1        0.0456
     43 I          59.4156   86.7322   14.9827 I       1  UNL1       -0.0410
     44 C          60.8572   84.1072   14.3012 C.ar    1  UNL1        0.0072
     45 C          61.0836   82.8834   13.6344 C.ar    1  UNL1        0.0005
     46 C          60.1831   82.4276   12.6560 C.ar    1  UNL1        0.0012
     47 C          59.0677   83.2178   12.3802 C.ar    1  UNL1        0.0135
     48 H          57.3354   85.9263   12.8429 H       1  UNL1        0.1660
@<TRIPOS>BOND
     1     1     2    2
     2     2     3   am
     3     3    26    1
     4    26    37    1
     5    37    38    1
     6    38    39   ar
     7    39    40   ar
     8    40    41   ar
     9    41    42   ar
    10    42    43    1
    11    42    44   ar
    12    44    45   ar
    13    45    46   ar
    14    46    47   ar
    15    26    27    1
    16    27    28    2
    17    27    29   am
    18    29    31    1
    19    31    32   ar
    20    32    33   ar
    21    33    34   ar
    22    34    35   ar
    23    35    36   ar
    24     2     5    1
    25     5     6   ar
    26     6     7   ar
    27     7     8   ar
    28     8    12    1
    29    12    13    1
    30    13    14    1
    31    14    15    1
    32    15    18    1
    33    18    19   ar
    34    19    20   ar
    35    20    21   ar
    36    21    22    1
    37    21    23   ar
    38    23    24    1
    39    23    25   ar
    40    15    16    1
    41    16    17    1
    42     8     9   ar
    43     9    10   ar
    44    10    11    1
    45    47    38   ar
    46    36    31   ar
    47    10     5   ar
    48    47    41   ar
    49    17    12    1
    50    25    18   ar
    51     3     4    1
    52    40    48    1
    53    29    30    1
@<TRIPOS>MOLECULE
*****
 48 53 0 0 0
SMALL
GASTEIGER

@<TRIPOS>ATOM
      1 O          60.5203   82.6928   11.4186 O.2     1  UNL1       -0.2701
      2 C          61.6060   83.2774   11.1518 C.2     1  UNL1        0.2483
      3 N          62.5186   82.6924   10.2084 N.am    1  UNL1       -0.2945
      4 H          63.2756   83.2951    9.8138 H       1  UNL1        0.1501
      5 C          61.9047   84.5780   11.7926 C.ar    1  UNL1        0.0808
      6 C          61.6552   85.7699   11.0921 C.ar    1  UNL1        0.0080
      7 C          61.9326   87.0088   11.6754 C.ar    1  UNL1        0.0148
      8 C          62.4496   87.0816   12.9776 C.ar    1  UNL1        0.0502
      9 C          62.6891   85.8926   13.6845 C.ar    1  UNL1        0.0443
     10 C          62.4150   84.6505   13.1034 C.ar    1  UNL1        0.1457
     11 F          62.6089   83.5286   13.8421 F       1  UNL1       -0.2040
     12 N          62.7468   88.3583   13.5745 N.pl3   1  UNL1       -0.3040
     13 C          62.6964   88.5350   15.0330 C.3     1  UNL1        0.1122
     14 C          64.0325   89.0961   15.5331 C.3     1  UNL1        0.1122
     15 N          64.5312   90.1629   14.6495 N.pl3   1  UNL1       -0.3040
     16 C          63.6829   90.6574   13.5557 C.3     1  UNL1        0.1122
     17 C          63.1762   89.4769   12.7192 C.3     1  UNL1        0.1122
     18 C          65.8729   90.6582   14.8210 C.ar    1  UNL1        0.0488
     19 C          66.2262   91.3692   15.9792 C.ar    1  UNL1        0.0154
     20 C          67.5312   91.8385   16.1497 C.ar    1  UNL1        0.0135
     21 C          68.5012   91.5997   15.1707 C.ar    1  UNL1        0.0683
     22 CL         70.1327   92.2056   15.4220 Cl      1  UNL1       -0.0814
     23 C          68.1601   90.8825   14.0121 C.ar    1  UNL1        0.0694
     24 CL         69.3515   90.5504   12.7620 Cl      1  UNL1       -0.0813
     25 C          66.8519   90.4142   13.8428 C.ar    1  UNL1        0.0268
     26 C          62.3690   81.3103    9.7364 C.3     1  UNL1        0.1535
     27 C          61.7629   80.4377   10.8110 C.2     1  UNL1        0.2443
     28 O          62.4583   80.1014   11.8085 O.2     1  UNL1       -0.2730
     29 N          60.3640   80.1113   10.7552 N.am    1  UNL1       -0.2825
     30 H          59.7810   80.5886   10.0306 H       1  UNL1        0.1549
     31 C          59.6797   79.3467   11.7601 C.ar    1  UNL1        0.0535
     32 C          59.7026   79.7249   13.1124 C.ar    1  UNL1        0.0353
     33 C          59.0388   78.9387   14.0577 C.ar    1  UNL1        0.1002
     34 N          58.3870   77.8102   13.6706 N.ar    1  UNL1       -0.2422
     35 C          58.3628   77.4121   12.3711 C.ar    1  UNL1        0.1002
     36 C          59.0150   78.1683   11.3945 C.ar    1  UNL1        0.0353
     37 C          61.5031   81.2786    8.4626 C.3     1  UNL1        0.0569
     38 C          61.1961   82.6647    7.9695 C.ar    1  UNL1       -0.0016
     39 C          62.0967   83.5540    7.3923 C.ar    1  UNL1        0.0681
     40 N          61.5150   84.7599    7.2040 N.ar    1  UNL1       -0.3519
     41 C          60.2572   84.6455    7.6693 C.ar    1  UNL1        0.0617
     42 C          59.2744   85.6382    7.7306 C.ar    1  UNL1        0.0456
     43 I          59.6133   87.5984    7.0196 I       1  UNL1       -0.0410
     44 C          58.0322   85.2966    8.2983 C.ar    1  UNL1        0.0072
     45 C          57.8024   83.9940    8.7923 C.ar    1  UNL1        0.0005
     46 C          58.8112   83.0175    8.7236 C.ar    1  UNL1        0.0012
     47 C          60.0286   83.3795    8.1478 C.ar    1  UNL1        0.0135
     48 H          61.9704   85.6101    6.8046 H       1  UNL1        0.1660
@<TRIPOS>BOND
     1     1     2    2
     2     2     3   am
     3     3    26    1
     4    26    37    1
     5    37    38    1
     6    38    39   ar
     7    39    40   ar
     8    40    41   ar
     9    41    42   ar
    10    42    43    1
    11    42    44   ar
    12    44    45   ar
    13    45    46   ar
    14    46    47   ar
    15    26    27    1
    16    27    28    2
    17    27    29   am
    18    29    31    1
    19    31    32   ar
    20    32    33   ar
    21    33    34   ar
    22    34    35   ar
    23    35    36   ar
    24     2     5    1
    25     5     6   ar
    26     6     7   ar
    27     7     8   ar
    28     8    12    1
    29    12    13    1
    30    13    14    1
    31    14    15    1
    32    15    18    1
    33    18    19   ar
    34    19    20   ar
    35    20    21   ar
    36    21    22    1
    37    21    23   ar
    38    23    24    1
    39    23    25   ar
    40    15    16    1
    41    16    17    1
    42     8     9   ar
    43     9    10   ar
    44    10    11    1
    45    47    38   ar
    46    36    31   ar
    47    10     5   ar
    48    47    41   ar
    49    17    12    1
    50    25    18   ar
    51     3     4    1
    52    40    48    1
    53    29    30    1
@<TRIPOS>MOLECULE
*****
 48 53 0 0 0
SMALL
GASTEIGER

@<TRIPOS>ATOM
      1 O          58.1873   83.2010   13.2445 O.2     1  UNL1       -0.2701
      2 C          59.3768   83.2798   12.8314 C.2     1  UNL1        0.2483
      3 N          59.9987   82.1357   12.2238 N.am    1  UNL1       -0.2945
      4 H          60.8721   82.2838   11.6694 H       1  UNL1        0.1501
      5 C          60.1009   84.5656   12.9499 C.ar    1  UNL1        0.0808
      6 C          59.8320   85.4156   14.0355 C.ar    1  UNL1        0.0080
      7 C          60.5006   86.6355   14.1660 C.ar    1  UNL1        0.0148
      8 C          61.4640   87.0226   13.2224 C.ar    1  UNL1        0.0502
      9 C          61.7432   86.1700   12.1427 C.ar    1  UNL1        0.0443
     10 C          61.0746   84.9493   12.0072 C.ar    1  UNL1        0.1457
     11 F          61.4149   84.1306   10.9796 F       1  UNL1       -0.2040
     12 N          62.1446   88.2856   13.3502 N.pl3   1  UNL1       -0.3040
     13 C          63.0517   88.5385   14.4790 C.3     1  UNL1        0.1122
     14 C          64.4254   88.9696   13.9526 C.3     1  UNL1        0.1122
     15 N          64.2984   89.9285   12.8427 N.pl3   1  UNL1       -0.3040
     16 C          62.9747   90.4609   12.4893 C.3     1  UNL1        0.1122
     17 C          61.9855   89.3052   12.3003 C.3     1  UNL1        0.1122
     18 C          65.4620   90.2775   12.0686 C.ar    1  UNL1        0.0488
     19 C          65.3344   90.6498   10.7207 C.ar    1  UNL1        0.0154
     20 C          66.4626   90.9999    9.9745 C.ar    1  UNL1        0.0135
     21 C          67.7309   90.9889   10.5643 C.ar    1  UNL1        0.0683
     22 CL         69.1265   91.4365    9.5928 Cl      1  UNL1       -0.0814
     23 C          67.8685   90.6257   11.9143 C.ar    1  UNL1        0.0694
     24 CL         69.4426   90.6095   12.6979 Cl      1  UNL1       -0.0813
     25 C          66.7369   90.2743   12.6597 C.ar    1  UNL1        0.0268
     26 C          59.4039   80.7957   12.2996 C.3     1  UNL1        0.1535
     27 C          58.9995   80.3084   10.9274 C.2     1  UNL1        0.2443
     28 O          58.2334   79.3119   10.8193 O.2     1  UNL1       -0.2730
     29 N          59.3804   81.0637    9.7651 N.am    1  UNL1       -0.2825
     30 H          59.8286   81.9961    9.9155 H       1  UNL1        0.1549
     31 C          58.9904   80.7227    8.4256 C.ar    1  UNL1        0.0535
     32 C          57.6453   80.7524    8.0229 C.ar    1  UNL1        0.0353
     33 C          57.3111   80.3929    6.7146 C.ar    1  UNL1        0.1002
     34 N          58.2809   80.0058    5.8441 N.ar    1  UNL1       -0.2422
     35 C          59.5883   79.9522    6.2123 C.ar    1  UNL1        0.1002
     36 C          59.9652   80.3016    7.5111 C.ar    1  UNL1        0.0353
     37 C          60.3967   79.8138   12.9506 C.3     1  UNL1        0.0569
     38 C          61.6217   80.5223   13.4566 C.ar    1  UNL1       -0.0016
     39 C          61.8967   80.8534   14.7794 C.ar    1  UNL1        0.0681
     40 N          63.0121   81.6139   14.8539 N.ar    1  UNL1       -0.3519
     41 C          63.4386   81.7782   13.5879 C.ar    1  UNL1        0.0617
     42 C          64.5350   82.5241   13.1448 C.ar    1  UNL1        0.0456
     43 I          65.8083   83.5506   14.4819 I       1  UNL1       -0.0410
     44 C          64.7690   82.5849   11.7578 C.ar    1  UNL1        0.0072
     45 C          63.9131   81.9167   10.8553 C.ar    1  UNL1        0.0005
     46 C          62.8141   81.1792   11.3287 C.ar    1  UNL1        0.0012
     47 C          62.6108   81.1274   12.7073 C.ar    1  UNL1        0.0135
     48 H          63.4312   82.0128   15.7228 H       1  UNL1        0.1660
@<TRIPOS>BOND
     1     1     2    2
     2     2     3   am
     3     3    26    1
     4    26    37    1
     5    37    38    1
     6    38    39   ar
     7    39    40   ar
     8    40    41   ar
     9    41    42   ar
    10    42    43    1
    11    42    44   ar
    12    44    45   ar
    13    45    46   ar
    14    46    47   ar
    15    26    27    1
    16    27    28    2
    17    27    29   am
    18    29    31    1
    19    31    32   ar
    20    32    33   ar
    21    33    34   ar
    22    34    35   ar
    23    35    36   ar
    24     2     5    1
    25     5     6   ar
    26     6     7   ar
    27     7     8   ar
    28     8    12    1
    29    12    13    1
    30    13    14    1
    31    14    15    1
    32    15    18    1
    33    18    19   ar
    34    19    20   ar
    35    20    21   ar
    36    21    22    1
    37    21    23   ar
    38    23    24    1
    39    23    25   ar
    40    15    16    1
    41    16    17    1
    42     8     9   ar
    43     9    10   ar
    44    10    11    1
    45    47    38   ar
    46    36    31   ar
    47    10     5   ar
    48    47    41   ar
    49    17    12    1
    50    25    18   ar
    51     3     4    1
    52    40    48    1
    53    29    30    1
@<TRIPOS>MOLECULE
*****
 48 53 0 0 0
SMALL
GASTEIGER

@<TRIPOS>ATOM
      1 O          60.7482   87.0702   13.3593 O.2     1  UNL1       -0.2701
      2 C          61.2637   86.5106   12.3529 C.2     1  UNL1        0.2483
      3 N          62.2271   85.4602   12.5356 N.am    1  UNL1       -0.2945
      4 H          62.4503   84.8465   11.7198 H       1  UNL1        0.1501
      5 C          60.8384   86.9249   10.9968 C.ar    1  UNL1        0.0808
      6 C          59.9302   86.1274   10.2807 C.ar    1  UNL1        0.0080
      7 C          59.5174   86.4967    8.9981 C.ar    1  UNL1        0.0148
      8 C          59.9916   87.6799    8.4118 C.ar    1  UNL1        0.0502
      9 C          60.8902   88.4849    9.1296 C.ar    1  UNL1        0.0443
     10 C          61.3077   88.1176   10.4127 C.ar    1  UNL1        0.1457
     11 F          62.1335   88.9525   11.0930 F       1  UNL1       -0.2040
     12 N          59.5754   88.0546    7.0847 N.pl3   1  UNL1       -0.3040
     13 C          58.5639   89.1019    6.8829 C.3     1  UNL1        0.1122
     14 C          59.1189   90.1849    5.9506 C.3     1  UNL1        0.1122
     15 N          59.8467   89.5945    4.8152 N.pl3   1  UNL1       -0.3040
     16 C          59.8268   88.1382    4.6165 C.3     1  UNL1        0.1122
     17 C          60.2235   87.4327    5.9183 C.3     1  UNL1        0.1122
     18 C          60.6303   90.4434    3.9548 C.ar    1  UNL1        0.0488
     19 C          62.0135   90.2403    3.8231 C.ar    1  UNL1        0.0154
     20 C          62.7702   91.0568    2.9787 C.ar    1  UNL1        0.0135
     21 C          62.1566   92.0816    2.2509 C.ar    1  UNL1        0.0683
     22 CL         63.1426   93.0875    1.1982 Cl      1  UNL1       -0.0814
     23 C          60.7723   92.2879    2.3694 C.ar    1  UNL1        0.0694
     24 CL         59.9591   93.5573    1.4639 Cl      1  UNL1       -0.0813
     25 C          60.0161   91.4695    3.2167 C.ar    1  UNL1        0.0268
     26 C          62.8400   85.1859   13.8411 C.3     1  UNL1        0.1535
     27 C          63.2021   86.4725   14.5462 C.2     1  UNL1        0.2443
     28 O          63.3067   86.4875   15.8034 O.2     1  UNL1       -0.2730
     29 N          63.5553   87.6311   13.7721 N.am    1  UNL1       -0.2825
     30 H          63.6647   87.5121   12.7394 H       1  UNL1        0.1549
     31 C          63.9779   88.8784   14.3453 C.ar    1  UNL1        0.0535
     32 C          65.0858   89.5794   13.8417 C.ar    1  UNL1        0.0353
     33 C          65.4722   90.7793   14.4446 C.ar    1  UNL1        0.1002
     34 N          64.7871   91.2559   15.5177 N.ar    1  UNL1       -0.2422
     35 C          63.7215   90.5894   16.0355 C.ar    1  UNL1        0.1002
     36 C          63.3031   89.3855   15.4640 C.ar    1  UNL1        0.0353
     37 C          61.8823   84.3459   14.7076 C.3     1  UNL1        0.0569
     38 C          61.2859   83.2087   13.9269 C.ar    1  UNL1       -0.0016
     39 C          61.9304   82.0319   13.5594 C.ar    1  UNL1        0.0681
     40 N          61.1439   81.2987   12.7398 N.ar    1  UNL1       -0.3519
     41 C          60.0116   82.0074   12.5746 C.ar    1  UNL1        0.0617
     42 C          58.9082   81.6835   11.7793 C.ar    1  UNL1        0.0456
     43 I          58.8157   79.8914   10.6645 I       1  UNL1       -0.0410
     44 C          57.8434   82.6031   11.7296 C.ar    1  UNL1        0.0072
     45 C          57.9039   83.8116   12.4572 C.ar    1  UNL1        0.0005
     46 C          59.0288   84.1144   13.2438 C.ar    1  UNL1        0.0012
     47 C          60.0650   83.1820   13.2829 C.ar    1  UNL1        0.0135
     48 H          61.3895   80.3821   12.3047 H       1  UNL1        0.1660
@<TRIPOS>BOND
     1     1     2    2
     2     2     3   am
     3     3    26    1
     4    26    37    1
     5    37    38    1
     6    38    39   ar
     7    39    40   ar
     8    40    41   ar
     9    41    42   ar
    10    42    43    1
    11    42    44   ar
    12    44    45   ar
    13    45    46   ar
    14    46    47   ar
    15    26    27    1
    16    27    28    2
    17    27    29   am
    18    29    31    1
    19    31    32   ar
    20    32    33   ar
    21    33    34   ar
    22    34    35   ar
    23    35    36   ar
    24     2     5    1
    25     5     6   ar
    26     6     7   ar
    27     7     8   ar
    28     8    12    1
    29    12    13    1
    30    13    14    1
    31    14    15    1
    32    15    18    1
    33    18    19   ar
    34    19    20   ar
    35    20    21   ar
    36    21    22    1
    37    21    23   ar
    38    23    24    1
    39    23    25   ar
    40    15    16    1
    41    16    17    1
    42     8     9   ar
    43     9    10   ar
    44    10    11    1
    45    47    38   ar
    46    36    31   ar
    47    10     5   ar
    48    47    41   ar
    49    17    12    1
    50    25    18   ar
    51     3     4    1
    52    40    48    1
    53    29    30    1
@<TRIPOS>MOLECULE
*****
 48 53 0 0 0
SMALL
GASTEIGER

@<TRIPOS>ATOM
      1 O          60.0722   81.7623    7.9231 O.2     1  UNL1       -0.2701
      2 C          60.2547   82.7201    8.7238 C.2     1  UNL1        0.2483
      3 N          60.6824   82.4537   10.0696 N.am    1  UNL1       -0.2945
      4 H          61.0666   83.2460   10.6323 H       1  UNL1        0.1501
      5 C          60.0574   84.1084    8.2494 C.ar    1  UNL1        0.0808
      6 C          58.7552   84.6211    8.1269 C.ar    1  UNL1        0.0080
      7 C          58.5446   85.9272    7.6778 C.ar    1  UNL1        0.0148
      8 C          59.6328   86.7531    7.3580 C.ar    1  UNL1        0.0502
      9 C          60.9357   86.2474    7.4905 C.ar    1  UNL1        0.0443
     10 C          61.1506   84.9399    7.9373 C.ar    1  UNL1        0.1457
     11 F          62.4271   84.5099    8.1040 F       1  UNL1       -0.2040
     12 N          59.4155   88.0956    6.8835 N.pl3   1  UNL1       -0.3040
     13 C          60.2471   89.2067    7.3679 C.3     1  UNL1        0.1122
     14 C          60.8762   89.9397    6.1776 C.3     1  UNL1        0.1122
     15 N          59.9035   90.1295    5.0889 N.pl3   1  UNL1       -0.3040
     16 C          58.4936   89.7730    5.3027 C.3     1  UNL1        0.1122
     17 C          58.3982   88.3438    5.8488 C.3     1  UNL1        0.1122
     18 C          60.3578   90.5931    3.8030 C.ar    1  UNL1        0.0488
     19 C          61.7199   90.5363    3.4667 C.ar    1  UNL1        0.0154
     20 C          62.1575   90.9750    2.2144 C.ar    1  UNL1        0.0135
     21 C          61.2420   91.4700    1.2798 C.ar    1  UNL1        0.0683
     22 CL         61.8312   92.0118   -0.2858 Cl      1  UNL1       -0.0814
     23 C          59.8761   91.5236    1.6033 C.ar    1  UNL1        0.0694
     24 CL         58.6903   92.1280    0.4540 Cl      1  UNL1       -0.0813
     25 C          59.4401   91.0845    2.8590 C.ar    1  UNL1        0.0268
     26 C          60.6623   81.1004   10.6383 C.3     1  UNL1        0.1535
     27 C          61.8357   80.8899   11.5671 C.2     1  UNL1        0.2443
     28 O          62.9559   80.5565   11.0923 O.2     1  UNL1       -0.2730
     29 N          61.7002   81.2016   12.9638 N.am    1  UNL1       -0.2825
     30 H          60.8231   81.6786   13.2736 H       1  UNL1        0.1549
     31 C          62.7722   81.1002   13.9142 C.ar    1  UNL1        0.0535
     32 C          62.8392   80.0415   14.8346 C.ar    1  UNL1        0.0353
     33 C          63.8902   79.9953   15.7542 C.ar    1  UNL1        0.1002
     34 N          64.8325   80.9752   15.7639 N.ar    1  UNL1       -0.2422
     35 C          64.7826   82.0197   14.8954 C.ar    1  UNL1        0.1002
     36 C          63.7479   82.1051   13.9610 C.ar    1  UNL1        0.0353
     37 C          59.3347   80.8603   11.3821 C.3     1  UNL1        0.0569
     38 C          58.6519   82.1547   11.7240 C.ar    1  UNL1       -0.0016
     39 C          57.5774   82.7248   11.0491 C.ar    1  UNL1        0.0681
     40 N          57.3142   83.9583   11.5362 N.ar    1  UNL1       -0.3519
     41 C          58.2217   84.1796   12.5054 C.ar    1  UNL1        0.0617
     42 C          58.3835   85.3335   13.2781 C.ar    1  UNL1        0.0456
     43 I          57.1217   87.0142   13.0633 I       1  UNL1       -0.0410
     44 C          59.4349   85.3535   14.2141 C.ar    1  UNL1        0.0072
     45 C          60.2944   84.2418   14.3523 C.ar    1  UNL1        0.0005
     46 C          60.1121   83.0970   13.5574 C.ar    1  UNL1        0.0012
     47 C          59.0575   83.0997   12.6451 C.ar    1  UNL1        0.0135
     48 H          56.5722   84.6106   11.1989 H       1  UNL1        0.1660
@<TRIPOS>BOND
     1     1     2    2
     2     2     3   am
     3     3    26    1
     4    26    37    1
     5    37    38    1
     6    38    39   ar
     7    39    40   ar
     8    40    41   ar
     9    41    42   ar
    10    42    43    1
    11    42    44   ar
    12    44    45   ar
    13    45    46   ar
    14    46    47   ar
    15    26    27    1
    16    27    28    2
    17    27    29   am
    18    29    31    1
    19    31    32   ar
    20    32    33   ar
    21    33    34   ar
    22    34    35   ar
    23    35    36   ar
    24     2     5    1
    25     5     6   ar
    26     6     7   ar
    27     7     8   ar
    28     8    12    1
    29    12    13    1
    30    13    14    1
    31    14    15    1
    32    15    18    1
    33    18    19   ar
    34    19    20   ar
    35    20    21   ar
    36    21    22    1
    37    21    23   ar
    38    23    24    1
    39    23    25   ar
    40    15    16    1
    41    16    17    1
    42     8     9   ar
    43     9    10   ar
    44    10    11    1
    45    47    38   ar
    46    36    31   ar
    47    10     5   ar
    48    47    41   ar
    49    17    12    1
    50    25    18   ar
    51     3     4    1
    52    40    48    1
    53    29    30    1
@<TRIPOS>MOLECULE
*****
 48 53 0 0 0
SMALL
GASTEIGER

@<TRIPOS>ATOM
      1 O          61.6038   86.4141    8.0083 O.2     1  UNL1       -0.2701
      2 C          60.9697   86.3513    9.0972 C.2     1  UNL1        0.2483
      3 N          59.6897   85.6996    9.1412 N.am    1  UNL1       -0.2945
      4 H          59.3010   85.4359   10.0747 H       1  UNL1        0.1501
      5 C          61.5748   86.9224   10.3216 C.ar    1  UNL1        0.0808
      6 C          61.5015   86.2086   11.5294 C.ar    1  UNL1        0.0080
      7 C          62.0623   86.7295   12.6982 C.ar    1  UNL1        0.0148
      8 C          62.7226   87.9672   12.6796 C.ar    1  UNL1        0.0502
      9 C          62.8077   88.6774   11.4716 C.ar    1  UNL1        0.0443
     10 C          62.2456   88.1607   10.3000 C.ar    1  UNL1        0.1457
     11 F          62.3992   88.8536    9.1432 F       1  UNL1       -0.2040
     12 N          63.2903   88.5099   13.8870 N.pl3   1  UNL1       -0.3040
     13 C          64.0776   87.6617   14.7935 C.3     1  UNL1        0.1122
     14 C          65.4530   88.2954   15.0315 C.3     1  UNL1        0.1122
     15 N          65.3454   89.7484   15.2430 N.pl3   1  UNL1       -0.3040
     16 C          64.0186   90.3700   15.3608 C.3     1  UNL1        0.1122
     17 C          63.1411   89.9453   14.1777 C.3     1  UNL1        0.1122
     18 C          66.5390   90.5545   15.2585 C.ar    1  UNL1        0.0488
     19 C          66.6926   91.5803   16.2049 C.ar    1  UNL1        0.0154
     20 C          67.8563   92.3534   16.2265 C.ar    1  UNL1        0.0135
     21 C          68.8835   92.1095   15.3089 C.ar    1  UNL1        0.0683
     22 CL         70.3329   93.1032   15.3682 Cl      1  UNL1       -0.0814
     23 C          68.7432   91.0803   14.3632 C.ar    1  UNL1        0.0694
     24 CL         70.0146   90.7326   13.1992 Cl      1  UNL1       -0.0813
     25 C          67.5760   90.3077   14.3427 C.ar    1  UNL1        0.0268
     26 C          58.9611   85.3337    7.9204 C.3     1  UNL1        0.1535
     27 C          58.5499   86.5668    7.1496 C.2     1  UNL1        0.2443
     28 O          57.3324   86.8934    7.0972 O.2     1  UNL1       -0.2730
     29 N          59.5595   87.4289    6.5982 N.am    1  UNL1       -0.2825
     30 H          60.5554   87.2361    6.8507 H       1  UNL1        0.1549
     31 C          59.2748   88.6561    5.9087 C.ar    1  UNL1        0.0535
     32 C          57.9826   89.2059    5.8922 C.ar    1  UNL1        0.0353
     33 C          57.7487   90.3916    5.1909 C.ar    1  UNL1        0.1002
     34 N          58.7630   90.9998    4.5205 N.ar    1  UNL1       -0.2422
     35 C          60.0192   90.4807    4.5062 C.ar    1  UNL1        0.1002
     36 C          60.2955   89.2961    5.1928 C.ar    1  UNL1        0.0353
     37 C          59.8306   84.4131    7.0429 C.3     1  UNL1        0.0569
     38 C          60.0307   83.0684    7.6833 C.ar    1  UNL1       -0.0016
     39 C          59.0978   82.0387    7.7501 C.ar    1  UNL1        0.0681
     40 N          59.5603   81.0316    8.5245 N.ar    1  UNL1       -0.3519
     41 C          60.7732   81.4206    8.9596 C.ar    1  UNL1        0.0617
     42 C          61.6320   80.7350    9.8240 C.ar    1  UNL1        0.0456
     43 I          61.1513   78.8334   10.6089 I       1  UNL1       -0.0410
     44 C          62.8444   81.3590   10.1746 C.ar    1  UNL1        0.0072
     45 C          63.1663   82.6374    9.6691 C.ar    1  UNL1        0.0005
     46 C          62.2807   83.3065    8.8066 C.ar    1  UNL1        0.0012
     47 C          61.0915   82.6619    8.4679 C.ar    1  UNL1        0.0135
     48 H          59.0553   80.1476    8.7555 H       1  UNL1        0.1660
@<TRIPOS>BOND
     1     1     2    2
     2     2     3   am
     3     3    26    1
     4    26    37    1
     5    37    38    1
     6    38    39   ar
     7    39    40   ar
     8    40    41   ar
     9    41    42   ar
    10    42    43    1
    11    42    44   ar
    12    44    45   ar
    13    45    46   ar
    14    46    47   ar
    15    26    27    1
    16    27    28    2
    17    27    29   am
    18    29    31    1
    19    31    32   ar
    20    32    33   ar
    21    33    34   ar
    22    34    35   ar
    23    35    36   ar
    24     2     5    1
    25     5     6   ar
    26     6     7   ar
    27     7     8   ar
    28     8    12    1
    29    12    13    1
    30    13    14    1
    31    14    15    1
    32    15    18    1
    33    18    19   ar
    34    19    20   ar
    35    20    21   ar
    36    21    22    1
    37    21    23   ar
    38    23    24    1
    39    23    25   ar
    40    15    16    1
    41    16    17    1
    42     8     9   ar
    43     9    10   ar
    44    10    11    1
    45    47    38   ar
    46    36    31   ar
    47    10     5   ar
    48    47    41   ar
    49    17    12    1
    50    25    18   ar
    51     3     4    1
    52    40    48    1
    53    29    30    1
@<TRIPOS>MOLECULE
*****
 48 53 0 0 0
SMALL
GASTEIGER

@<TRIPOS>ATOM
      1 O          60.3435   85.6732   12.4219 O.2     1  UNL1       -0.2701
      2 C          61.0049   86.6013   11.8807 C.2     1  UNL1        0.2483
      3 N          62.1426   87.1570   12.5601 N.am    1  UNL1       -0.2945
      4 H          62.8167   87.7324   12.0065 H       1  UNL1        0.1501
      5 C          60.6152   87.0785   10.5347 C.ar    1  UNL1        0.0808
      6 C          60.0426   86.1800    9.6190 C.ar    1  UNL1        0.0080
      7 C          59.6702   86.6071    8.3419 C.ar    1  UNL1        0.0148
      8 C          59.8475   87.9454    7.9601 C.ar    1  UNL1        0.0502
      9 C          60.4086   88.8483    8.8769 C.ar    1  UNL1        0.0443
     10 C          60.7848   88.4244   10.1553 C.ar    1  UNL1        0.1457
     11 F          61.2717   89.3418   11.0290 F       1  UNL1       -0.2040
     12 N          59.4748   88.3831    6.6394 N.pl3   1  UNL1       -0.3040
     13 C          58.5300   89.4942    6.4556 C.3     1  UNL1        0.1122
     14 C          59.1622   90.5693    5.5642 C.3     1  UNL1        0.1122
     15 N          59.8715   89.9704    4.4215 N.pl3   1  UNL1       -0.3040
     16 C          59.7689   88.5244    4.1785 C.3     1  UNL1        0.1122
     17 C          60.1030   87.7585    5.4636 C.3     1  UNL1        0.1122
     18 C          60.7171   90.7962    3.5982 C.ar    1  UNL1        0.0488
     19 C          62.1061   90.5918    3.5749 C.ar    1  UNL1        0.0154
     20 C          62.9237   91.3857    2.7664 C.ar    1  UNL1        0.0135
     21 C          62.3661   92.3888    1.9668 C.ar    1  UNL1        0.0683
     22 CL         63.4277   93.3665    0.9623 Cl      1  UNL1       -0.0814
     23 C          60.9768   92.5961    1.9767 C.ar    1  UNL1        0.0694
     24 CL         60.2336   93.8384    0.9784 Cl      1  UNL1       -0.0813
     25 C          60.1597   91.8003    2.7882 C.ar    1  UNL1        0.0268
     26 C          62.4161   86.8776   13.9751 C.3     1  UNL1        0.1535
     27 C          63.0447   85.5135   14.1422 C.2     1  UNL1        0.2443
     28 O          64.0333   85.3716   14.9129 O.2     1  UNL1       -0.2730
     29 N          62.4292   84.3683   13.5288 N.am    1  UNL1       -0.2825
     30 H          61.4940   84.4996   13.0805 H       1  UNL1        0.1549
     31 C          62.9092   83.0234   13.6821 C.ar    1  UNL1        0.0535
     32 C          62.3742   82.1593   14.6514 C.ar    1  UNL1        0.0353
     33 C          62.8868   80.8656   14.7773 C.ar    1  UNL1        0.1002
     34 N          63.9037   80.4530   13.9750 N.ar    1  UNL1       -0.2422
     35 C          64.4511   81.2740   13.0400 C.ar    1  UNL1        0.1002
     36 C          63.9694   82.5756   12.8824 C.ar    1  UNL1        0.0353
     37 C          63.3312   87.9696   14.5613 C.3     1  UNL1        0.0569
     38 C          63.8837   88.8622   13.4859 C.ar    1  UNL1       -0.0016
     39 C          63.7410   88.6869   12.1133 C.ar    1  UNL1        0.0681
     40 N          64.4884   89.5913   11.4413 N.ar    1  UNL1       -0.3519
     41 C          65.1135   90.3297   12.3771 C.ar    1  UNL1        0.0617
     42 C          66.0291   91.3672   12.1768 C.ar    1  UNL1        0.0456
     43 I          66.5876   92.0140   10.2448 I       1  UNL1       -0.0410
     44 C          66.5895   91.9760   13.3159 C.ar    1  UNL1        0.0072
     45 C          66.2358   91.5386   14.6110 C.ar    1  UNL1        0.0005
     46 C          65.3172   90.4886   14.7825 C.ar    1  UNL1        0.0012
     47 C          64.7700   89.9097   13.6380 C.ar    1  UNL1        0.0135
     48 H          64.5776   89.6709   10.4043 H       1  UNL1        0.1660
@<TRIPOS>BOND
     1     1     2    2
     2     2     3   am
     3     3    26    1
     4    26    37    1
     5    37    38    1
     6    38    39   ar
     7    39    40   ar
     8    40    41   ar
     9    41    42   ar
    10    42    43    1
    11    42    44   ar
    12    44    45   ar
    13    45    46   ar
    14    46    47   ar
    15    26    27    1
    16    27    28    2
    17    27    29   am
    18    29    31    1
    19    31    32   ar
    20    32    33   ar
    21    33    34   ar
    22    34    35   ar
    23    35    36   ar
    24     2     5    1
    25     5     6   ar
    26     6     7   ar
    27     7     8   ar
    28     8    12    1
    29    12    13    1
    30    13    14    1
    31    14    15    1
    32    15    18    1
    33    18    19   ar
    34    19    20   ar
    35    20    21   ar
    36    21    22    1
    37    21    23   ar
    38    23    24    1
    39    23    25   ar
    40    15    16    1
    41    16    17    1
    42     8     9   ar
    43     9    10   ar
    44    10    11    1
    45    47    38   ar
    46    36    31   ar
    47    10     5   ar
    48    47    41   ar
    49    17    12    1
    50    25    18   ar
    51     3     4    1
    52    40    48    1
    53    29    30    1
