@<TRIPOS>MOLECULE
*****
 43 47 0 0 0
SMALL
GASTEIGER

@<TRIPOS>ATOM
      1 C          -6.1824  -15.8011   24.3782 C.ar    1  UNL1        0.0888
      2 C          -5.9735  -15.1929   25.6467 C.ar    1  UNL1        0.0282
      3 C          -7.0928  -14.9302   26.4500 C.ar    1  UNL1        0.0997
      4 N          -7.1201  -14.3585   27.6672 N.ar    1  UNL1       -0.2137
      5 C          -8.4469  -14.3633   27.9682 C.ar    1  UNL1        0.1984
      6 N          -9.2343  -14.8936   26.9964 N.ar    1  UNL1       -0.3255
      7 C          -8.3586  -15.2475   26.0500 C.ar    1  UNL1        0.0755
      8 C          -8.5846  -15.8478   24.8199 C.ar    1  UNL1        0.0325
      9 C          -7.5132  -16.1237   24.0076 C.ar    1  UNL1        0.1401
     10 O          -7.9299  -16.7572   22.8552 O.3     1  UNL1       -0.4824
     11 C          -9.3506  -16.9290   22.8498 C.3     1  UNL1        0.1375
     12 C          -9.9410  -16.1885   21.6427 C.3     1  UNL1        0.0439
     13 C          -9.6738  -18.4268   22.7702 C.3     1  UNL1        0.0439
     14 C          -9.8507  -16.3095   24.1978 C.3     1  UNL1        0.0709
     15 H         -10.2742  -14.9847   26.9722 H       1  UNL1        0.1686
     16 N          -4.7838  -17.4561   23.0613 N.am    1  UNL1       -0.2805
     17 C          -5.0351  -16.1114   23.4982 C.2     1  UNL1        0.2525
     18 O          -4.2799  -15.1777   23.1116 O.2     1  UNL1       -0.2697
     19 H          -5.5790  -18.1329   23.0391 H       1  UNL1        0.1552
     20 C          -3.5066  -18.0245   21.0119 C.ar    1  UNL1        0.0478
     21 C          -2.3047  -18.4505   20.4202 C.ar    1  UNL1        0.0079
     22 C          -1.1557  -18.6726   21.1926 C.ar    1  UNL1        0.0713
     23 C          -1.1983  -18.4158   22.5696 C.ar    1  UNL1        0.0008
     24 C          -2.3893  -18.0109   23.1892 C.ar    1  UNL1       -0.0083
     25 C          -2.4079  -17.7744   24.6759 C.3     1  UNL1        0.0323
     26 C          -3.5552  -17.8274   22.4145 C.ar    1  UNL1        0.0492
     27 C           0.1409  -19.0710   20.5311 C.3     1  UNL1        0.4186
     28 F           1.1940  -18.7614   21.3712 F       1  UNL1       -0.1659
     29 F           0.1591  -20.4297   20.2668 F       1  UNL1       -0.1659
     30 F           0.3060  -18.3969   19.3334 F       1  UNL1       -0.1659
     31 C          -5.8332  -18.6811   20.0494 C.3     1  UNL1        0.0773
     32 C          -4.6786  -17.7319   20.1461 C.2     1  UNL1        0.1747
     33 O          -4.6886  -16.6938   19.4309 O.2     1  UNL1       -0.2913
     34 N          -8.9563  -13.8054   29.1864 N.pl3   1  UNL1       -0.2816
     35 H          -9.4258  -14.4505   29.8607 H       1  UNL1        0.1551
     36 C          -8.7685  -12.4323   29.5617 C.ar    1  UNL1        0.0889
     37 C          -7.4901  -11.8441   29.5062 C.ar    1  UNL1        0.1543
     38 F          -6.4176  -12.5601   29.0838 F       1  UNL1       -0.2028
     39 C          -7.3182  -10.5009   29.8538 C.ar    1  UNL1        0.0310
     40 C          -8.4153   -9.7314   30.2453 C.ar    1  UNL1        0.0033
     41 C          -9.6902  -10.3002   30.2837 C.ar    1  UNL1        0.0128
     42 C          -9.8738  -11.6441   29.9373 C.ar    1  UNL1        0.0733
     43 CL        -11.4925  -12.3272   30.0163 Cl      1  UNL1       -0.0809
@<TRIPOS>BOND
     1    31    32    1
     2    32    33    2
     3    32    20    1
     4    20    21   ar
     5    21    22   ar
     6    22    27    1
     7    27    28    1
     8    27    29    1
     9    27    30    1
    10    22    23   ar
    11    23    24   ar
    12    24    25    1
    13    24    26   ar
    14    26    16    1
    15    16    17   am
    16    17    18    2
    17    17     1    1
    18     1     2   ar
    19     2     3   ar
    20     3     4   ar
    21     4     5   ar
    22     5    34    1
    23    34    36    1
    24    36    37   ar
    25    37    38    1
    26    37    39   ar
    27    39    40   ar
    28    40    41   ar
    29    41    42   ar
    30    42    43    1
    31     5     6   ar
    32     6     7   ar
    33     7     8   ar
    34     8     9   ar
    35     9    10    1
    36    10    11    1
    37    11    12    1
    38    11    13    1
    39    11    14    1
    40    26    20   ar
    41     9     1   ar
    42     7     3   ar
    43    14     8    1
    44    42    36   ar
    45    16    19    1
    46    34    35    1
    47     6    15    1
@<TRIPOS>MOLECULE
*****
 43 47 0 0 0
SMALL
GASTEIGER

@<TRIPOS>ATOM
      1 C          -6.1844  -15.7215   24.5702 C.ar    1  UNL1        0.0888
      2 C          -5.9246  -15.0386   25.7902 C.ar    1  UNL1        0.0282
      3 C          -7.0039  -14.7722   26.6455 C.ar    1  UNL1        0.0997
      4 N          -6.9814  -14.1366   27.8307 N.ar    1  UNL1       -0.2137
      5 C          -8.2870  -14.1717   28.2118 C.ar    1  UNL1        0.1984
      6 N          -9.1093  -14.7813   27.3186 N.ar    1  UNL1       -0.3255
      7 C          -8.2780  -15.1550   26.3403 C.ar    1  UNL1        0.0755
      8 C          -8.5530  -15.8287   25.1592 C.ar    1  UNL1        0.0325
      9 C          -7.5215  -16.1103   24.2986 C.ar    1  UNL1        0.1401
     10 O          -7.9808  -16.8196   23.2082 O.3     1  UNL1       -0.4824
     11 C          -9.3917  -17.0412   23.2982 C.3     1  UNL1        0.1375
     12 C         -10.0801  -16.3885   22.0924 C.3     1  UNL1        0.0439
     13 C          -9.6613  -18.5516   23.3164 C.3     1  UNL1        0.0439
     14 C          -9.8349  -16.3676   24.6401 C.3     1  UNL1        0.0709
     15 H         -10.1446  -14.9100   27.3625 H       1  UNL1        0.1686
     16 N          -4.8082  -17.3946   23.2527 N.am    1  UNL1       -0.2805
     17 C          -5.0800  -16.0386   23.6393 C.2     1  UNL1        0.2525
     18 O          -4.3810  -15.1017   23.1646 O.2     1  UNL1       -0.2697
     19 H          -5.5795  -18.0965   23.3099 H       1  UNL1        0.1552
     20 C          -3.6155  -17.9401   21.1469 C.ar    1  UNL1        0.0478
     21 C          -2.4387  -18.3592   20.5022 C.ar    1  UNL1        0.0079
     22 C          -1.2593  -18.5896   21.2246 C.ar    1  UNL1        0.0713
     23 C          -1.2458  -18.3479   22.6050 C.ar    1  UNL1        0.0008
     24 C          -2.4106  -17.9502   23.2770 C.ar    1  UNL1       -0.0083
     25 C          -2.3686  -17.7301   24.7657 C.3     1  UNL1        0.0323
     26 C          -3.6070  -17.7585   22.5523 C.ar    1  UNL1        0.0492
     27 C           0.0092  -18.9803   20.5067 C.3     1  UNL1        0.4186
     28 F           0.1108  -18.2541   19.3349 F       1  UNL1       -0.1659
     29 F           1.1178  -18.7225   21.2946 F       1  UNL1       -0.1659
     30 F           0.0022  -20.3305   20.2015 F       1  UNL1       -0.1659
     31 C          -5.8989  -18.6584   20.1266 C.3     1  UNL1        0.0773
     32 C          -4.8217  -17.6383   20.3327 C.2     1  UNL1        0.1747
     33 O          -4.9262  -16.5239   19.7527 O.2     1  UNL1       -0.2913
     34 N          -8.7447  -13.5668   29.4280 N.pl3   1  UNL1       -0.2816
     35 H          -8.8685  -14.1818   30.2634 H       1  UNL1        0.1551
     36 C          -8.9475  -12.1531   29.5758 C.ar    1  UNL1        0.0889
     37 C         -10.2471  -11.6111   29.5561 C.ar    1  UNL1        0.1543
     38 F         -11.3297  -12.4164   29.4116 F       1  UNL1       -0.2028
     39 C         -10.4383  -10.2360   29.7209 C.ar    1  UNL1        0.0310
     40 C          -9.3425   -9.3940   29.9191 C.ar    1  UNL1        0.0033
     41 C          -8.0514   -9.9247   29.9608 C.ar    1  UNL1        0.0128
     42 C          -7.8486  -11.3003   29.7973 C.ar    1  UNL1        0.0733
     43 CL         -6.2056  -11.9264   29.8381 Cl      1  UNL1       -0.0809
@<TRIPOS>BOND
     1    31    32    1
     2    32    33    2
     3    32    20    1
     4    20    21   ar
     5    21    22   ar
     6    22    27    1
     7    27    28    1
     8    27    29    1
     9    27    30    1
    10    22    23   ar
    11    23    24   ar
    12    24    25    1
    13    24    26   ar
    14    26    16    1
    15    16    17   am
    16    17    18    2
    17    17     1    1
    18     1     2   ar
    19     2     3   ar
    20     3     4   ar
    21     4     5   ar
    22     5    34    1
    23    34    36    1
    24    36    37   ar
    25    37    38    1
    26    37    39   ar
    27    39    40   ar
    28    40    41   ar
    29    41    42   ar
    30    42    43    1
    31     5     6   ar
    32     6     7   ar
    33     7     8   ar
    34     8     9   ar
    35     9    10    1
    36    10    11    1
    37    11    12    1
    38    11    13    1
    39    11    14    1
    40    26    20   ar
    41     9     1   ar
    42     7     3   ar
    43    14     8    1
    44    42    36   ar
    45    16    19    1
    46    34    35    1
    47     6    15    1
@<TRIPOS>MOLECULE
*****
 43 47 0 0 0
SMALL
GASTEIGER

@<TRIPOS>ATOM
      1 C          -7.5241  -13.8200   28.0982 C.ar    1  UNL1        0.0888
      2 C          -8.7827  -14.1488   28.6728 C.ar    1  UNL1        0.0282
      3 C          -9.3055  -13.2988   29.6585 C.ar    1  UNL1        0.0997
      4 N         -10.4630  -13.4280   30.3315 N.ar    1  UNL1       -0.2137
      5 C         -10.4605  -12.3337   31.1400 C.ar    1  UNL1        0.1984
      6 N          -9.3588  -11.5497   31.0088 N.ar    1  UNL1       -0.3255
      7 C          -8.6459  -12.1758   30.0668 C.ar    1  UNL1        0.0755
      8 C          -7.4205  -11.8322   29.5146 C.ar    1  UNL1        0.0325
      9 C          -6.8788  -12.6381   28.5445 C.ar    1  UNL1        0.1401
     10 O          -5.6879  -12.1124   28.0880 O.3     1  UNL1       -0.4824
     11 C          -5.3726  -10.8926   28.7665 C.3     1  UNL1        0.1375
     12 C          -4.0365  -11.0586   29.5023 C.3     1  UNL1        0.0439
     13 C          -5.2808   -9.7570   27.7388 C.3     1  UNL1        0.0439
     14 C          -6.5501  -10.6576   29.7710 C.3     1  UNL1        0.0709
     15 H          -9.1069  -10.6806   31.5300 H       1  UNL1        0.1686
     16 N          -7.2568  -14.4689   25.6617 N.am    1  UNL1       -0.2805
     17 C          -6.9347  -14.6756   27.0458 C.2     1  UNL1        0.2525
     18 O          -6.1232  -15.5859   27.3690 O.2     1  UNL1       -0.2697
     19 H          -7.5854  -13.5248   25.3589 H       1  UNL1        0.1552
     20 C          -7.8931  -16.1952   23.9975 C.ar    1  UNL1        0.0478
     21 C          -7.5028  -17.1649   23.0576 C.ar    1  UNL1        0.0079
     22 C          -6.1509  -17.3714   22.7483 C.ar    1  UNL1        0.0713
     23 C          -5.1805  -16.5603   23.3521 C.ar    1  UNL1        0.0008
     24 C          -5.5398  -15.6001   24.3089 C.ar    1  UNL1       -0.0083
     25 C          -4.4686  -14.7676   24.9615 C.3     1  UNL1        0.0323
     26 C          -6.8988  -15.4228   24.6480 C.ar    1  UNL1        0.0492
     27 C          -5.7562  -18.3748   21.6924 C.3     1  UNL1        0.4186
     28 F          -4.5006  -18.8732   21.9853 F       1  UNL1       -0.1659
     29 F          -6.6592  -19.4232   21.6505 F       1  UNL1       -0.1659
     30 F          -5.7259  -17.7821   20.4418 F       1  UNL1       -0.1659
     31 C         -10.3906  -16.6805   23.4519 C.3     1  UNL1        0.0773
     32 C          -9.3404  -15.9606   24.2408 C.2     1  UNL1        0.1747
     33 O          -9.7045  -15.1001   25.0870 O.2     1  UNL1       -0.2913
     34 N         -11.5119  -12.0751   32.0792 N.pl3   1  UNL1       -0.2816
     35 H         -11.9862  -11.1452   32.0383 H       1  UNL1        0.1551
     36 C         -12.0027  -13.0600   33.0016 C.ar    1  UNL1        0.0889
     37 C         -13.2221  -13.7216   32.7596 C.ar    1  UNL1        0.1543
     38 F         -13.9462  -13.4503   31.6446 F       1  UNL1       -0.2028
     39 C         -13.6838  -14.6940   33.6517 C.ar    1  UNL1        0.0310
     40 C         -12.9319  -15.0241   34.7808 C.ar    1  UNL1        0.0033
     41 C         -11.7114  -14.3882   35.0185 C.ar    1  UNL1        0.0128
     42 C         -11.2395  -13.4133   34.1315 C.ar    1  UNL1        0.0733
     43 CL         -9.7066  -12.6231   34.4764 Cl      1  UNL1       -0.0809
@<TRIPOS>BOND
     1    31    32    1
     2    32    33    2
     3    32    20    1
     4    20    21   ar
     5    21    22   ar
     6    22    27    1
     7    27    28    1
     8    27    29    1
     9    27    30    1
    10    22    23   ar
    11    23    24   ar
    12    24    25    1
    13    24    26   ar
    14    26    16    1
    15    16    17   am
    16    17    18    2
    17    17     1    1
    18     1     2   ar
    19     2     3   ar
    20     3     4   ar
    21     4     5   ar
    22     5    34    1
    23    34    36    1
    24    36    37   ar
    25    37    38    1
    26    37    39   ar
    27    39    40   ar
    28    40    41   ar
    29    41    42   ar
    30    42    43    1
    31     5     6   ar
    32     6     7   ar
    33     7     8   ar
    34     8     9   ar
    35     9    10    1
    36    10    11    1
    37    11    12    1
    38    11    13    1
    39    11    14    1
    40    26    20   ar
    41     9     1   ar
    42     7     3   ar
    43    14     8    1
    44    42    36   ar
    45    16    19    1
    46    34    35    1
    47     6    15    1
@<TRIPOS>MOLECULE
*****
 43 47 0 0 0
SMALL
GASTEIGER

@<TRIPOS>ATOM
      1 C          -7.2220  -13.3794   28.0574 C.ar    1  UNL1        0.0888
      2 C          -8.5183  -13.8806   28.3587 C.ar    1  UNL1        0.0282
      3 C          -9.2437  -13.2688   29.3916 C.ar    1  UNL1        0.0997
      4 N         -10.4705  -13.5884   29.8411 N.ar    1  UNL1       -0.2137
      5 C         -10.6726  -12.6748   30.8288 C.ar    1  UNL1        0.1984
      6 N          -9.6315  -11.8229   31.0178 N.ar    1  UNL1       -0.3255
      7 C          -8.7431  -12.2139   30.0983 C.ar    1  UNL1        0.0755
      8 C          -7.4839  -11.7043   29.8163 C.ar    1  UNL1        0.0325
      9 C          -6.7457  -12.2749   28.8097 C.ar    1  UNL1        0.1401
     10 O          -5.5491  -11.6076   28.6490 O.3     1  UNL1       -0.4824
     11 C          -5.4343  -10.5291   29.5824 C.3     1  UNL1        0.1375
     12 C          -4.2073  -10.7645   30.4730 C.3     1  UNL1        0.0439
     13 C          -5.2908   -9.2111   28.8099 C.3     1  UNL1        0.0439
     14 C          -6.7580  -10.5580   30.4179 C.3     1  UNL1        0.0709
     15 H          -9.5282  -11.0604   31.7238 H       1  UNL1        0.1686
     16 N          -6.9164  -15.1019   26.2220 N.am    1  UNL1       -0.2805
     17 C          -6.4210  -13.9800   26.9691 C.2     1  UNL1        0.2525
     18 O          -5.2961  -13.4861   26.6819 O.2     1  UNL1       -0.2697
     19 H          -7.9482  -15.2570   26.1755 H       1  UNL1        0.1552
     20 C          -6.2910  -15.8264   23.9332 C.ar    1  UNL1        0.0478
     21 C          -5.4898  -16.6249   23.0986 C.ar    1  UNL1        0.0079
     22 C          -4.4770  -17.4375   23.6278 C.ar    1  UNL1        0.0713
     23 C          -4.2309  -17.4108   25.0072 C.ar    1  UNL1        0.0008
     24 C          -5.0285  -16.6402   25.8653 C.ar    1  UNL1       -0.0083
     25 C          -4.7567  -16.6594   27.3459 C.3     1  UNL1        0.0323
     26 C          -6.0739  -15.8544   25.3334 C.ar    1  UNL1        0.0492
     27 C          -3.5882  -18.2408   22.7102 C.3     1  UNL1        0.4186
     28 F          -3.7185  -17.7646   21.4190 F       1  UNL1       -0.1659
     29 F          -2.2631  -18.1378   23.0974 F       1  UNL1       -0.1659
     30 F          -3.9415  -19.5789   22.7354 F       1  UNL1       -0.1659
     31 C          -7.8437  -15.1779   21.9485 C.3     1  UNL1        0.0773
     32 C          -7.3041  -14.9264   23.3230 C.2     1  UNL1        0.1747
     33 O          -7.6841  -13.8960   23.9418 O.2     1  UNL1       -0.2913
     34 N         -11.8645  -12.6611   31.6249 N.pl3   1  UNL1       -0.2816
     35 H         -12.6467  -12.0377   31.3234 H       1  UNL1        0.1551
     36 C         -12.0674  -13.5267   32.7524 C.ar    1  UNL1        0.0889
     37 C         -13.0644  -14.5208   32.7205 C.ar    1  UNL1        0.1543
     38 F         -13.8399  -14.6868   31.6195 F       1  UNL1       -0.2028
     39 C         -13.2428  -15.3733   33.8141 C.ar    1  UNL1        0.0310
     40 C         -12.4246  -15.2525   34.9389 C.ar    1  UNL1        0.0033
     41 C         -11.4197  -14.2832   34.9716 C.ar    1  UNL1        0.0128
     42 C         -11.2321  -13.4246   33.8819 C.ar    1  UNL1        0.0733
     43 CL         -9.9674  -12.2057   33.9701 Cl      1  UNL1       -0.0809
@<TRIPOS>BOND
     1    31    32    1
     2    32    33    2
     3    32    20    1
     4    20    21   ar
     5    21    22   ar
     6    22    27    1
     7    27    28    1
     8    27    29    1
     9    27    30    1
    10    22    23   ar
    11    23    24   ar
    12    24    25    1
    13    24    26   ar
    14    26    16    1
    15    16    17   am
    16    17    18    2
    17    17     1    1
    18     1     2   ar
    19     2     3   ar
    20     3     4   ar
    21     4     5   ar
    22     5    34    1
    23    34    36    1
    24    36    37   ar
    25    37    38    1
    26    37    39   ar
    27    39    40   ar
    28    40    41   ar
    29    41    42   ar
    30    42    43    1
    31     5     6   ar
    32     6     7   ar
    33     7     8   ar
    34     8     9   ar
    35     9    10    1
    36    10    11    1
    37    11    12    1
    38    11    13    1
    39    11    14    1
    40    26    20   ar
    41     9     1   ar
    42     7     3   ar
    43    14     8    1
    44    42    36   ar
    45    16    19    1
    46    34    35    1
    47     6    15    1
@<TRIPOS>MOLECULE
*****
 43 47 0 0 0
SMALL
GASTEIGER

@<TRIPOS>ATOM
      1 C          -5.8158  -15.8978   23.4785 C.ar    1  UNL1        0.0888
      2 C          -4.4629  -15.6638   23.1076 C.ar    1  UNL1        0.0282
      3 C          -3.9034  -16.4607   22.0980 C.ar    1  UNL1        0.0997
      4 N          -2.6521  -16.4135   21.6067 N.ar    1  UNL1       -0.2137
      5 C          -2.6678  -17.3899   20.6592 C.ar    1  UNL1        0.1984
      6 N          -3.8554  -18.0412   20.5536 N.ar    1  UNL1       -0.3255
      7 C          -4.6205  -17.4363   21.4681 C.ar    1  UNL1        0.0755
      8 C          -5.9436  -17.6767   21.8089 C.ar    1  UNL1        0.0325
      9 C          -6.5267  -16.9143   22.7901 C.ar    1  UNL1        0.1401
     10 O          -7.8497  -17.2680   22.9558 O.3     1  UNL1       -0.4824
     11 C          -8.2133  -18.3255   22.0629 C.3     1  UNL1        0.1375
     12 C          -8.6687  -19.5400   22.8823 C.3     1  UNL1        0.0439
     13 C          -9.3458  -17.8413   21.1478 C.3     1  UNL1        0.0439
     14 C          -6.9173  -18.6445   21.2447 C.3     1  UNL1        0.0709
     15 H          -4.1123  -18.8391   19.9309 H       1  UNL1        0.1686
     16 N          -6.3080  -15.4078   25.9171 N.am    1  UNL1       -0.2805
     17 C          -6.4575  -15.0768   24.5278 C.2     1  UNL1        0.2525
     18 O          -7.1287  -14.0612   24.1964 O.2     1  UNL1       -0.2697
     19 H          -5.4771  -15.9674   26.2126 H       1  UNL1        0.1552
     20 C          -8.4109  -15.2586   27.2248 C.ar    1  UNL1        0.0478
     21 C          -9.1895  -14.5856   28.1823 C.ar    1  UNL1        0.0079
     22 C          -8.6933  -13.4631   28.8605 C.ar    1  UNL1        0.0713
     23 C          -7.3806  -13.0401   28.6120 C.ar    1  UNL1        0.0008
     24 C          -6.5894  -13.6796   27.6469 C.ar    1  UNL1       -0.0083
     25 C          -5.1944  -13.1793   27.3824 C.3     1  UNL1        0.0323
     26 C          -7.1068  -14.7846   26.9365 C.ar    1  UNL1        0.0492
     27 C          -9.5216  -12.7912   29.9282 C.3     1  UNL1        0.4186
     28 F          -8.6802  -12.1962   30.8494 F       1  UNL1       -0.1659
     29 F         -10.3420  -11.8229   29.3753 F       1  UNL1       -0.1659
     30 F         -10.3224  -13.7141   30.5787 F       1  UNL1       -0.1659
     31 C          -9.5400  -16.4523   25.2071 C.3     1  UNL1        0.0773
     32 C          -8.9497  -16.4863   26.5833 C.2     1  UNL1        0.1747
     33 O          -8.9668  -17.5735   27.2211 O.2     1  UNL1       -0.2913
     34 N          -1.5077  -17.7235   19.8863 N.pl3   1  UNL1       -0.2816
     35 H          -1.4340  -17.3310   18.9210 H       1  UNL1        0.1551
     36 C          -0.4084  -18.4865   20.4067 C.ar    1  UNL1        0.0889
     37 C           0.9060  -17.9856   20.3379 C.ar    1  UNL1        0.1543
     38 F           1.1540  -16.7683   19.7921 F       1  UNL1       -0.2028
     39 C           1.9690  -18.7251   20.8649 C.ar    1  UNL1        0.0310
     40 C           1.7316  -19.9586   21.4744 C.ar    1  UNL1        0.0033
     41 C           0.4292  -20.4542   21.5658 C.ar    1  UNL1        0.0128
     42 C          -0.6427  -19.7218   21.0418 C.ar    1  UNL1        0.0733
     43 CL         -2.2654  -20.3893   21.1611 Cl      1  UNL1       -0.0809
@<TRIPOS>BOND
     1    31    32    1
     2    32    33    2
     3    32    20    1
     4    20    21   ar
     5    21    22   ar
     6    22    27    1
     7    27    28    1
     8    27    29    1
     9    27    30    1
    10    22    23   ar
    11    23    24   ar
    12    24    25    1
    13    24    26   ar
    14    26    16    1
    15    16    17   am
    16    17    18    2
    17    17     1    1
    18     1     2   ar
    19     2     3   ar
    20     3     4   ar
    21     4     5   ar
    22     5    34    1
    23    34    36    1
    24    36    37   ar
    25    37    38    1
    26    37    39   ar
    27    39    40   ar
    28    40    41   ar
    29    41    42   ar
    30    42    43    1
    31     5     6   ar
    32     6     7   ar
    33     7     8   ar
    34     8     9   ar
    35     9    10    1
    36    10    11    1
    37    11    12    1
    38    11    13    1
    39    11    14    1
    40    26    20   ar
    41     9     1   ar
    42     7     3   ar
    43    14     8    1
    44    42    36   ar
    45    16    19    1
    46    34    35    1
    47     6    15    1
