@<TRIPOS>MOLECULE
*****
 27 29 0 0 0
SMALL
GASTEIGER

@<TRIPOS>ATOM
      1 C          46.1088   14.5435  -24.6206 C.ar    1  UNL1        0.1385
      2 C          45.3555   13.3593  -24.5206 C.ar    1  UNL1        0.0366
      3 C          45.6998   12.3829  -23.5820 C.ar    1  UNL1       -0.0011
      4 C          46.7963   12.5742  -22.7265 C.ar    1  UNL1       -0.0206
      5 C          47.5589   13.7471  -22.8436 C.ar    1  UNL1       -0.0011
      6 C          47.2204   14.7177  -23.7894 C.ar    1  UNL1        0.0366
      7 O          45.7872   15.5706  -25.5214 O.3     1  UNL1       -0.4750
      8 C          46.4819   15.8487  -26.7393 C.3     1  UNL1        0.2117
      9 C          45.5810   15.6258  -27.9611 C.3     1  UNL1        0.0931
     10 C          46.3409   11.8031  -29.7580 C.ar    1  UNL1        0.0018
     11 C          46.4900   11.9618  -28.3714 C.ar    1  UNL1       -0.0011
     12 C          46.2374   13.1953  -27.7712 C.ar    1  UNL1        0.0146
     13 C          45.8086   14.2676  -28.5608 C.ar    1  UNL1        0.0633
     14 N          45.6610   14.0966  -29.9022 N.ar    1  UNL1       -0.2432
     15 C          45.9070   12.9101  -30.5176 C.ar    1  UNL1        0.1110
     16 BR         45.6617   12.8219  -32.4153 Br      1  UNL1       -0.0284
     17 C          47.4472    9.5828  -29.4620 C.3     1  UNL1        0.0051
     18 C          46.5978   10.4536  -30.3823 C.3     1  UNL1        0.0284
     19 C          47.1323   11.5470  -21.6698 C.3     1  UNL1        0.0468
     20 C          48.5838   11.6476  -21.1600 C.3     1  UNL1        0.1369
     21 S          48.7190   11.1546  -19.3880 S.3     1  UNL1       -0.0482
     22 C          49.8044    9.8103  -19.8438 C.2     1  UNL1        0.2792
     23 O          50.2199    8.9649  -19.0096 O.2     1  UNL1       -0.2625
     24 N          50.1635    9.7495  -21.2086 N.am    1  UNL1       -0.2460
     25 C          49.5231   10.7767  -21.9399 C.2     1  UNL1        0.2392
     26 O          49.7439   10.9473  -23.1682 O.2     1  UNL1       -0.2737
     27 H          50.8118    9.0422  -21.6211 H       1  UNL1        0.1583
@<TRIPOS>BOND
     1    17    18    1
     2    18    10    1
     3    10    11   ar
     4    11    12   ar
     5    12    13   ar
     6    13     9    1
     7     9     8    1
     8     8     7    1
     9     7     1    1
    10     1     2   ar
    11     2     3   ar
    12     3     4   ar
    13     4    19    1
    14    19    20    1
    15    20    21    1
    16    21    22    1
    17    22    23    2
    18    22    24   am
    19    24    25   am
    20    25    26    2
    21     4     5   ar
    22     5     6   ar
    23    13    14   ar
    24    14    15   ar
    25    15    16    1
    26    15    10   ar
    27     6     1   ar
    28    25    20    1
    29    24    27    1
@<TRIPOS>MOLECULE
*****
 27 29 0 0 0
SMALL
GASTEIGER

@<TRIPOS>ATOM
      1 C          50.5507    9.5915  -24.8238 C.ar    1  UNL1        0.1385
      2 C          50.6160    8.6196  -23.8084 C.ar    1  UNL1        0.0366
      3 C          49.7768    8.7076  -22.6944 C.ar    1  UNL1       -0.0011
      4 C          48.8575    9.7622  -22.5782 C.ar    1  UNL1       -0.0206
      5 C          48.8100   10.7421  -23.5823 C.ar    1  UNL1       -0.0011
      6 C          49.6566   10.6591  -24.6903 C.ar    1  UNL1        0.0366
      7 O          51.3456    9.5330  -25.9790 O.3     1  UNL1       -0.4750
      8 C          50.8682    9.6797  -27.3184 C.3     1  UNL1        0.2117
      9 C          51.9355    9.2689  -28.3412 C.3     1  UNL1        0.0931
     10 C          50.2772    6.9318  -31.5362 C.ar    1  UNL1        0.0018
     11 C          49.4263    7.4959  -30.5730 C.ar    1  UNL1       -0.0011
     12 C          49.9491    8.2660  -29.5341 C.ar    1  UNL1        0.0146
     13 C          51.3282    8.4930  -29.4751 C.ar    1  UNL1        0.0633
     14 N          52.1397    7.9463  -30.4202 N.ar    1  UNL1       -0.2432
     15 C          51.6619    7.1850  -31.4396 C.ar    1  UNL1        0.1110
     16 BR         52.9263    6.4764  -32.6919 Br      1  UNL1       -0.0284
     17 C          48.1630    6.1531  -32.6155 C.3     1  UNL1        0.0051
     18 C          49.6873    6.1212  -32.6639 C.3     1  UNL1        0.0284
     19 C          47.9072    9.8246  -21.4045 C.3     1  UNL1        0.0468
     20 C          47.9544   11.1690  -20.6514 C.3     1  UNL1        0.1369
     21 S          46.3893   12.1220  -20.8604 S.3     1  UNL1       -0.0482
     22 C          46.1047   12.0432  -19.0981 C.2     1  UNL1        0.2792
     23 O          45.0538   12.4820  -18.5631 O.2     1  UNL1       -0.2625
     24 N          47.1351   11.4468  -18.3378 N.am    1  UNL1       -0.2460
     25 C          48.1760   10.9897  -19.1791 C.2     1  UNL1        0.2392
     26 O          49.2253   10.4751  -18.7091 O.2     1  UNL1       -0.2737
     27 H          47.1284   11.3549  -17.2976 H       1  UNL1        0.1583
@<TRIPOS>BOND
     1    17    18    1
     2    18    10    1
     3    10    11   ar
     4    11    12   ar
     5    12    13   ar
     6    13     9    1
     7     9     8    1
     8     8     7    1
     9     7     1    1
    10     1     2   ar
    11     2     3   ar
    12     3     4   ar
    13     4    19    1
    14    19    20    1
    15    20    21    1
    16    21    22    1
    17    22    23    2
    18    22    24   am
    19    24    25   am
    20    25    26    2
    21     4     5   ar
    22     5     6   ar
    23    13    14   ar
    24    14    15   ar
    25    15    16    1
    26    15    10   ar
    27     6     1   ar
    28    25    20    1
    29    24    27    1
@<TRIPOS>MOLECULE
*****
 27 29 0 0 0
SMALL
GASTEIGER

@<TRIPOS>ATOM
      1 C          46.9610   11.7670  -22.6402 C.ar    1  UNL1        0.1385
      2 C          46.5777   12.0768  -21.3222 C.ar    1  UNL1        0.0366
      3 C          47.4437   11.8150  -20.2571 C.ar    1  UNL1       -0.0011
      4 C          48.7054   11.2454  -20.4900 C.ar    1  UNL1       -0.0206
      5 C          49.0760   10.9174  -21.8037 C.ar    1  UNL1       -0.0011
      6 C          48.2055   11.1696  -22.8666 C.ar    1  UNL1        0.0366
      7 O          46.1450   12.0397  -23.7490 O.3     1  UNL1       -0.4750
      8 C          46.5583   11.9704  -25.1156 C.3     1  UNL1        0.2117
      9 C          46.0244   13.1608  -25.9230 C.3     1  UNL1        0.0931
     10 C          46.2116   12.3206  -30.1276 C.ar    1  UNL1        0.0018
     11 C          45.8559   13.6061  -29.6904 C.ar    1  UNL1       -0.0011
     12 C          45.8001   13.8975  -28.3275 C.ar    1  UNL1        0.0146
     13 C          46.1272   12.9032  -27.3993 C.ar    1  UNL1        0.0633
     14 N          46.4777   11.6643  -27.8381 N.ar    1  UNL1       -0.2432
     15 C          46.5335   11.3470  -29.1585 C.ar    1  UNL1        0.1110
     16 BR         47.0371    9.5589  -29.6256 Br      1  UNL1       -0.0284
     17 C          45.5897   13.1295  -32.4081 C.3     1  UNL1        0.0051
     18 C          46.2875   12.0346  -31.6072 C.3     1  UNL1        0.0284
     19 C          49.6669   11.0186  -19.3459 C.3     1  UNL1        0.0468
     20 C          50.1499   12.3256  -18.6861 C.3     1  UNL1        0.1369
     21 S          49.7213   12.3823  -16.8931 S.3     1  UNL1       -0.0482
     22 C          51.4581   12.4555  -16.4793 C.2     1  UNL1        0.2792
     23 O          51.8714   12.4247  -15.2913 O.2     1  UNL1       -0.2625
     24 N          52.3452   12.5427  -17.5751 N.am    1  UNL1       -0.2460
     25 C          51.6347   12.5050  -18.7972 C.2     1  UNL1        0.2392
     26 O          52.2218   12.6265  -19.9050 O.2     1  UNL1       -0.2737
     27 H          53.3833   12.6226  -17.4938 H       1  UNL1        0.1583
@<TRIPOS>BOND
     1    17    18    1
     2    18    10    1
     3    10    11   ar
     4    11    12   ar
     5    12    13   ar
     6    13     9    1
     7     9     8    1
     8     8     7    1
     9     7     1    1
    10     1     2   ar
    11     2     3   ar
    12     3     4   ar
    13     4    19    1
    14    19    20    1
    15    20    21    1
    16    21    22    1
    17    22    23    2
    18    22    24   am
    19    24    25   am
    20    25    26    2
    21     4     5   ar
    22     5     6   ar
    23    13    14   ar
    24    14    15   ar
    25    15    16    1
    26    15    10   ar
    27     6     1   ar
    28    25    20    1
    29    24    27    1
@<TRIPOS>MOLECULE
*****
 27 29 0 0 0
SMALL
GASTEIGER

@<TRIPOS>ATOM
      1 C          46.3363   11.7613  -28.0927 C.ar    1  UNL1        0.1385
      2 C          46.1456   12.7102  -29.1141 C.ar    1  UNL1        0.0366
      3 C          46.1071   14.0737  -28.8103 C.ar    1  UNL1       -0.0011
      4 C          46.2628   14.5118  -27.4857 C.ar    1  UNL1       -0.0206
      5 C          46.4311   13.5615  -26.4661 C.ar    1  UNL1       -0.0011
      6 C          46.4587   12.1982  -26.7694 C.ar    1  UNL1        0.0366
      7 O          46.4168   10.3833  -28.3460 O.3     1  UNL1       -0.4750
      8 C          47.2989    9.7665  -29.2867 C.3     1  UNL1        0.2117
      9 C          48.4292    9.0072  -28.5797 C.3     1  UNL1        0.0931
     10 C          50.9163    7.1197  -31.5243 C.ar    1  UNL1        0.0018
     11 C          51.5053    7.8654  -30.4912 C.ar    1  UNL1       -0.0011
     12 C          50.7110    8.4768  -29.5212 C.ar    1  UNL1        0.0146
     13 C          49.3219    8.3185  -29.5721 C.ar    1  UNL1        0.0633
     14 N          48.7660    7.5863  -30.5748 N.ar    1  UNL1       -0.2432
     15 C          49.5119    6.9854  -31.5390 C.ar    1  UNL1        0.1110
     16 BR         48.5883    5.9919  -32.8914 Br      1  UNL1       -0.0284
     17 C          53.2562    6.4660  -32.1067 C.3     1  UNL1        0.0051
     18 C          51.7966    6.4484  -32.5496 C.3     1  UNL1        0.0284
     19 C          46.2830   15.9886  -27.1643 C.3     1  UNL1        0.0468
     20 C          47.4181   16.3884  -26.2007 C.3     1  UNL1        0.1369
     21 S          49.0567   16.4027  -27.0472 S.3     1  UNL1       -0.0482
     22 C          49.2176   18.1498  -26.7083 C.2     1  UNL1        0.2792
     23 O          50.1769   18.8371  -27.1447 O.2     1  UNL1       -0.2625
     24 N          48.1908   18.7177  -25.9218 N.am    1  UNL1       -0.2460
     25 C          47.2088   17.7498  -25.6076 C.2     1  UNL1        0.2392
     26 O          46.2284   18.0224  -24.8651 O.2     1  UNL1       -0.2737
     27 H          48.1604   19.7157  -25.6157 H       1  UNL1        0.1583
@<TRIPOS>BOND
     1    17    18    1
     2    18    10    1
     3    10    11   ar
     4    11    12   ar
     5    12    13   ar
     6    13     9    1
     7     9     8    1
     8     8     7    1
     9     7     1    1
    10     1     2   ar
    11     2     3   ar
    12     3     4   ar
    13     4    19    1
    14    19    20    1
    15    20    21    1
    16    21    22    1
    17    22    23    2
    18    22    24   am
    19    24    25   am
    20    25    26    2
    21     4     5   ar
    22     5     6   ar
    23    13    14   ar
    24    14    15   ar
    25    15    16    1
    26    15    10   ar
    27     6     1   ar
    28    25    20    1
    29    24    27    1
@<TRIPOS>MOLECULE
*****
 27 29 0 0 0
SMALL
GASTEIGER

@<TRIPOS>ATOM
      1 C          51.1811    9.4852  -24.5934 C.ar    1  UNL1        0.1385
      2 C          50.6113    8.3200  -24.0478 C.ar    1  UNL1        0.0366
      3 C          49.7895    8.3995  -22.9204 C.ar    1  UNL1       -0.0011
      4 C          49.5196    9.6410  -22.3232 C.ar    1  UNL1       -0.0206
      5 C          50.1071   10.7990  -22.8569 C.ar    1  UNL1       -0.0011
      6 C          50.9371   10.7172  -23.9775 C.ar    1  UNL1        0.0366
      7 O          51.9855    9.4667  -25.7433 O.3     1  UNL1       -0.4750
      8 C          51.6506   10.0696  -26.9954 C.3     1  UNL1        0.2117
      9 C          50.4735    9.3497  -27.6663 C.3     1  UNL1        0.0931
     10 C          51.6530    7.3825  -31.2937 C.ar    1  UNL1        0.0018
     11 C          52.6231    8.0064  -30.4938 C.ar    1  UNL1       -0.0011
     12 C          52.2569    8.6415  -29.3071 C.ar    1  UNL1        0.0146
     13 C          50.9162    8.6289  -28.9075 C.ar    1  UNL1        0.0633
     14 N          49.9885    8.0134  -29.6891 N.ar    1  UNL1       -0.2432
     15 C          50.3123    7.3933  -30.8544 C.ar    1  UNL1        0.1110
     16 BR         48.8969    6.5749  -31.8524 Br      1  UNL1       -0.0284
     17 C          53.5614    6.3391  -32.5229 C.3     1  UNL1        0.0051
     18 C          52.0755    6.6820  -32.5616 C.3     1  UNL1        0.0284
     19 C          48.5819    9.7353  -21.1415 C.3     1  UNL1        0.0468
     20 C          48.6614   11.0876  -20.4053 C.3     1  UNL1        0.1369
     21 S          47.1351   12.0915  -20.6581 S.3     1  UNL1       -0.0482
     22 C          46.8135   12.0468  -18.9009 C.2     1  UNL1        0.2792
     23 O          45.7684   12.5292  -18.3929 O.2     1  UNL1       -0.2625
     24 N          47.8074   11.4256  -18.1124 N.am    1  UNL1       -0.2460
     25 C          48.8478   10.9210  -18.9266 C.2     1  UNL1        0.2392
     26 O          49.8691   10.3767  -18.4291 O.2     1  UNL1       -0.2737
     27 H          47.7772   11.3483  -17.0714 H       1  UNL1        0.1583
@<TRIPOS>BOND
     1    17    18    1
     2    18    10    1
     3    10    11   ar
     4    11    12   ar
     5    12    13   ar
     6    13     9    1
     7     9     8    1
     8     8     7    1
     9     7     1    1
    10     1     2   ar
    11     2     3   ar
    12     3     4   ar
    13     4    19    1
    14    19    20    1
    15    20    21    1
    16    21    22    1
    17    22    23    2
    18    22    24   am
    19    24    25   am
    20    25    26    2
    21     4     5   ar
    22     5     6   ar
    23    13    14   ar
    24    14    15   ar
    25    15    16    1
    26    15    10   ar
    27     6     1   ar
    28    25    20    1
    29    24    27    1
@<TRIPOS>MOLECULE
*****
 27 29 0 0 0
SMALL
GASTEIGER

@<TRIPOS>ATOM
      1 C          50.2764   17.3867  -25.9044 C.ar    1  UNL1        0.1385
      2 C          50.0323   16.2943  -26.7570 C.ar    1  UNL1        0.0366
      3 C          50.1579   14.9868  -26.2799 C.ar    1  UNL1       -0.0011
      4 C          50.5239   14.7489  -24.9456 C.ar    1  UNL1       -0.0206
      5 C          50.7880   15.8406  -24.1035 C.ar    1  UNL1       -0.0011
      6 C          50.6725   17.1471  -24.5843 C.ar    1  UNL1        0.0366
      7 O          50.1322   18.7189  -26.3218 O.3     1  UNL1       -0.4750
      8 C          48.9009   19.3356  -26.7050 C.3     1  UNL1        0.2117
      9 C          47.9027   19.3642  -25.5402 C.3     1  UNL1        0.0931
     10 C          46.2755   15.4329  -24.9778 C.ar    1  UNL1        0.0018
     11 C          46.6765   16.1856  -23.8630 C.ar    1  UNL1       -0.0011
     12 C          47.1981   17.4686  -24.0287 C.ar    1  UNL1        0.0146
     13 C          47.2943   18.0093  -25.3153 C.ar    1  UNL1        0.0633
     14 N          46.8945   17.2710  -26.3855 N.ar    1  UNL1       -0.2432
     15 C          46.3899   16.0155  -26.2577 C.ar    1  UNL1        0.1110
     16 BR         45.8746   15.0944  -27.8562 Br      1  UNL1       -0.0284
     17 C          46.6766   13.1553  -24.0327 C.3     1  UNL1        0.0051
     18 C          45.6930   14.0561  -24.7728 C.3     1  UNL1        0.0284
     19 C          50.6002   13.3367  -24.4121 C.3     1  UNL1        0.0468
     20 C          51.1392   12.3233  -25.4413 C.3     1  UNL1        0.1369
     21 S          52.7477   11.5978  -24.9048 S.3     1  UNL1       -0.0482
     22 C          52.0039    9.9734  -24.8684 C.2     1  UNL1        0.2792
     23 O          52.6219    8.9564  -24.4599 O.2     1  UNL1       -0.2625
     24 N          50.6681    9.9016  -25.3219 N.am    1  UNL1       -0.2460
     25 C          50.1897   11.1857  -25.6718 C.2     1  UNL1        0.2392
     26 O          49.0389   11.3507  -26.1567 O.2     1  UNL1       -0.2737
     27 H          50.1100    9.0215  -25.3883 H       1  UNL1        0.1583
@<TRIPOS>BOND
     1    17    18    1
     2    18    10    1
     3    10    11   ar
     4    11    12   ar
     5    12    13   ar
     6    13     9    1
     7     9     8    1
     8     8     7    1
     9     7     1    1
    10     1     2   ar
    11     2     3   ar
    12     3     4   ar
    13     4    19    1
    14    19    20    1
    15    20    21    1
    16    21    22    1
    17    22    23    2
    18    22    24   am
    19    24    25   am
    20    25    26    2
    21     4     5   ar
    22     5     6   ar
    23    13    14   ar
    24    14    15   ar
    25    15    16    1
    26    15    10   ar
    27     6     1   ar
    28    25    20    1
    29    24    27    1
@<TRIPOS>MOLECULE
*****
 27 29 0 0 0
SMALL
GASTEIGER

@<TRIPOS>ATOM
      1 C          48.1241   15.7356  -24.8453 C.ar    1  UNL1        0.1385
      2 C          49.5182   15.8782  -24.7185 C.ar    1  UNL1        0.0366
      3 C          50.2317   15.0649  -23.8339 C.ar    1  UNL1       -0.0011
      4 C          49.5674   14.0949  -23.0667 C.ar    1  UNL1       -0.0206
      5 C          48.1737   13.9700  -23.1794 C.ar    1  UNL1       -0.0011
      6 C          47.4600   14.7906  -24.0560 C.ar    1  UNL1        0.0366
      7 O          47.3639   16.5021  -25.7421 O.3     1  UNL1       -0.4750
      8 C          47.1288   16.1762  -27.1139 C.3     1  UNL1        0.2117
      9 C          45.7804   15.4677  -27.2978 C.3     1  UNL1        0.0931
     10 C          46.3877   11.7411  -29.3381 C.ar    1  UNL1        0.0018
     11 C          46.5637   11.8092  -27.9473 C.ar    1  UNL1       -0.0011
     12 C          46.3606   13.0107  -27.2685 C.ar    1  UNL1        0.0146
     13 C          45.9544   14.1425  -27.9834 C.ar    1  UNL1        0.0633
     14 N          45.7802   14.0593  -29.3299 N.ar    1  UNL1       -0.2432
     15 C          45.9780   12.9058  -30.0209 C.ar    1  UNL1        0.1110
     16 BR         45.7000   12.9425  -31.9158 Br      1  UNL1       -0.0284
     17 C          47.6008    9.5573  -29.3041 C.3     1  UNL1        0.0051
     18 C          46.5909   10.4252  -30.0482 C.3     1  UNL1        0.0284
     19 C          50.3457   13.1735  -22.1556 C.3     1  UNL1        0.0468
     20 C          50.9402   13.8894  -20.9264 C.3     1  UNL1        0.1369
     21 S          50.3720   13.1203  -19.3494 S.3     1  UNL1       -0.0482
     22 C          52.0616   12.7048  -18.9421 C.2     1  UNL1        0.2792
     23 O          52.3646   12.0268  -17.9264 O.2     1  UNL1       -0.2625
     24 N          53.0424   13.1805  -19.8404 N.am    1  UNL1       -0.2460
     25 C          52.4397   13.8637  -20.9222 C.2     1  UNL1        0.2392
     26 O          53.1298   14.4220  -21.8159 O.2     1  UNL1       -0.2737
     27 H          54.0712   13.0451  -19.7227 H       1  UNL1        0.1583
@<TRIPOS>BOND
     1    17    18    1
     2    18    10    1
     3    10    11   ar
     4    11    12   ar
     5    12    13   ar
     6    13     9    1
     7     9     8    1
     8     8     7    1
     9     7     1    1
    10     1     2   ar
    11     2     3   ar
    12     3     4   ar
    13     4    19    1
    14    19    20    1
    15    20    21    1
    16    21    22    1
    17    22    23    2
    18    22    24   am
    19    24    25   am
    20    25    26    2
    21     4     5   ar
    22     5     6   ar
    23    13    14   ar
    24    14    15   ar
    25    15    16    1
    26    15    10   ar
    27     6     1   ar
    28    25    20    1
    29    24    27    1
@<TRIPOS>MOLECULE
*****
 27 29 0 0 0
SMALL
GASTEIGER

@<TRIPOS>ATOM
      1 C          46.0586   12.0051  -26.1429 C.ar    1  UNL1        0.1385
      2 C          47.4044   11.8894  -25.7489 C.ar    1  UNL1        0.0366
      3 C          47.7701   12.1102  -24.4183 C.ar    1  UNL1       -0.0011
      4 C          46.8000   12.4447  -23.4604 C.ar    1  UNL1       -0.0206
      5 C          45.4613   12.5806  -23.8609 C.ar    1  UNL1       -0.0011
      6 C          45.0984   12.3701  -25.1933 C.ar    1  UNL1        0.0366
      7 O          45.6317   11.7613  -27.4574 O.3     1  UNL1       -0.4750
      8 C          46.3451   12.1314  -28.6395 C.3     1  UNL1        0.2117
      9 C          45.9634   13.5426  -29.1051 C.3     1  UNL1        0.0931
     10 C          46.9810   16.5212  -26.1876 C.ar    1  UNL1        0.0018
     11 C          45.6791   16.4758  -26.7101 C.ar    1  UNL1       -0.0011
     12 C          45.3302   15.5076  -27.6517 C.ar    1  UNL1        0.0146
     13 C          46.2832   14.5650  -28.0521 C.ar    1  UNL1        0.0633
     14 N          47.5387   14.6166  -27.5311 N.ar    1  UNL1       -0.2432
     15 C          47.9117   15.5522  -26.6185 C.ar    1  UNL1        0.1110
     16 BR         49.7166   15.5045  -25.9789 Br      1  UNL1       -0.0284
     17 C          46.8588   17.1310  -23.7679 C.3     1  UNL1        0.0051
     18 C          47.3294   17.5630  -25.1532 C.3     1  UNL1        0.0284
     19 C          47.1851   12.6233  -22.0097 C.3     1  UNL1        0.0468
     20 C          46.9929   11.3477  -21.1654 C.3     1  UNL1        0.1369
     21 S          48.4273   10.2001  -21.3290 S.3     1  UNL1       -0.0482
     22 C          48.7569   10.3612  -19.5801 C.2     1  UNL1        0.2792
     23 O          49.7587    9.8348  -19.0302 O.2     1  UNL1       -0.2625
     24 N          47.8221   11.1275  -18.8492 N.am    1  UNL1       -0.2460
     25 C          46.8259   11.6504  -19.7061 C.2     1  UNL1        0.2392
     26 O          45.8563   12.3187  -19.2589 O.2     1  UNL1       -0.2737
     27 H          47.8620   11.2871  -17.8179 H       1  UNL1        0.1583
@<TRIPOS>BOND
     1    17    18    1
     2    18    10    1
     3    10    11   ar
     4    11    12   ar
     5    12    13   ar
     6    13     9    1
     7     9     8    1
     8     8     7    1
     9     7     1    1
    10     1     2   ar
    11     2     3   ar
    12     3     4   ar
    13     4    19    1
    14    19    20    1
    15    20    21    1
    16    21    22    1
    17    22    23    2
    18    22    24   am
    19    24    25   am
    20    25    26    2
    21     4     5   ar
    22     5     6   ar
    23    13    14   ar
    24    14    15   ar
    25    15    16    1
    26    15    10   ar
    27     6     1   ar
    28    25    20    1
    29    24    27    1
@<TRIPOS>MOLECULE
*****
 27 29 0 0 0
SMALL
GASTEIGER

@<TRIPOS>ATOM
      1 C          46.1450   12.5638  -26.0197 C.ar    1  UNL1        0.1385
      2 C          47.4386   12.1227  -25.6850 C.ar    1  UNL1        0.0366
      3 C          47.7429   11.7684  -24.3678 C.ar    1  UNL1       -0.0011
      4 C          46.7621   11.8441  -23.3664 C.ar    1  UNL1       -0.0206
      5 C          45.4786   12.3053  -23.6993 C.ar    1  UNL1       -0.0011
      6 C          45.1783   12.6693  -25.0140 C.ar    1  UNL1        0.0366
      7 O          45.7762   12.8994  -27.3315 O.3     1  UNL1       -0.4750
      8 C          46.2878   14.0077  -28.0754 C.3     1  UNL1        0.2117
      9 C          45.9318   15.3423  -27.4076 C.3     1  UNL1        0.0931
     10 C          49.4200   17.6277  -26.3929 C.ar    1  UNL1        0.0018
     11 C          49.5651   16.3511  -26.9581 C.ar    1  UNL1       -0.0011
     12 C          48.4412   15.6000  -27.3022 C.ar    1  UNL1        0.0146
     13 C          47.1667   16.1414  -27.1029 C.ar    1  UNL1        0.0633
     14 N          47.0419   17.3831  -26.5615 N.ar    1  UNL1       -0.2432
     15 C          48.1168   18.1361  -26.2082 C.ar    1  UNL1        0.1110
     16 BR         47.7852   19.8640  -25.4510 Br      1  UNL1       -0.0284
     17 C          51.4393   17.7630  -24.9281 C.3     1  UNL1        0.0051
     18 C          50.6501   18.4313  -26.0495 C.3     1  UNL1        0.0284
     19 C          47.0728   11.4029  -21.9545 C.3     1  UNL1        0.0468
     20 C          48.5832   11.2714  -21.6742 C.3     1  UNL1        0.1369
     21 S          49.0452   12.0332  -20.0594 S.3     1  UNL1       -0.0482
     22 C          49.5957   10.4407  -19.4645 C.2     1  UNL1        0.2792
     23 O          49.9851   10.2590  -18.2819 O.2     1  UNL1       -0.2625
     24 N          49.5595    9.3893  -20.4072 N.am    1  UNL1       -0.2460
     25 C          49.0337    9.8414  -21.6397 C.2     1  UNL1        0.2392
     26 O          48.9629    9.0838  -22.6436 O.2     1  UNL1       -0.2737
     27 H          49.8761    8.4121  -20.2192 H       1  UNL1        0.1583
@<TRIPOS>BOND
     1    17    18    1
     2    18    10    1
     3    10    11   ar
     4    11    12   ar
     5    12    13   ar
     6    13     9    1
     7     9     8    1
     8     8     7    1
     9     7     1    1
    10     1     2   ar
    11     2     3   ar
    12     3     4   ar
    13     4    19    1
    14    19    20    1
    15    20    21    1
    16    21    22    1
    17    22    23    2
    18    22    24   am
    19    24    25   am
    20    25    26    2
    21     4     5   ar
    22     5     6   ar
    23    13    14   ar
    24    14    15   ar
    25    15    16    1
    26    15    10   ar
    27     6     1   ar
    28    25    20    1
    29    24    27    1
