@<TRIPOS>MOLECULE
*****
 52 58 0 0 0
SMALL
GASTEIGER

@<TRIPOS>ATOM
      1 C          58.4789   84.0258   11.1387 C.ar    1  UNL1        0.0481
      2 C          58.4080   84.2653   12.5194 C.ar    1  UNL1        0.0176
      3 C          58.3466   83.1998   13.4220 C.ar    1  UNL1        0.0382
      4 C          58.3603   81.8713   12.9547 C.ar    1  UNL1        0.1388
      5 C          58.4266   81.6356   11.5769 C.ar    1  UNL1        0.0382
      6 C          58.4886   82.7007   10.6743 C.ar    1  UNL1        0.0176
      7 N          59.2287   87.1302    8.4144 N.pl3   1  UNL1       -0.3041
      8 C          59.6019   87.3129    9.8222 C.3     1  UNL1        0.1122
      9 C          58.6668   86.5022   10.7201 C.3     1  UNL1        0.1122
     10 N          58.5470   85.1289   10.2154 N.pl3   1  UNL1       -0.3041
     11 C          58.1730   84.9464    8.8079 C.3     1  UNL1        0.1122
     12 C          59.1079   85.7571    7.9097 C.3     1  UNL1        0.1122
     13 C          59.4614   90.3899    5.6838 C.ar    1  UNL1        0.0695
     14 C          58.2981   89.6081    5.7550 C.ar    1  UNL1        0.0190
     15 C          58.2184   88.5387    6.6513 C.ar    1  UNL1        0.0160
     16 C          59.3028   88.2320    7.4900 C.ar    1  UNL1        0.0480
     17 C          60.4697   89.0076    7.4101 C.ar    1  UNL1        0.0160
     18 C          60.5493   90.0759    6.5126 C.ar    1  UNL1        0.0190
     19 N          60.3553   93.0073    3.3485 N.ar    1  UNL1       -0.2028
     20 N          59.0457   93.2032    3.4079 N.ar    1  UNL1       -0.1521
     21 C          58.5653   92.2855    4.2760 C.ar    1  UNL1        0.1479
     22 C          57.1170   92.1878    4.6373 C.3     1  UNL1        0.0742
     23 N          59.5502   91.4875    4.7581 N.ar    1  UNL1       -0.2457
     24 C          60.6524   91.9725    4.1556 C.ar    1  UNL1        0.3519
     25 O          61.8114   91.4983    4.3048 O.2     1  UNL1       -0.2444
     26 C          61.2702   93.7543    2.4797 C.3     1  UNL1        0.1099
     27 C          60.5074   94.8858    1.7784 C.3     1  UNL1        0.0265
     28 C          61.0134   92.4350    0.3031 C.3     1  UNL1        0.0021
     29 C          61.9277   92.7856    1.4772 C.3     1  UNL1        0.0245
     30 O          58.3031   80.7615   13.8135 O.3     1  UNL1       -0.4727
     31 C          59.4091   79.9329   14.1750 C.3     1  UNL1        0.2374
     32 C          60.6807   80.3528   13.4255 C.3     1  UNL1        0.1909
     33 C          61.9363   79.9156   14.1200 C.3     1  UNL1        0.1783
     34 O          62.8678   80.9189   13.8777 O.3     1  UNL1       -0.3271
     35 C          62.1333   82.0621   13.4844 C.3     1  UNL1        0.2232
     36 O          60.7596   81.7396   13.3593 O.3     1  UNL1       -0.3258
     37 C          62.6493   82.6075   12.1466 C.ar    1  UNL1        0.0404
     38 C          61.7361   83.2644   11.2922 C.ar    1  UNL1        0.0021
     39 C          62.1496   83.8134   10.0779 C.ar    1  UNL1        0.0113
     40 C          63.4868   83.7388    9.6955 C.ar    1  UNL1        0.0585
     41 CL         64.0041   84.4337    8.1701 Cl      1  UNL1       -0.0822
     42 C          64.4164   83.1255   10.5350 C.ar    1  UNL1        0.0226
     43 C          64.0195   82.5700   11.7586 C.ar    1  UNL1        0.0591
     44 CL         65.3000   81.8784   12.7537 Cl      1  UNL1       -0.0824
     45 C          62.2607   83.1475   14.5698 C.3     1  UNL1        0.1338
     46 N          62.6182   84.4558   13.9687 N.3     1  UNL1       -0.2659
     47 C          61.5544   85.4663   14.1245 C.3     1  UNL1        0.0898
     48 C          61.3919   85.9209   15.5928 C.3     1  UNL1        0.0897
     49 N          62.5523   85.5339   16.4214 N.3     1  UNL1       -0.2691
     50 C          62.5115   86.2299   17.7158 C.3     1  UNL1        0.0897
     51 C          63.8115   85.8269   15.7174 C.3     1  UNL1        0.0897
     52 C          63.9255   84.9719   14.4372 C.3     1  UNL1        0.0898
@<TRIPOS>BOND
     1    28    29    1
     2    29    26    1
     3    26    27    1
     4    26    19    1
     5    19    20   ar
     6    20    21   ar
     7    21    22    1
     8    21    23   ar
     9    23    13    1
    10    13    14   ar
    11    14    15   ar
    12    15    16   ar
    13    16     7    1
    14     7     8    1
    15     8     9    1
    16     9    10    1
    17    10     1    1
    18     1     2   ar
    19     2     3   ar
    20     3     4   ar
    21     4    30    1
    22    30    31    1
    23    31    32    1
    24    32    33    1
    25    33    34    1
    26    34    35    1
    27    35    45    1
    28    45    46    1
    29    46    47    1
    30    47    48    1
    31    48    49    1
    32    49    50    1
    33    49    51    1
    34    51    52    1
    35    35    37    1
    36    37    38   ar
    37    38    39   ar
    38    39    40   ar
    39    40    41    1
    40    40    42   ar
    41    42    43   ar
    42    43    44    1
    43    35    36    1
    44     4     5   ar
    45     5     6   ar
    46    10    11    1
    47    11    12    1
    48    16    17   ar
    49    17    18   ar
    50    23    24   ar
    51    24    25    2
    52    24    19   ar
    53    18    13   ar
    54    12     7    1
    55     6     1   ar
    56    36    32    1
    57    52    46    1
    58    43    37   ar
@<TRIPOS>MOLECULE
*****
 52 58 0 0 0
SMALL
GASTEIGER

@<TRIPOS>ATOM
      1 C          59.3512   86.0421   10.4102 C.ar    1  UNL1        0.0481
      2 C          58.2913   85.3621   11.0291 C.ar    1  UNL1        0.0176
      3 C          57.4611   84.5170   10.2871 C.ar    1  UNL1        0.0382
      4 C          57.6829   84.3347    8.9083 C.ar    1  UNL1        0.1388
      5 C          58.7380   85.0177    8.2930 C.ar    1  UNL1        0.0382
      6 C          59.5685   85.8621    9.0347 C.ar    1  UNL1        0.0176
      7 N          62.2700   88.3158   12.3932 N.pl3   1  UNL1       -0.3041
      8 C          62.0496   86.9245   12.8059 C.3     1  UNL1        0.1122
      9 C          60.5966   86.5260   12.5450 C.3     1  UNL1        0.1122
     10 N          60.2052   86.9070   11.1825 N.pl3   1  UNL1       -0.3041
     11 C          60.4250   88.2984   10.7702 C.3     1  UNL1        0.1122
     12 C          61.8779   88.6972   11.0310 C.3     1  UNL1        0.1122
     13 C          64.8117   90.8573   14.6769 C.ar    1  UNL1        0.0695
     14 C          64.3856   91.2472   13.3979 C.ar    1  UNL1        0.0190
     15 C          63.5502   90.4157   12.6469 C.ar    1  UNL1        0.0160
     16 C          63.1290   89.1787   13.1622 C.ar    1  UNL1        0.0480
     17 C          63.5647   88.7849   14.4369 C.ar    1  UNL1        0.0160
     18 C          64.4012   89.6161   15.1869 C.ar    1  UNL1        0.0190
     19 N          67.4852   92.7468   16.2216 N.ar    1  UNL1       -0.2028
     20 N          66.4616   93.1861   16.9401 N.ar    1  UNL1       -0.1521
     21 C          65.3690   92.5405   16.4755 C.ar    1  UNL1        0.1479
     22 C          64.0005   92.7452   17.0437 C.3     1  UNL1        0.0742
     23 N          65.6770   91.7070   15.4509 N.ar    1  UNL1       -0.2457
     24 C          67.0084   91.8640   15.3250 C.ar    1  UNL1        0.3519
     25 O          67.7143   91.2814   14.4575 O.2     1  UNL1       -0.2444
     26 C          68.8640   93.2267   16.3568 C.3     1  UNL1        0.1099
     27 C          68.9781   94.6406   15.7721 C.3     1  UNL1        0.0265
     28 C          70.1720   92.6395   14.2382 C.3     1  UNL1        0.0021
     29 C          69.8206   92.2326   15.6694 C.3     1  UNL1        0.0245
     30 O          56.8837   83.4976    8.1128 O.3     1  UNL1       -0.4727
     31 C          57.2844   82.2395    7.5675 C.3     1  UNL1        0.2374
     32 C          58.7871   82.0038    7.7712 C.3     1  UNL1        0.1909
     33 C          59.2669   80.7307    7.1397 C.3     1  UNL1        0.1783
     34 O          60.2676   80.2505    7.9770 O.3     1  UNL1       -0.3271
     35 C          60.0946   80.8993    9.2222 C.3     1  UNL1        0.2232
     36 O          59.0701   81.8730    9.1263 O.3     1  UNL1       -0.3258
     37 C          61.3966   81.5764    9.6691 C.ar    1  UNL1        0.0404
     38 C          61.4548   82.9878    9.6659 C.ar    1  UNL1        0.0021
     39 C          62.5972   83.6648   10.0940 C.ar    1  UNL1        0.0113
     40 C          63.7016   82.9519   10.5547 C.ar    1  UNL1        0.0585
     41 CL         65.1349   83.8062   11.0961 Cl      1  UNL1       -0.0822
     42 C          63.6594   81.5586   10.6005 C.ar    1  UNL1        0.0226
     43 C          62.5201   80.8622   10.1759 C.ar    1  UNL1        0.0591
     44 CL         62.5712   79.1076   10.3412 Cl      1  UNL1       -0.0824
     45 C          59.6592   79.8663   10.2784 C.3     1  UNL1        0.1338
     46 N          58.6422   80.4420   11.1921 N.3     1  UNL1       -0.2659
     47 C          58.4549   79.6407   12.4169 C.3     1  UNL1        0.0898
     48 C          59.6804   79.7147   13.3557 C.3     1  UNL1        0.0897
     49 N          60.5778   80.8345   13.0037 N.3     1  UNL1       -0.2691
     50 C          61.5558   81.0633   14.0773 C.3     1  UNL1        0.0897
     51 C          59.8012   82.0579   12.7439 C.3     1  UNL1        0.0897
     52 C          58.8900   81.8671   11.5124 C.3     1  UNL1        0.0898
@<TRIPOS>BOND
     1    28    29    1
     2    29    26    1
     3    26    27    1
     4    26    19    1
     5    19    20   ar
     6    20    21   ar
     7    21    22    1
     8    21    23   ar
     9    23    13    1
    10    13    14   ar
    11    14    15   ar
    12    15    16   ar
    13    16     7    1
    14     7     8    1
    15     8     9    1
    16     9    10    1
    17    10     1    1
    18     1     2   ar
    19     2     3   ar
    20     3     4   ar
    21     4    30    1
    22    30    31    1
    23    31    32    1
    24    32    33    1
    25    33    34    1
    26    34    35    1
    27    35    45    1
    28    45    46    1
    29    46    47    1
    30    47    48    1
    31    48    49    1
    32    49    50    1
    33    49    51    1
    34    51    52    1
    35    35    37    1
    36    37    38   ar
    37    38    39   ar
    38    39    40   ar
    39    40    41    1
    40    40    42   ar
    41    42    43   ar
    42    43    44    1
    43    35    36    1
    44     4     5   ar
    45     5     6   ar
    46    10    11    1
    47    11    12    1
    48    16    17   ar
    49    17    18   ar
    50    23    24   ar
    51    24    25    2
    52    24    19   ar
    53    18    13   ar
    54    12     7    1
    55     6     1   ar
    56    36    32    1
    57    52    46    1
    58    43    37   ar
@<TRIPOS>MOLECULE
*****
 52 58 0 0 0
SMALL
GASTEIGER

@<TRIPOS>ATOM
      1 C          59.1630   87.2759   10.0518 C.ar    1  UNL1        0.0481
      2 C          58.3656   86.1300    9.9112 C.ar    1  UNL1        0.0176
      3 C          58.0048   85.3749   11.0308 C.ar    1  UNL1        0.0382
      4 C          58.4345   85.7599   12.3156 C.ar    1  UNL1        0.1388
      5 C          59.2333   86.9006   12.4523 C.ar    1  UNL1        0.0382
      6 C          59.5937   87.6559   11.3331 C.ar    1  UNL1        0.0176
      7 N          59.7708   89.8529    6.7944 N.pl3   1  UNL1       -0.3041
      8 C          58.7218   88.8300    6.7068 C.3     1  UNL1        0.1122
      9 C          59.1018   87.6176    7.5574 C.3     1  UNL1        0.1122
     10 N          59.5262   88.0513    8.8940 N.pl3   1  UNL1       -0.3041
     11 C          60.5759   89.0736    8.9815 C.3     1  UNL1        0.1122
     12 C          60.1961   90.2862    8.1309 C.3     1  UNL1        0.1122
     13 C          60.8438   92.1507    3.3732 C.ar    1  UNL1        0.0695
     14 C          59.5748   92.2970    3.9543 C.ar    1  UNL1        0.0190
     15 C          59.2206   91.5453    5.0781 C.ar    1  UNL1        0.0160
     16 C          60.1297   90.6325    5.6379 C.ar    1  UNL1        0.0480
     17 C          61.3944   90.4789    5.0494 C.ar    1  UNL1        0.0160
     18 C          61.7475   91.2297    3.9248 C.ar    1  UNL1        0.0190
     19 N          62.3648   94.1626    0.7766 N.ar    1  UNL1       -0.2028
     20 N          61.1845   93.9369    0.2172 N.ar    1  UNL1       -0.1521
     21 C          60.4839   93.1916    1.1005 C.ar    1  UNL1        0.1479
     22 C          59.0804   92.7390    0.8497 C.3     1  UNL1        0.0742
     23 N          61.2103   92.9175    2.2125 N.ar    1  UNL1       -0.2457
     24 C          62.3778   93.5435    1.9712 C.ar    1  UNL1        0.3519
     25 O          63.3683   93.5265    2.7515 O.2     1  UNL1       -0.2444
     26 C          63.4636   94.8922    0.1363 C.3     1  UNL1        0.1099
     27 C          63.5586   94.4897   -1.3412 C.3     1  UNL1        0.0265
     28 C          65.4884   93.3547    0.4191 C.3     1  UNL1        0.0021
     29 C          64.7734   94.6171    0.9009 C.3     1  UNL1        0.0245
     30 O          58.1019   85.0424   13.4763 O.3     1  UNL1       -0.4727
     31 C          58.6593   83.7857   13.8644 C.3     1  UNL1        0.2374
     32 C          58.5361   82.7552   12.7339 C.3     1  UNL1        0.1909
     33 C          58.8584   81.3601   13.1810 C.3     1  UNL1        0.1783
     34 O          59.4675   80.7482   12.0913 O.3     1  UNL1       -0.3271
     35 C          59.8995   81.7891   11.2363 C.3     1  UNL1        0.2232
     36 O          59.4514   83.0403   11.7266 O.3     1  UNL1       -0.3258
     37 C          59.3653   81.5821    9.8132 C.ar    1  UNL1        0.0404
     38 C          58.2310   82.3200    9.4078 C.ar    1  UNL1        0.0021
     39 C          57.7171   82.2035    8.1159 C.ar    1  UNL1        0.0113
     40 C          58.3335   81.3642    7.1908 C.ar    1  UNL1        0.0585
     41 CL         57.6873   81.2232    5.5660 Cl      1  UNL1       -0.0822
     42 C          59.4747   80.6493    7.5535 C.ar    1  UNL1        0.0226
     43 C          60.0054   80.7551    8.8459 C.ar    1  UNL1        0.0591
     44 CL         61.4842   79.8476    9.1590 Cl      1  UNL1       -0.0824
     45 C          61.4392   81.8220   11.2116 C.3     1  UNL1        0.1338
     46 N          61.9301   82.9774   10.4212 N.3     1  UNL1       -0.2659
     47 C          61.6863   84.2710   11.0877 C.3     1  UNL1        0.0898
     48 C          62.5683   84.4559   12.3434 C.3     1  UNL1        0.0897
     49 N          63.6883   83.4928   12.3770 N.3     1  UNL1       -0.2691
     50 C          64.6666   83.8815   13.4035 C.3     1  UNL1        0.0897
     51 C          64.3335   83.4032   11.0569 C.3     1  UNL1        0.0897
     52 C          63.3472   82.8402   10.0114 C.3     1  UNL1        0.0898
@<TRIPOS>BOND
     1    28    29    1
     2    29    26    1
     3    26    27    1
     4    26    19    1
     5    19    20   ar
     6    20    21   ar
     7    21    22    1
     8    21    23   ar
     9    23    13    1
    10    13    14   ar
    11    14    15   ar
    12    15    16   ar
    13    16     7    1
    14     7     8    1
    15     8     9    1
    16     9    10    1
    17    10     1    1
    18     1     2   ar
    19     2     3   ar
    20     3     4   ar
    21     4    30    1
    22    30    31    1
    23    31    32    1
    24    32    33    1
    25    33    34    1
    26    34    35    1
    27    35    45    1
    28    45    46    1
    29    46    47    1
    30    47    48    1
    31    48    49    1
    32    49    50    1
    33    49    51    1
    34    51    52    1
    35    35    37    1
    36    37    38   ar
    37    38    39   ar
    38    39    40   ar
    39    40    41    1
    40    40    42   ar
    41    42    43   ar
    42    43    44    1
    43    35    36    1
    44     4     5   ar
    45     5     6   ar
    46    10    11    1
    47    11    12    1
    48    16    17   ar
    49    17    18   ar
    50    23    24   ar
    51    24    25    2
    52    24    19   ar
    53    18    13   ar
    54    12     7    1
    55     6     1   ar
    56    36    32    1
    57    52    46    1
    58    43    37   ar
@<TRIPOS>MOLECULE
*****
 52 58 0 0 0
SMALL
GASTEIGER

@<TRIPOS>ATOM
      1 C          60.2660   88.1409   10.8235 C.ar    1  UNL1        0.0481
      2 C          59.0695   87.5301   11.2286 C.ar    1  UNL1        0.0176
      3 C          58.9615   86.9530   12.4972 C.ar    1  UNL1        0.0382
      4 C          60.0534   86.9828   13.3863 C.ar    1  UNL1        0.1388
      5 C          61.2468   87.5887   12.9778 C.ar    1  UNL1        0.0382
      6 C          61.3547   88.1662   11.7099 C.ar    1  UNL1        0.0176
      7 N          60.0864   90.1532    7.1439 N.pl3   1  UNL1       -0.3041
      8 C          59.1990   89.0065    7.3723 C.3     1  UNL1        0.1122
      9 C          59.8552   88.0228    8.3416 C.3     1  UNL1        0.1122
     10 N          60.3676   88.7376    9.5169 N.pl3   1  UNL1       -0.3041
     11 C          61.2556   89.8838    9.2884 C.3     1  UNL1        0.1122
     12 C          60.5997   90.8677    8.3190 C.3     1  UNL1        0.1122
     13 C          60.3599   91.9348    3.2856 C.ar    1  UNL1        0.0695
     14 C          61.4670   91.2741    3.8400 C.ar    1  UNL1        0.0190
     15 C          61.3795   90.6872    5.1054 C.ar    1  UNL1        0.0160
     16 C          60.1832   90.7537    5.8385 C.ar    1  UNL1        0.0480
     17 C          59.0801   91.4242    5.2879 C.ar    1  UNL1        0.0160
     18 C          59.1686   92.0122    4.0231 C.ar    1  UNL1        0.0190
     19 N          59.9014   93.3765   -0.0030 N.ar    1  UNL1       -0.2028
     20 N          61.2103   93.5391    0.1280 N.ar    1  UNL1       -0.1521
     21 C          61.5369   93.0205    1.3326 C.ar    1  UNL1        0.1479
     22 C          62.9393   92.9912    1.8522 C.3     1  UNL1        0.0742
     23 N          60.4474   92.5461    1.9863 N.ar    1  UNL1       -0.2457
     24 C          59.4471   92.7858    1.1174 C.ar    1  UNL1        0.3519
     25 O          58.2344   92.5189    1.3378 O.2     1  UNL1       -0.2444
     26 C          59.1144   93.8474   -1.1470 C.3     1  UNL1        0.1099
     27 C          58.0911   94.8890   -0.6758 C.3     1  UNL1        0.0265
     28 C          56.9216   92.6542   -1.7057 C.3     1  UNL1        0.0021
     29 C          58.4447   92.6426   -1.8368 C.3     1  UNL1        0.0245
     30 O          60.0029   86.4219   14.6728 O.3     1  UNL1       -0.4727
     31 C          61.0110   85.5972   15.2597 C.3     1  UNL1        0.2374
     32 C          61.1277   84.2581   14.5194 C.3     1  UNL1        0.1909
     33 C          62.5283   83.9611   14.0720 C.3     1  UNL1        0.1783
     34 O          62.4007   83.2823   12.8653 O.3     1  UNL1       -0.3271
     35 C          61.0954   83.5501   12.3904 C.3     1  UNL1        0.2232
     36 O          60.3674   84.2885   13.3555 O.3     1  UNL1       -0.3258
     37 C          60.3494   82.2453   12.0827 C.ar    1  UNL1        0.0404
     38 C          61.0409   81.0235   12.2394 C.ar    1  UNL1        0.0021
     39 C          60.4089   79.8010   12.0095 C.ar    1  UNL1        0.0113
     40 C          59.0671   79.7660   11.6377 C.ar    1  UNL1        0.0585
     41 CL         58.2743   78.2272   11.3535 Cl      1  UNL1       -0.0822
     42 C          58.3507   80.9556   11.5082 C.ar    1  UNL1        0.0226
     43 C          58.9687   82.1923   11.7364 C.ar    1  UNL1        0.0591
     44 CL         57.9387   83.6166   11.5987 Cl      1  UNL1       -0.0824
     45 C          61.1838   84.4090   11.1149 C.3     1  UNL1        0.1338
     46 N          62.5094   84.2568   10.4667 N.3     1  UNL1       -0.2659
     47 C          62.6573   82.9683    9.7631 C.3     1  UNL1        0.0898
     48 C          61.7697   82.8877    8.5005 C.3     1  UNL1        0.0897
     49 N          61.2758   84.2177    8.0879 N.3     1  UNL1       -0.2691
     50 C          60.6972   84.1523    6.7378 C.3     1  UNL1        0.0897
     51 C          62.3616   85.2106    8.1363 C.3     1  UNL1        0.0897
     52 C          62.8591   85.3957    9.5859 C.3     1  UNL1        0.0898
@<TRIPOS>BOND
     1    28    29    1
     2    29    26    1
     3    26    27    1
     4    26    19    1
     5    19    20   ar
     6    20    21   ar
     7    21    22    1
     8    21    23   ar
     9    23    13    1
    10    13    14   ar
    11    14    15   ar
    12    15    16   ar
    13    16     7    1
    14     7     8    1
    15     8     9    1
    16     9    10    1
    17    10     1    1
    18     1     2   ar
    19     2     3   ar
    20     3     4   ar
    21     4    30    1
    22    30    31    1
    23    31    32    1
    24    32    33    1
    25    33    34    1
    26    34    35    1
    27    35    45    1
    28    45    46    1
    29    46    47    1
    30    47    48    1
    31    48    49    1
    32    49    50    1
    33    49    51    1
    34    51    52    1
    35    35    37    1
    36    37    38   ar
    37    38    39   ar
    38    39    40   ar
    39    40    41    1
    40    40    42   ar
    41    42    43   ar
    42    43    44    1
    43    35    36    1
    44     4     5   ar
    45     5     6   ar
    46    10    11    1
    47    11    12    1
    48    16    17   ar
    49    17    18   ar
    50    23    24   ar
    51    24    25    2
    52    24    19   ar
    53    18    13   ar
    54    12     7    1
    55     6     1   ar
    56    36    32    1
    57    52    46    1
    58    43    37   ar
