@<TRIPOS>MOLECULE
*****
 34 38 0 0 0
SMALL
GASTEIGER

@<TRIPOS>ATOM
      1 C          48.1048   13.2613  -24.7233 C.2     1  UNL1        0.2490
      2 O          47.9227   12.2999  -25.5197 O.2     1  UNL1       -0.2699
      3 N          47.8598   13.0680  -23.3175 N.am    1  UNL1       -0.2760
      4 C          48.8440   13.4944  -22.3176 C.3     1  UNL1        0.0954
      5 C          49.4274   12.2678  -21.6002 C.3     1  UNL1        0.0399
      6 C          48.3428   11.2876  -21.0665 C.3     1  UNL1        0.0645
      7 C          47.3428   10.9499  -22.2068 C.3     1  UNL1        0.0399
      8 C          46.7651   12.2063  -22.8660 C.3     1  UNL1        0.0954
      9 C          47.5715   11.9129  -19.8459 C.3     1  UNL1        0.0477
     10 C          48.4104   11.8738  -18.6056 C.ar    1  UNL1        0.0220
     11 C          48.3043   12.5702  -17.4244 C.ar    1  UNL1        0.0923
     12 N          49.1891   12.0350  -16.5456 N.ar    1  UNL1       -0.2534
     13 N          49.8172   11.0087  -17.1133 N.ar    1  UNL1       -0.1651
     14 C          49.3419   10.9121  -18.3667 C.ar    1  UNL1        0.1515
     15 C          49.6622    9.9138  -19.3738 C.2     1  UNL1        0.2650
     16 O          50.4508    8.9634  -19.1278 O.2     1  UNL1       -0.2684
     17 N          49.0268   10.0358  -20.6565 N.am    1  UNL1       -0.3023
     18 H          49.2162    9.2931  -21.3676 H       1  UNL1        0.1497
     19 C          47.5228   18.1621  -25.2714 C.ar    1  UNL1        0.2248
     20 N          47.9738   19.3424  -25.7826 N.ar    1  UNL1       -0.2101
     21 C          49.1066   19.4231  -26.5279 C.ar    1  UNL1        0.1021
     22 C          49.8537   18.2763  -26.7955 C.ar    1  UNL1        0.0209
     23 C          49.4254   17.0430  -26.2890 C.ar    1  UNL1        0.0060
     24 C          50.1549   15.8744  -26.5460 C.ar    1  UNL1        0.0003
     25 C          49.7224   14.6483  -26.0361 C.ar    1  UNL1        0.0045
     26 C          48.5577   14.5693  -25.2544 C.ar    1  UNL1        0.0537
     27 C          47.8158   15.7381  -25.0080 C.ar    1  UNL1        0.0092
     28 C          48.2441   16.9775  -25.5147 C.ar    1  UNL1        0.0534
     29 C          46.3548   18.0254  -23.0886 C.3     1  UNL1        0.2542
     30 O          46.3497   18.1287  -24.5074 O.3     1  UNL1       -0.4561
     31 C          49.3797   12.4568  -15.1434 C.3     1  UNL1        0.0867
     32 C          48.7902   11.3927  -14.1971 C.3     1  UNL1        0.0244
     33 C          48.6665   13.8006  -14.8791 C.3     1  UNL1        0.0244
     34 C          50.8838   12.6266  -14.8622 C.3     1  UNL1        0.0244
@<TRIPOS>BOND
     1    29    30    1
     2    30    19    1
     3    19    20   ar
     4    20    21   ar
     5    21    22   ar
     6    22    23   ar
     7    23    24   ar
     8    24    25   ar
     9    25    26   ar
    10    26     1    1
    11     1     2    2
    12     1     3   am
    13     3     4    1
    14     4     5    1
    15     5     6    1
    16     6     7    1
    17     7     8    1
    18     6     9    1
    19     9    10    1
    20    10    11   ar
    21    11    12   ar
    22    12    31    1
    23    31    32    1
    24    31    33    1
    25    31    34    1
    26    12    13   ar
    27    13    14   ar
    28    14    15    1
    29    15    16    2
    30    15    17   am
    31    26    27   ar
    32    27    28   ar
    33    28    19   ar
    34    28    23   ar
    35     8     3    1
    36    14    10   ar
    37    17     6    1
    38    17    18    1
@<TRIPOS>MOLECULE
*****
 34 38 0 0 0
SMALL
GASTEIGER

@<TRIPOS>ATOM
      1 C          49.4973   10.6090  -19.5132 C.2     1  UNL1        0.2490
      2 O          49.0567    9.4412  -19.3295 O.2     1  UNL1       -0.2699
      3 N          49.3383   11.2273  -20.8041 N.am    1  UNL1       -0.2760
      4 C          48.8154   12.5919  -20.9244 C.3     1  UNL1        0.0954
      5 C          47.4466   12.5691  -21.6211 C.3     1  UNL1        0.0399
      6 C          47.4384   11.7518  -22.9454 C.3     1  UNL1        0.0645
      7 C          48.0540   10.3478  -22.6920 C.3     1  UNL1        0.0399
      8 C          49.4319   10.4273  -22.0272 C.3     1  UNL1        0.0954
      9 C          48.2480   12.4961  -24.0706 C.3     1  UNL1        0.0477
     10 C          47.4654   13.6494  -24.6193 C.ar    1  UNL1        0.0220
     11 C          47.8671   14.7459  -25.3460 C.ar    1  UNL1        0.0923
     12 N          46.7529   15.3966  -25.7665 N.ar    1  UNL1       -0.2534
     13 N          45.6709   14.7336  -25.3669 N.ar    1  UNL1       -0.1651
     14 C          46.1064   13.6707  -24.6692 C.ar    1  UNL1        0.1515
     15 C          45.3190   12.6024  -24.0757 C.2     1  UNL1        0.2650
     16 O          44.0666   12.5635  -24.2007 O.2     1  UNL1       -0.2684
     17 N          46.0240   11.5758  -23.3596 N.am    1  UNL1       -0.3023
     18 H          45.4670   10.7799  -22.9730 H       1  UNL1        0.1497
     19 C          49.5755   12.2758  -14.8364 C.ar    1  UNL1        0.2248
     20 N          50.2345   12.9347  -13.8417 N.ar    1  UNL1       -0.2101
     21 C          51.4732   13.4630  -14.0197 C.ar    1  UNL1        0.1021
     22 C          52.1169   13.3428  -15.2510 C.ar    1  UNL1        0.0209
     23 C          51.4749   12.6731  -16.3000 C.ar    1  UNL1        0.0060
     24 C          52.0973   12.5413  -17.5486 C.ar    1  UNL1        0.0003
     25 C          51.4515   11.8707  -18.5896 C.ar    1  UNL1        0.0045
     26 C          50.1759   11.3135  -18.3991 C.ar    1  UNL1        0.0537
     27 C          49.5431   11.4579  -17.1518 C.ar    1  UNL1        0.0092
     28 C          50.1858   12.1289  -16.0969 C.ar    1  UNL1        0.0534
     29 C          47.9442   11.0893  -13.3948 C.3     1  UNL1        0.2542
     30 O          48.2997   11.7469  -14.6050 O.3     1  UNL1       -0.4561
     31 C          46.7242   16.6078  -26.6106 C.3     1  UNL1        0.0867
     32 C          45.6194   16.4709  -27.6763 C.3     1  UNL1        0.0244
     33 C          48.0783   16.8025  -27.3267 C.3     1  UNL1        0.0244
     34 C          46.4455   17.8379  -25.7277 C.3     1  UNL1        0.0244
@<TRIPOS>BOND
     1    29    30    1
     2    30    19    1
     3    19    20   ar
     4    20    21   ar
     5    21    22   ar
     6    22    23   ar
     7    23    24   ar
     8    24    25   ar
     9    25    26   ar
    10    26     1    1
    11     1     2    2
    12     1     3   am
    13     3     4    1
    14     4     5    1
    15     5     6    1
    16     6     7    1
    17     7     8    1
    18     6     9    1
    19     9    10    1
    20    10    11   ar
    21    11    12   ar
    22    12    31    1
    23    31    32    1
    24    31    33    1
    25    31    34    1
    26    12    13   ar
    27    13    14   ar
    28    14    15    1
    29    15    16    2
    30    15    17   am
    31    26    27   ar
    32    27    28   ar
    33    28    19   ar
    34    28    23   ar
    35     8     3    1
    36    14    10   ar
    37    17     6    1
    38    17    18    1
@<TRIPOS>MOLECULE
*****
 34 38 0 0 0
SMALL
GASTEIGER

@<TRIPOS>ATOM
      1 C          48.8337   14.3057  -23.7309 C.2     1  UNL1        0.2490
      2 O          49.4340   13.6112  -24.5962 O.2     1  UNL1       -0.2699
      3 N          48.6582   13.7789  -22.4022 N.am    1  UNL1       -0.2760
      4 C          48.9852   14.5879  -21.2237 C.3     1  UNL1        0.0954
      5 C          50.1800   13.9721  -20.4802 C.3     1  UNL1        0.0399
      6 C          50.0171   12.4504  -20.1979 C.3     1  UNL1        0.0645
      7 C          49.6311   11.7174  -21.5126 C.3     1  UNL1        0.0399
      8 C          48.4146   12.3496  -22.1963 C.3     1  UNL1        0.0954
      9 C          48.9180   12.1965  -19.1010 C.3     1  UNL1        0.0477
     10 C          49.4362   12.5320  -17.7363 C.ar    1  UNL1        0.0220
     11 C          48.7731   12.7804  -16.5572 C.ar    1  UNL1        0.0923
     12 N          49.6976   12.8429  -15.5657 N.ar    1  UNL1       -0.2534
     13 N          50.9070   12.6062  -16.0672 N.ar    1  UNL1       -0.1651
     14 C          50.7458   12.4170  -17.3880 C.ar    1  UNL1        0.1515
     15 C          51.7543   12.0646  -18.3740 C.2     1  UNL1        0.2650
     16 O          52.9522   11.8613  -18.0434 O.2     1  UNL1       -0.2684
     17 N          51.3304   11.9320  -19.7403 N.am    1  UNL1       -0.3023
     18 H          52.0418   11.6311  -20.4449 H       1  UNL1        0.1497
     19 C          49.1826   18.5313  -26.3154 C.ar    1  UNL1        0.2248
     20 N          48.6722   19.7563  -26.6264 N.ar    1  UNL1       -0.2101
     21 C          47.5293   20.2286  -26.0645 C.ar    1  UNL1        0.1021
     22 C          46.8334   19.4565  -25.1347 C.ar    1  UNL1        0.0209
     23 C          47.3235   18.1916  -24.7870 C.ar    1  UNL1        0.0060
     24 C          46.6462   17.3966  -23.8527 C.ar    1  UNL1        0.0003
     25 C          47.1402   16.1354  -23.5121 C.ar    1  UNL1        0.0045
     26 C          48.3152   15.6435  -24.1045 C.ar    1  UNL1        0.0537
     27 C          49.0048   16.4457  -25.0308 C.ar    1  UNL1        0.0092
     28 C          48.5144   17.7155  -25.3822 C.ar    1  UNL1        0.0534
     29 C          51.6037   18.0038  -26.2298 C.3     1  UNL1        0.2542
     30 O          50.3638   18.0865  -26.9220 O.3     1  UNL1       -0.4561
     31 C          49.4165   13.0549  -14.1317 C.3     1  UNL1        0.0867
     32 C          48.7626   11.7913  -13.5393 C.3     1  UNL1        0.0244
     33 C          48.4526   14.2456  -13.9378 C.3     1  UNL1        0.0244
     34 C          50.7337   13.3539  -13.3929 C.3     1  UNL1        0.0244
@<TRIPOS>BOND
     1    29    30    1
     2    30    19    1
     3    19    20   ar
     4    20    21   ar
     5    21    22   ar
     6    22    23   ar
     7    23    24   ar
     8    24    25   ar
     9    25    26   ar
    10    26     1    1
    11     1     2    2
    12     1     3   am
    13     3     4    1
    14     4     5    1
    15     5     6    1
    16     6     7    1
    17     7     8    1
    18     6     9    1
    19     9    10    1
    20    10    11   ar
    21    11    12   ar
    22    12    31    1
    23    31    32    1
    24    31    33    1
    25    31    34    1
    26    12    13   ar
    27    13    14   ar
    28    14    15    1
    29    15    16    2
    30    15    17   am
    31    26    27   ar
    32    27    28   ar
    33    28    19   ar
    34    28    23   ar
    35     8     3    1
    36    14    10   ar
    37    17     6    1
    38    17    18    1
@<TRIPOS>MOLECULE
*****
 34 38 0 0 0
SMALL
GASTEIGER

@<TRIPOS>ATOM
      1 C          48.2719   11.5644  -23.9383 C.2     1  UNL1        0.2490
      2 O          49.0328   10.7888  -24.5794 O.2     1  UNL1       -0.2699
      3 N          48.1971   11.4522  -22.5046 N.am    1  UNL1       -0.2760
      4 C          48.3058   12.6396  -21.6511 C.3     1  UNL1        0.0954
      5 C          49.5958   12.5713  -20.8200 C.3     1  UNL1        0.0399
      6 C          49.7828   11.2176  -20.0755 C.3     1  UNL1        0.0645
      7 C          49.6016   10.0448  -21.0785 C.3     1  UNL1        0.0399
      8 C          48.2856   10.1418  -21.8567 C.3     1  UNL1        0.0954
      9 C          48.7508   11.0774  -18.8960 C.3     1  UNL1        0.0477
     10 C          49.1513   11.9286  -17.7304 C.ar    1  UNL1        0.0220
     11 C          48.4262   12.3759  -16.6507 C.ar    1  UNL1        0.0923
     12 N          49.2920   12.9504  -15.7778 N.ar    1  UNL1       -0.2534
     13 N          50.5328   12.8477  -16.2468 N.ar    1  UNL1       -0.1651
     14 C          50.4452   12.2256  -17.4348 C.ar    1  UNL1        0.1515
     15 C          51.5265   11.8201  -18.3178 C.2     1  UNL1        0.2650
     16 O          52.7324   12.0049  -18.0058 O.2     1  UNL1       -0.2684
     17 N          51.1711   11.1770  -19.5522 N.am    1  UNL1       -0.3023
     18 H          51.9462   10.8398  -20.1677 H       1  UNL1        0.1497
     19 C          47.9343   15.5315  -26.9056 C.ar    1  UNL1        0.2248
     20 N          47.1548   16.4348  -27.5645 N.ar    1  UNL1       -0.2101
     21 C          45.7982   16.4015  -27.5036 C.ar    1  UNL1        0.1021
     22 C          45.1536   15.4216  -26.7491 C.ar    1  UNL1        0.0209
     23 C          45.9173   14.4739  -26.0565 C.ar    1  UNL1        0.0060
     24 C          45.2954   13.4809  -25.2878 C.ar    1  UNL1        0.0003
     25 C          46.0637   12.5382  -24.6011 C.ar    1  UNL1        0.0045
     26 C          47.4663   12.5665  -24.6764 C.ar    1  UNL1        0.0537
     27 C          48.0929   13.5713  -25.4347 C.ar    1  UNL1        0.0092
     28 C          47.3284   14.5232  -26.1316 C.ar    1  UNL1        0.0534
     29 C          50.0747   16.7341  -26.5594 C.3     1  UNL1        0.2542
     30 O          49.3296   15.6052  -26.9997 O.3     1  UNL1       -0.4561
     31 C          48.9419   13.5293  -14.4653 C.3     1  UNL1        0.0867
     32 C          47.9187   14.6658  -14.6562 C.3     1  UNL1        0.0244
     33 C          50.1965   14.1067  -13.7747 C.3     1  UNL1        0.0244
     34 C          48.3394   12.4323  -13.5687 C.3     1  UNL1        0.0244
@<TRIPOS>BOND
     1    29    30    1
     2    30    19    1
     3    19    20   ar
     4    20    21   ar
     5    21    22   ar
     6    22    23   ar
     7    23    24   ar
     8    24    25   ar
     9    25    26   ar
    10    26     1    1
    11     1     2    2
    12     1     3   am
    13     3     4    1
    14     4     5    1
    15     5     6    1
    16     6     7    1
    17     7     8    1
    18     6     9    1
    19     9    10    1
    20    10    11   ar
    21    11    12   ar
    22    12    31    1
    23    31    32    1
    24    31    33    1
    25    31    34    1
    26    12    13   ar
    27    13    14   ar
    28    14    15    1
    29    15    16    2
    30    15    17   am
    31    26    27   ar
    32    27    28   ar
    33    28    19   ar
    34    28    23   ar
    35     8     3    1
    36    14    10   ar
    37    17     6    1
    38    17    18    1
@<TRIPOS>MOLECULE
*****
 34 38 0 0 0
SMALL
GASTEIGER

@<TRIPOS>ATOM
      1 C          46.9051   13.9422  -23.8675 C.2     1  UNL1        0.2490
      2 O          46.6595   13.0594  -24.7346 O.2     1  UNL1       -0.2699
      3 N          46.9326   13.5744  -22.4755 N.am    1  UNL1       -0.2760
      4 C          48.0435   13.9856  -21.6112 C.3     1  UNL1        0.0954
      5 C          48.8411   12.7527  -21.1606 C.3     1  UNL1        0.0399
      6 C          47.9508   11.6175  -20.5770 C.3     1  UNL1        0.0645
      7 C          46.7921   11.3075  -21.5649 C.3     1  UNL1        0.0399
      8 C          46.0081   12.5643  -21.9559 C.3     1  UNL1        0.0954
      9 C          47.3642   12.0271  -19.1757 C.3     1  UNL1        0.0477
     10 C          48.4126   11.9374  -18.1096 C.ar    1  UNL1        0.0220
     11 C          48.4658   12.4877  -16.8503 C.ar    1  UNL1        0.0923
     12 N          49.5333   11.9511  -16.2070 N.ar    1  UNL1       -0.2534
     13 N          50.1283   11.0599  -16.9956 N.ar    1  UNL1       -0.1651
     14 C          49.4448   11.0529  -18.1528 C.ar    1  UNL1        0.1515
     15 C          49.6568   10.2064  -19.3155 C.2     1  UNL1        0.2650
     16 O          50.5492    9.3181  -19.3262 O.2     1  UNL1       -0.2684
     17 N          48.7938   10.4029  -20.4471 N.am    1  UNL1       -0.3023
     18 H          48.9105    9.7640  -21.2665 H       1  UNL1        0.1497
     19 C          49.2993   17.2566  -26.6852 C.ar    1  UNL1        0.2248
     20 N          49.4955   18.5551  -27.0502 N.ar    1  UNL1       -0.2101
     21 C          48.8010   19.5783  -26.4882 C.ar    1  UNL1        0.1021
     22 C          47.8490   19.3218  -25.5018 C.ar    1  UNL1        0.0209
     23 C          47.6164   18.0014  -25.0975 C.ar    1  UNL1        0.0060
     24 C          46.6685   17.7159  -24.1057 C.ar    1  UNL1        0.0003
     25 C          46.4408   16.3963  -23.7088 C.ar    1  UNL1        0.0045
     26 C          47.1508   15.3385  -24.3010 C.ar    1  UNL1        0.0537
     27 C          48.1134   15.6240  -25.2854 C.ar    1  UNL1        0.0092
     28 C          48.3481   16.9486  -25.6937 C.ar    1  UNL1        0.0534
     29 C          50.7087   15.2209  -26.5555 C.3     1  UNL1        0.2542
     30 O          50.0386   16.2351  -27.2943 O.3     1  UNL1       -0.4561
     31 C          49.9387   12.2354  -14.8158 C.3     1  UNL1        0.0867
     32 C          51.3928   12.7455  -14.7935 C.3     1  UNL1        0.0244
     33 C          49.8515   10.9577  -13.9532 C.3     1  UNL1        0.0244
     34 C          49.0036   13.3039  -14.2207 C.3     1  UNL1        0.0244
@<TRIPOS>BOND
     1    29    30    1
     2    30    19    1
     3    19    20   ar
     4    20    21   ar
     5    21    22   ar
     6    22    23   ar
     7    23    24   ar
     8    24    25   ar
     9    25    26   ar
    10    26     1    1
    11     1     2    2
    12     1     3   am
    13     3     4    1
    14     4     5    1
    15     5     6    1
    16     6     7    1
    17     7     8    1
    18     6     9    1
    19     9    10    1
    20    10    11   ar
    21    11    12   ar
    22    12    31    1
    23    31    32    1
    24    31    33    1
    25    31    34    1
    26    12    13   ar
    27    13    14   ar
    28    14    15    1
    29    15    16    2
    30    15    17   am
    31    26    27   ar
    32    27    28   ar
    33    28    19   ar
    34    28    23   ar
    35     8     3    1
    36    14    10   ar
    37    17     6    1
    38    17    18    1
@<TRIPOS>MOLECULE
*****
 34 38 0 0 0
SMALL
GASTEIGER

@<TRIPOS>ATOM
      1 C          52.3550   12.5144  -18.6468 C.2     1  UNL1        0.2490
      2 O          53.2625   11.6661  -18.8668 O.2     1  UNL1       -0.2699
      3 N          52.0055   13.4562  -19.6786 N.am    1  UNL1       -0.2760
      4 C          50.6039   13.6848  -20.0440 C.3     1  UNL1        0.0954
      5 C          50.3485   13.1918  -21.4762 C.3     1  UNL1        0.0399
      6 C          51.3836   13.7243  -22.5091 C.3     1  UNL1        0.0645
      7 C          52.8223   13.4595  -21.9851 C.3     1  UNL1        0.0399
      8 C          53.0346   13.9999  -20.5674 C.3     1  UNL1        0.0954
      9 C          51.1820   15.2637  -22.7646 C.3     1  UNL1        0.0477
     10 C          49.9865   15.5100  -23.6328 C.ar    1  UNL1        0.0220
     11 C          49.2479   16.6506  -23.8458 C.ar    1  UNL1        0.0923
     12 N          48.3886   16.4045  -24.8669 N.ar    1  UNL1       -0.2534
     13 N          48.5839   15.1718  -25.3278 N.ar    1  UNL1       -0.1651
     14 C          49.5567   14.6293  -24.5758 C.ar    1  UNL1        0.1515
     15 C          50.1778   13.3225  -24.7176 C.2     1  UNL1        0.2650
     16 O          49.8526   12.5392  -25.6484 O.2     1  UNL1       -0.2684
     17 N          51.1965   12.9643  -23.7701 N.am    1  UNL1       -0.3023
     18 H          51.6802   12.0461  -23.8974 H       1  UNL1        0.1497
     19 C          48.4312   11.5141  -15.7727 C.ar    1  UNL1        0.2248
     20 N          47.8438   11.5505  -14.5433 N.ar    1  UNL1       -0.2101
     21 C          48.4695   12.0730  -13.4568 C.ar    1  UNL1        0.1021
     22 C          49.7566   12.5974  -13.5730 C.ar    1  UNL1        0.0209
     23 C          50.3964   12.5796  -14.8185 C.ar    1  UNL1        0.0060
     24 C          51.6880   13.1033  -14.9641 C.ar    1  UNL1        0.0003
     25 C          52.3204   13.0807  -16.2092 C.ar    1  UNL1        0.0045
     26 C          51.6764   12.5276  -17.3287 C.ar    1  UNL1        0.0537
     27 C          50.3745   12.0154  -17.1882 C.ar    1  UNL1        0.0092
     28 C          49.7304   12.0313  -15.9387 C.ar    1  UNL1        0.0534
     29 C          47.4405   11.7067  -18.0374 C.3     1  UNL1        0.2542
     30 O          47.7469   10.9639  -16.8636 O.3     1  UNL1       -0.4561
     31 C          47.4352   17.3707  -25.4482 C.3     1  UNL1        0.0867
     32 C          48.2078   18.4808  -26.1871 C.3     1  UNL1        0.0244
     33 C          46.5778   18.0206  -24.3407 C.3     1  UNL1        0.0244
     34 C          46.5058   16.6394  -26.4340 C.3     1  UNL1        0.0244
@<TRIPOS>BOND
     1    29    30    1
     2    30    19    1
     3    19    20   ar
     4    20    21   ar
     5    21    22   ar
     6    22    23   ar
     7    23    24   ar
     8    24    25   ar
     9    25    26   ar
    10    26     1    1
    11     1     2    2
    12     1     3   am
    13     3     4    1
    14     4     5    1
    15     5     6    1
    16     6     7    1
    17     7     8    1
    18     6     9    1
    19     9    10    1
    20    10    11   ar
    21    11    12   ar
    22    12    31    1
    23    31    32    1
    24    31    33    1
    25    31    34    1
    26    12    13   ar
    27    13    14   ar
    28    14    15    1
    29    15    16    2
    30    15    17   am
    31    26    27   ar
    32    27    28   ar
    33    28    19   ar
    34    28    23   ar
    35     8     3    1
    36    14    10   ar
    37    17     6    1
    38    17    18    1
