@<TRIPOS>MOLECULE
*****
 49 54 0 0 0
SMALL
GASTEIGER

@<TRIPOS>ATOM
      1 O          -6.8778  -10.7117   30.4313 O.2     1  UNL1       -0.2701
      2 C          -7.8883  -11.4665   30.4345 C.2     1  UNL1        0.2483
      3 N          -8.8679  -11.3491   31.4804 N.am    1  UNL1       -0.2945
      4 H          -9.7382  -11.9214   31.4152 H       1  UNL1        0.1501
      5 C          -7.9973  -12.5285   29.4121 C.ar    1  UNL1        0.0808
      6 C          -6.8311  -12.9892   28.7798 C.ar    1  UNL1        0.0080
      7 C          -6.8842  -14.0606   27.8861 C.ar    1  UNL1        0.0148
      8 C          -8.1074  -14.6807   27.5934 C.ar    1  UNL1        0.0502
      9 C          -9.2803  -14.1984   28.1959 C.ar    1  UNL1        0.0443
     10 C          -9.2306  -13.1272   29.0932 C.ar    1  UNL1        0.1457
     11 F         -10.3914  -12.6639   29.6214 F       1  UNL1       -0.2040
     12 N          -8.1529  -15.8229   26.7184 N.pl3   1  UNL1       -0.3040
     13 C          -9.0475  -16.9454   27.0453 C.3     1  UNL1        0.1122
     14 C          -9.1764  -17.9168   25.8672 C.3     1  UNL1        0.1122
     15 N          -9.3268  -17.1593   24.6164 N.pl3   1  UNL1       -0.3041
     16 C          -8.3599  -16.0989   24.2870 C.3     1  UNL1        0.1122
     17 C          -7.4026  -15.8330   25.4547 C.3     1  UNL1        0.1122
     18 C         -10.4599  -17.3789   23.7549 C.ar    1  UNL1        0.0479
     19 C         -11.5521  -18.1425   24.1979 C.ar    1  UNL1        0.0145
     20 C         -12.6499  -18.3542   23.3622 C.ar    1  UNL1        0.0012
     21 C         -12.6766  -17.7967   22.0822 C.ar    1  UNL1        0.0039
     22 C         -11.6098  -17.0006   21.6315 C.ar    1  UNL1        0.0726
     23 C         -10.4950  -16.8137   22.4686 C.ar    1  UNL1        0.0184
     24 C         -11.6145  -16.4370   20.2326 C.3     1  UNL1        0.4186
     25 F         -11.3311  -17.4484   19.3338 F       1  UNL1       -0.1659
     26 F         -10.6621  -15.4405   20.1054 F       1  UNL1       -0.1659
     27 F         -12.8506  -15.8948   19.9260 F       1  UNL1       -0.1659
     28 C          -8.5366  -10.7883   32.7950 C.3     1  UNL1        0.1535
     29 C          -8.1273   -9.3457   32.6500 C.2     1  UNL1        0.2443
     30 O          -7.4702   -8.8003   33.5781 O.2     1  UNL1       -0.2730
     31 N          -8.5345   -8.5786   31.5036 N.am    1  UNL1       -0.2825
     32 H          -9.3286   -8.9369   30.9269 H       1  UNL1        0.1549
     33 C          -7.9861   -7.2946   31.1600 C.ar    1  UNL1        0.0535
     34 C          -8.8478   -6.2572   30.7780 C.ar    1  UNL1        0.0353
     35 C          -8.3187   -5.0149   30.4200 C.ar    1  UNL1        0.1002
     36 N          -6.9738   -4.8192   30.4264 N.ar    1  UNL1       -0.2422
     37 C          -6.1117   -5.8113   30.7728 C.ar    1  UNL1        0.1002
     38 C          -6.5992   -7.0686   31.1388 C.ar    1  UNL1        0.0353
     39 C          -9.7358  -10.9173   33.7527 C.3     1  UNL1        0.0569
     40 C         -10.8843  -11.6326   33.0983 C.ar    1  UNL1       -0.0017
     41 C         -11.7211  -11.1183   32.1127 C.ar    1  UNL1        0.0681
     42 N         -12.7260  -11.9837   31.8467 N.ar    1  UNL1       -0.3523
     43 C         -12.5398  -13.0337   32.6651 C.ar    1  UNL1        0.0563
     44 C         -13.3521  -14.1600   32.7910 C.ar    1  UNL1        0.0170
     45 C         -12.9978  -15.1228   33.7533 C.ar    1  UNL1        0.0015
     46 C         -11.8557  -14.9382   34.5632 C.ar    1  UNL1        0.0001
     47 C         -11.0537  -13.7921   34.4139 C.ar    1  UNL1        0.0012
     48 C         -11.4270  -12.8563   33.4472 C.ar    1  UNL1        0.0131
     49 H         -13.5045  -11.8462   31.1644 H       1  UNL1        0.1660
@<TRIPOS>BOND
     1     1     2    2
     2     2     3   am
     3     3    28    1
     4    28    39    1
     5    39    40    1
     6    40    41   ar
     7    41    42   ar
     8    42    43   ar
     9    43    44   ar
    10    44    45   ar
    11    45    46   ar
    12    46    47   ar
    13    47    48   ar
    14    28    29    1
    15    29    30    2
    16    29    31   am
    17    31    33    1
    18    33    34   ar
    19    34    35   ar
    20    35    36   ar
    21    36    37   ar
    22    37    38   ar
    23     2     5    1
    24     5     6   ar
    25     6     7   ar
    26     7     8   ar
    27     8    12    1
    28    12    13    1
    29    13    14    1
    30    14    15    1
    31    15    18    1
    32    18    19   ar
    33    19    20   ar
    34    20    21   ar
    35    21    22   ar
    36    22    24    1
    37    24    25    1
    38    24    26    1
    39    24    27    1
    40    22    23   ar
    41    15    16    1
    42    16    17    1
    43     8     9   ar
    44     9    10   ar
    45    10    11    1
    46    48    40   ar
    47    38    33   ar
    48    10     5   ar
    49    48    43   ar
    50    17    12    1
    51    23    18   ar
    52     3     4    1
    53    42    49    1
    54    31    32    1
@<TRIPOS>MOLECULE
*****
 49 54 0 0 0
SMALL
GASTEIGER

@<TRIPOS>ATOM
      1 O          -6.9756  -10.6591   30.4823 O.2     1  UNL1       -0.2701
      2 C          -7.9841  -11.4164   30.4683 C.2     1  UNL1        0.2483
      3 N          -8.9867  -11.2945   31.4918 N.am    1  UNL1       -0.2945
      4 H          -9.8541  -11.8693   31.4114 H       1  UNL1        0.1501
      5 C          -8.0682  -12.4854   29.4509 C.ar    1  UNL1        0.0808
      6 C          -6.8872  -12.9497   28.8498 C.ar    1  UNL1        0.0080
      7 C          -6.9184  -14.0272   27.9625 C.ar    1  UNL1        0.0148
      8 C          -8.1340  -14.6500   27.6449 C.ar    1  UNL1        0.0502
      9 C          -9.3211  -14.1643   28.2160 C.ar    1  UNL1        0.0443
     10 C          -9.2933  -13.0870   29.1068 C.ar    1  UNL1        0.1457
     11 F         -10.4667  -12.6209   29.6041 F       1  UNL1       -0.2040
     12 N          -8.1581  -15.7982   26.7769 N.pl3   1  UNL1       -0.3040
     13 C          -9.0498  -16.9249   27.0975 C.3     1  UNL1        0.1122
     14 C          -9.1538  -17.9048   25.9240 C.3     1  UNL1        0.1122
     15 N          -9.2903  -17.1566   24.6662 N.pl3   1  UNL1       -0.3041
     16 C          -8.3259  -16.0916   24.3445 C.3     1  UNL1        0.1122
     17 C          -7.3885  -15.8112   25.5249 C.3     1  UNL1        0.1122
     18 C         -10.4085  -17.3898   23.7889 C.ar    1  UNL1        0.0479
     19 C         -11.4958  -18.1697   24.2154 C.ar    1  UNL1        0.0145
     20 C         -12.5792  -18.3946   23.3645 C.ar    1  UNL1        0.0012
     21 C         -12.5964  -17.8344   22.0855 C.ar    1  UNL1        0.0039
     22 C         -11.5349  -17.0224   21.6510 C.ar    1  UNL1        0.0726
     23 C         -10.4342  -16.8221   22.5035 C.ar    1  UNL1        0.0184
     24 C         -11.5285  -16.4556   20.2534 C.3     1  UNL1        0.4186
     25 F         -12.7833  -15.9552   19.9598 F       1  UNL1       -0.1659
     26 F         -11.2068  -17.4365   19.3312 F       1  UNL1       -0.1659
     27 F         -10.5991  -15.4360   20.1415 F       1  UNL1       -0.1659
     28 C          -8.6856  -10.7241   32.8095 C.3     1  UNL1        0.1535
     29 C          -8.1197   -9.3369   32.6519 C.2     1  UNL1        0.2443
     30 O          -7.3952   -8.8642   33.5697 O.2     1  UNL1       -0.2730
     31 N          -8.4520   -8.5341   31.5059 N.am    1  UNL1       -0.2825
     32 H          -9.2877   -8.8041   30.9399 H       1  UNL1        0.1549
     33 C          -7.7679   -7.3208   31.1491 C.ar    1  UNL1        0.0535
     34 C          -8.5135   -6.1870   30.7979 C.ar    1  UNL1        0.0353
     35 C          -7.8539   -5.0128   30.4273 C.ar    1  UNL1        0.1002
     36 N          -6.4957   -4.9760   30.3915 N.ar    1  UNL1       -0.2422
     37 C          -5.7455   -6.0645   30.7072 C.ar    1  UNL1        0.1002
     38 C          -6.3653   -7.2586   31.0845 C.ar    1  UNL1        0.0353
     39 C          -9.9518  -10.6962   33.6857 C.3     1  UNL1        0.0569
     40 C         -10.3165  -12.0734   34.1646 C.ar    1  UNL1       -0.0017
     41 C          -9.6170  -12.8335   35.0969 C.ar    1  UNL1        0.0681
     42 N         -10.1513  -14.0723   35.1935 N.ar    1  UNL1       -0.3523
     43 C         -11.1731  -14.1064   34.3207 C.ar    1  UNL1        0.0563
     44 C         -11.9972  -15.1925   34.0283 C.ar    1  UNL1        0.0170
     45 C         -12.9803  -15.0244   33.0363 C.ar    1  UNL1        0.0015
     46 C         -13.1128  -13.7905   32.3622 C.ar    1  UNL1        0.0001
     47 C         -12.2676  -12.7112   32.6783 C.ar    1  UNL1        0.0012
     48 C         -11.3049  -12.9057   33.6707 C.ar    1  UNL1        0.0131
     49 H          -9.8156  -14.8516   35.8021 H       1  UNL1        0.1660
@<TRIPOS>BOND
     1     1     2    2
     2     2     3   am
     3     3    28    1
     4    28    39    1
     5    39    40    1
     6    40    41   ar
     7    41    42   ar
     8    42    43   ar
     9    43    44   ar
    10    44    45   ar
    11    45    46   ar
    12    46    47   ar
    13    47    48   ar
    14    28    29    1
    15    29    30    2
    16    29    31   am
    17    31    33    1
    18    33    34   ar
    19    34    35   ar
    20    35    36   ar
    21    36    37   ar
    22    37    38   ar
    23     2     5    1
    24     5     6   ar
    25     6     7   ar
    26     7     8   ar
    27     8    12    1
    28    12    13    1
    29    13    14    1
    30    14    15    1
    31    15    18    1
    32    18    19   ar
    33    19    20   ar
    34    20    21   ar
    35    21    22   ar
    36    22    24    1
    37    24    25    1
    38    24    26    1
    39    24    27    1
    40    22    23   ar
    41    15    16    1
    42    16    17    1
    43     8     9   ar
    44     9    10   ar
    45    10    11    1
    46    48    40   ar
    47    38    33   ar
    48    10     5   ar
    49    48    43   ar
    50    17    12    1
    51    23    18   ar
    52     3     4    1
    53    42    49    1
    54    31    32    1
@<TRIPOS>MOLECULE
*****
 49 54 0 0 0
SMALL
GASTEIGER

@<TRIPOS>ATOM
      1 O          -6.9399  -11.4124   31.4530 O.2     1  UNL1       -0.2701
      2 C          -7.8891  -11.3714   30.6235 C.2     1  UNL1        0.2483
      3 N          -8.9256  -10.3853   30.7677 N.am    1  UNL1       -0.2945
      4 H          -9.6520  -10.3124   30.0219 H       1  UNL1        0.1501
      5 C          -7.9701  -12.4051   29.5699 C.ar    1  UNL1        0.0808
      6 C          -6.7912  -12.8217   28.9307 C.ar    1  UNL1        0.0080
      7 C          -6.8167  -13.8674   28.0059 C.ar    1  UNL1        0.0148
      8 C          -8.0248  -14.5049   27.6886 C.ar    1  UNL1        0.0502
      9 C          -9.2107  -14.0659   28.2987 C.ar    1  UNL1        0.0443
     10 C          -9.1886  -13.0207   29.2271 C.ar    1  UNL1        0.1457
     11 F         -10.3617  -12.5983   29.7624 F       1  UNL1       -0.2040
     12 N          -8.0413  -15.6217   26.7804 N.pl3   1  UNL1       -0.3040
     13 C          -8.8882  -16.7864   27.0863 C.3     1  UNL1        0.1122
     14 C          -8.9991  -17.7267   25.8815 C.3     1  UNL1        0.1122
     15 N          -9.1972  -16.9390   24.6565 N.pl3   1  UNL1       -0.3041
     16 C          -8.2759  -15.8335   24.3450 C.3     1  UNL1        0.1122
     17 C          -7.3110  -15.5661   25.5062 C.3     1  UNL1        0.1122
     18 C         -10.3348  -17.1757   23.8053 C.ar    1  UNL1        0.0479
     19 C         -11.4337  -17.9122   24.2764 C.ar    1  UNL1        0.0145
     20 C         -12.5358  -18.1406   23.4507 C.ar    1  UNL1        0.0012
     21 C         -12.5598  -17.6266   22.1525 C.ar    1  UNL1        0.0039
     22 C         -11.4859  -16.8576   21.6727 C.ar    1  UNL1        0.0726
     23 C         -10.3671  -16.6542   22.5006 C.ar    1  UNL1        0.0184
     24 C         -11.4881  -16.3419   20.2554 C.3     1  UNL1        0.4186
     25 F         -10.5696  -15.3149   20.1437 F       1  UNL1       -0.1659
     26 F         -12.7416  -15.8654   19.9122 F       1  UNL1       -0.1659
     27 F         -11.1501  -17.3477   19.3666 F       1  UNL1       -0.1659
     28 C          -9.2361   -9.7692   32.0624 C.3     1  UNL1        0.1535
     29 C         -10.0382  -10.7246   32.9070 C.2     1  UNL1        0.2443
     30 O         -10.6427  -10.2837   33.9223 O.2     1  UNL1       -0.2730
     31 N         -10.0626  -12.1302   32.6035 N.am    1  UNL1       -0.2825
     32 H          -9.3166  -12.5135   31.9806 H       1  UNL1        0.1549
     33 C         -10.9888  -13.0622   33.1874 C.ar    1  UNL1        0.0535
     34 C         -12.1382  -13.4297   32.4743 C.ar    1  UNL1        0.0353
     35 C         -13.0534  -14.3163   33.0467 C.ar    1  UNL1        0.1002
     36 N         -12.8379  -14.8066   34.2959 N.ar    1  UNL1       -0.2422
     37 C         -11.7431  -14.4537   35.0199 C.ar    1  UNL1        0.1002
     38 C         -10.8022  -13.5705   34.4843 C.ar    1  UNL1        0.0353
     39 C          -7.9407   -9.3609   32.7884 C.3     1  UNL1        0.0569
     40 C          -7.2734   -8.2000   32.1058 C.ar    1  UNL1       -0.0017
     41 C          -5.9228   -7.8713   32.1711 C.ar    1  UNL1        0.0681
     42 N          -5.6919   -6.6941   31.5464 N.ar    1  UNL1       -0.3523
     43 C          -6.8862   -6.2691   31.0993 C.ar    1  UNL1        0.0563
     44 C          -7.1621   -5.0753   30.4336 C.ar    1  UNL1        0.0170
     45 C          -8.5007   -4.8028   30.0983 C.ar    1  UNL1        0.0015
     46 C          -9.5233   -5.7161   30.4368 C.ar    1  UNL1        0.0001
     47 C          -9.2157   -6.9136   31.1081 C.ar    1  UNL1        0.0012
     48 C          -7.8779   -7.1597   31.4232 C.ar    1  UNL1        0.0131
     49 H          -4.7745   -6.2031   31.4583 H       1  UNL1        0.1660
@<TRIPOS>BOND
     1     1     2    2
     2     2     3   am
     3     3    28    1
     4    28    39    1
     5    39    40    1
     6    40    41   ar
     7    41    42   ar
     8    42    43   ar
     9    43    44   ar
    10    44    45   ar
    11    45    46   ar
    12    46    47   ar
    13    47    48   ar
    14    28    29    1
    15    29    30    2
    16    29    31   am
    17    31    33    1
    18    33    34   ar
    19    34    35   ar
    20    35    36   ar
    21    36    37   ar
    22    37    38   ar
    23     2     5    1
    24     5     6   ar
    25     6     7   ar
    26     7     8   ar
    27     8    12    1
    28    12    13    1
    29    13    14    1
    30    14    15    1
    31    15    18    1
    32    18    19   ar
    33    19    20   ar
    34    20    21   ar
    35    21    22   ar
    36    22    24    1
    37    24    25    1
    38    24    26    1
    39    24    27    1
    40    22    23   ar
    41    15    16    1
    42    16    17    1
    43     8     9   ar
    44     9    10   ar
    45    10    11    1
    46    48    40   ar
    47    38    33   ar
    48    10     5   ar
    49    48    43   ar
    50    17    12    1
    51    23    18   ar
    52     3     4    1
    53    42    49    1
    54    31    32    1
@<TRIPOS>MOLECULE
*****
 49 54 0 0 0
SMALL
GASTEIGER

@<TRIPOS>ATOM
      1 O          -5.2924  -15.7904   26.0280 O.2     1  UNL1       -0.2701
      2 C          -6.5390  -15.6015   26.0580 C.2     1  UNL1        0.2483
      3 N          -7.3647  -16.0920   24.9879 N.am    1  UNL1       -0.2945
      4 H          -8.4007  -16.0025   25.0760 H       1  UNL1        0.1501
      5 C          -7.1186  -14.7905   27.1495 C.ar    1  UNL1        0.0808
      6 C          -6.3529  -13.7563   27.7117 C.ar    1  UNL1        0.0080
      7 C          -6.9049  -12.9054   28.6711 C.ar    1  UNL1        0.0148
      8 C          -8.2280  -13.0833   29.1004 C.ar    1  UNL1        0.0502
      9 C          -8.9840  -14.1392   28.5671 C.ar    1  UNL1        0.0443
     10 C          -8.4354  -14.9919   27.6043 C.ar    1  UNL1        0.1457
     11 F          -9.1846  -16.0257   27.1450 F       1  UNL1       -0.2040
     12 N          -8.8153  -12.1695   30.0450 N.pl3   1  UNL1       -0.3040
     13 C          -7.9372  -11.3643   30.9098 C.3     1  UNL1        0.1122
     14 C          -8.7207  -10.2585   31.6249 C.3     1  UNL1        0.1122
     15 N          -9.6534   -9.6250   30.6819 N.pl3   1  UNL1       -0.3041
     16 C         -10.5746  -10.4625   29.8958 C.3     1  UNL1        0.1122
     17 C         -10.2687  -11.9536   30.0792 C.3     1  UNL1        0.1122
     18 C          -9.6136   -8.2040   30.4500 C.ar    1  UNL1        0.0479
     19 C         -10.7757   -7.5131   30.0702 C.ar    1  UNL1        0.0145
     20 C         -10.7360   -6.1359   29.8462 C.ar    1  UNL1        0.0012
     21 C          -9.5417   -5.4312   30.0111 C.ar    1  UNL1        0.0039
     22 C          -8.3750   -6.0970   30.4241 C.ar    1  UNL1        0.0726
     23 C          -8.4159   -7.4890   30.6218 C.ar    1  UNL1        0.0184
     24 C          -7.0732   -5.3471   30.5565 C.3     1  UNL1        0.4186
     25 F          -6.4813   -5.6726   31.7626 F       1  UNL1       -0.1659
     26 F          -7.2915   -3.9807   30.5154 F       1  UNL1       -0.1659
     27 F          -6.2095   -5.6776   29.5267 F       1  UNL1       -0.1659
     28 C          -6.8293  -16.3370   23.6441 C.3     1  UNL1        0.1535
     29 C          -7.9556  -16.6319   22.6880 C.2     1  UNL1        0.2443
     30 O          -7.8685  -17.6377   21.9322 O.2     1  UNL1       -0.2730
     31 N          -9.0839  -15.7459   22.5870 N.am    1  UNL1       -0.2825
     32 H          -8.9862  -14.7773   22.9663 H       1  UNL1        0.1549
     33 C         -10.3049  -16.0747   21.9025 C.ar    1  UNL1        0.0535
     34 C         -10.4203  -15.8058   20.5318 C.ar    1  UNL1        0.0353
     35 C         -11.6128  -16.1011   19.8669 C.ar    1  UNL1        0.1002
     36 N         -12.6613  -16.6312   20.5503 N.ar    1  UNL1       -0.2422
     37 C         -12.5868  -16.8847   21.8835 C.ar    1  UNL1        0.1002
     38 C         -11.4120  -16.6054   22.5865 C.ar    1  UNL1        0.0353
     39 C          -6.0124  -15.1241   23.1611 C.3     1  UNL1        0.0569
     40 C          -5.2284  -15.4510   21.9212 C.ar    1  UNL1       -0.0017
     41 C          -5.5752  -15.1178   20.6154 C.ar    1  UNL1        0.0681
     42 N          -4.7130  -15.6814   19.7387 N.ar    1  UNL1       -0.3523
     43 C          -3.8331  -16.3789   20.4778 C.ar    1  UNL1        0.0563
     44 C          -2.7829  -17.1708   20.0148 C.ar    1  UNL1        0.0170
     45 C          -2.0098  -17.8605   20.9663 C.ar    1  UNL1        0.0015
     46 C          -2.3034  -17.7495   22.3432 C.ar    1  UNL1        0.0001
     47 C          -3.3690  -16.9425   22.7819 C.ar    1  UNL1        0.0012
     48 C          -4.1154  -16.2657   21.8153 C.ar    1  UNL1        0.0131
     49 H          -4.7462  -15.6112   18.6974 H       1  UNL1        0.1660
@<TRIPOS>BOND
     1     1     2    2
     2     2     3   am
     3     3    28    1
     4    28    39    1
     5    39    40    1
     6    40    41   ar
     7    41    42   ar
     8    42    43   ar
     9    43    44   ar
    10    44    45   ar
    11    45    46   ar
    12    46    47   ar
    13    47    48   ar
    14    28    29    1
    15    29    30    2
    16    29    31   am
    17    31    33    1
    18    33    34   ar
    19    34    35   ar
    20    35    36   ar
    21    36    37   ar
    22    37    38   ar
    23     2     5    1
    24     5     6   ar
    25     6     7   ar
    26     7     8   ar
    27     8    12    1
    28    12    13    1
    29    13    14    1
    30    14    15    1
    31    15    18    1
    32    18    19   ar
    33    19    20   ar
    34    20    21   ar
    35    21    22   ar
    36    22    24    1
    37    24    25    1
    38    24    26    1
    39    24    27    1
    40    22    23   ar
    41    15    16    1
    42    16    17    1
    43     8     9   ar
    44     9    10   ar
    45    10    11    1
    46    48    40   ar
    47    38    33   ar
    48    10     5   ar
    49    48    43   ar
    50    17    12    1
    51    23    18   ar
    52     3     4    1
    53    42    49    1
    54    31    32    1
@<TRIPOS>MOLECULE
*****
 49 54 0 0 0
SMALL
GASTEIGER

@<TRIPOS>ATOM
      1 O          -8.1468  -10.0915   30.2506 O.2     1  UNL1       -0.2701
      2 C          -8.8068  -11.1600   30.3664 C.2     1  UNL1        0.2483
      3 N          -9.8368  -11.2623   31.3644 N.am    1  UNL1       -0.2945
      4 H         -10.4286  -12.1217   31.3842 H       1  UNL1        0.1501
      5 C          -8.4410  -12.3263   29.5350 C.ar    1  UNL1        0.0808
      6 C          -9.4488  -13.2120   29.1209 C.ar    1  UNL1        0.0080
      7 C          -9.1558  -14.2641   28.2511 C.ar    1  UNL1        0.0148
      8 C          -7.8453  -14.4618   27.7926 C.ar    1  UNL1        0.0502
      9 C          -6.8288  -13.5999   28.2341 C.ar    1  UNL1        0.0443
     10 C          -7.1190  -12.5439   29.1032 C.ar    1  UNL1        0.1457
     11 F          -6.1015  -11.7594   29.5398 F       1  UNL1       -0.2040
     12 N          -7.5551  -15.5098   26.8493 N.pl3   1  UNL1       -0.3040
     13 C          -8.4089  -15.6653   25.6601 C.3     1  UNL1        0.1122
     14 C          -7.7798  -16.6242   24.6438 C.3     1  UNL1        0.1122
     15 N          -6.3429  -16.3405   24.5206 N.pl3   1  UNL1       -0.3041
     16 C          -5.5072  -16.2761   25.7311 C.3     1  UNL1        0.1122
     17 C          -6.3597  -16.3510   27.0033 C.3     1  UNL1        0.1122
     18 C          -5.7605  -16.0339   23.2394 C.ar    1  UNL1        0.0479
     19 C          -6.4916  -15.3140   22.2806 C.ar    1  UNL1        0.0145
     20 C          -5.9261  -15.0170   21.0394 C.ar    1  UNL1        0.0012
     21 C          -4.6224  -15.4224   20.7461 C.ar    1  UNL1        0.0039
     22 C          -3.8607  -16.1137   21.7036 C.ar    1  UNL1        0.0726
     23 C          -4.4462  -16.4331   22.9420 C.ar    1  UNL1        0.0184
     24 C          -2.4702  -16.5944   21.3723 C.3     1  UNL1        0.4186
     25 F          -2.2048  -17.7470   22.0879 F       1  UNL1       -0.1659
     26 F          -1.5306  -15.6326   21.7016 F       1  UNL1       -0.1659
     27 F          -2.3541  -16.8665   20.0201 F       1  UNL1       -0.1659
     28 C          -9.8344  -10.4274   32.5708 C.3     1  UNL1        0.1535
     29 C          -9.5846   -8.9889   32.1998 C.2     1  UNL1        0.2443
     30 O          -8.5670   -8.4056   32.6634 O.2     1  UNL1       -0.2730
     31 N         -10.5242   -8.2671   31.3846 N.am    1  UNL1       -0.2825
     32 H         -11.4911   -8.6512   31.2884 H       1  UNL1        0.1549
     33 C         -10.2484   -6.9935   30.7768 C.ar    1  UNL1        0.0535
     34 C          -8.9435   -6.6975   30.3592 C.ar    1  UNL1        0.0353
     35 C          -8.6650   -5.4526   29.7901 C.ar    1  UNL1        0.1002
     36 N          -9.6517   -4.5273   29.6577 N.ar    1  UNL1       -0.2422
     37 C         -10.9221   -4.7774   30.0711 C.ar    1  UNL1        0.1002
     38 C         -11.2438   -6.0103   30.6446 C.ar    1  UNL1        0.0353
     39 C         -11.1697  -10.5683   33.3251 C.3     1  UNL1        0.0569
     40 C         -12.0071  -11.6775   32.7530 C.ar    1  UNL1       -0.0017
     41 C         -12.9256  -11.5645   31.7138 C.ar    1  UNL1        0.0681
     42 N         -13.5941  -12.7280   31.5449 N.ar    1  UNL1       -0.3523
     43 C         -13.1165  -13.5707   32.4769 C.ar    1  UNL1        0.0563
     44 C         -13.5350  -14.8771   32.7273 C.ar    1  UNL1        0.0170
     45 C         -12.9311  -15.5688   33.7929 C.ar    1  UNL1        0.0015
     46 C         -11.9378  -14.9450   34.5794 C.ar    1  UNL1        0.0001
     47 C         -11.5346  -13.6257   34.3036 C.ar    1  UNL1        0.0012
     48 C         -12.1477  -12.9659   33.2366 C.ar    1  UNL1        0.0131
     49 H         -14.3496  -12.9191   30.8498 H       1  UNL1        0.1660
@<TRIPOS>BOND
     1     1     2    2
     2     2     3   am
     3     3    28    1
     4    28    39    1
     5    39    40    1
     6    40    41   ar
     7    41    42   ar
     8    42    43   ar
     9    43    44   ar
    10    44    45   ar
    11    45    46   ar
    12    46    47   ar
    13    47    48   ar
    14    28    29    1
    15    29    30    2
    16    29    31   am
    17    31    33    1
    18    33    34   ar
    19    34    35   ar
    20    35    36   ar
    21    36    37   ar
    22    37    38   ar
    23     2     5    1
    24     5     6   ar
    25     6     7   ar
    26     7     8   ar
    27     8    12    1
    28    12    13    1
    29    13    14    1
    30    14    15    1
    31    15    18    1
    32    18    19   ar
    33    19    20   ar
    34    20    21   ar
    35    21    22   ar
    36    22    24    1
    37    24    25    1
    38    24    26    1
    39    24    27    1
    40    22    23   ar
    41    15    16    1
    42    16    17    1
    43     8     9   ar
    44     9    10   ar
    45    10    11    1
    46    48    40   ar
    47    38    33   ar
    48    10     5   ar
    49    48    43   ar
    50    17    12    1
    51    23    18   ar
    52     3     4    1
    53    42    49    1
    54    31    32    1
@<TRIPOS>MOLECULE
*****
 49 54 0 0 0
SMALL
GASTEIGER

@<TRIPOS>ATOM
      1 O          -8.4088  -15.5014   28.3551 O.2     1  UNL1       -0.2701
      2 C          -7.5323  -14.7832   27.8013 C.2     1  UNL1        0.2483
      3 N          -7.0621  -13.5925   28.4561 N.am    1  UNL1       -0.2945
      4 H          -6.2750  -13.0622   28.0220 H       1  UNL1        0.1501
      5 C          -7.0738  -15.1282   26.4390 C.ar    1  UNL1        0.0808
      6 C          -5.6973  -15.2622   26.1959 C.ar    1  UNL1        0.0080
      7 C          -5.2349  -15.6876   24.9490 C.ar    1  UNL1        0.0148
      8 C          -6.1393  -15.9699   23.9152 C.ar    1  UNL1        0.0502
      9 C          -7.5142  -15.8014   24.1442 C.ar    1  UNL1        0.0443
     10 C          -7.9811  -15.3780   25.3922 C.ar    1  UNL1        0.1457
     11 F          -9.3139  -15.1869   25.5600 F       1  UNL1       -0.2040
     12 N          -5.6655  -16.4655   22.6494 N.pl3   1  UNL1       -0.3040
     13 C          -5.0475  -15.5301   21.6953 C.3     1  UNL1        0.1122
     14 C          -4.3517  -16.2777   20.5530 C.3     1  UNL1        0.1122
     15 N          -3.6040  -17.4216   21.0943 N.pl3   1  UNL1       -0.3041
     16 C          -4.2833  -18.3819   21.9798 C.3     1  UNL1        0.1122
     17 C          -5.6931  -17.9034   22.3464 C.3     1  UNL1        0.1122
     18 C          -2.1927  -17.5634   20.8437 C.ar    1  UNL1        0.0479
     19 C          -1.4566  -16.4972   20.3019 C.ar    1  UNL1        0.0145
     20 C          -0.0889  -16.6356   20.0598 C.ar    1  UNL1        0.0012
     21 C           0.5617  -17.8324   20.3672 C.ar    1  UNL1        0.0039
     22 C          -0.1487  -18.9000   20.9421 C.ar    1  UNL1        0.0726
     23 C          -1.5318  -18.7632   21.1582 C.ar    1  UNL1        0.0184
     24 C           0.5411  -20.2098   21.2306 C.3     1  UNL1        0.4186
     25 F          -0.4117  -21.1855   21.4569 F       1  UNL1       -0.1659
     26 F           1.3483  -20.0993   22.3498 F       1  UNL1       -0.1659
     27 F           1.3337  -20.5928   20.1625 F       1  UNL1       -0.1659
     28 C          -7.8708  -12.8851   29.4551 C.3     1  UNL1        0.1535
     29 C          -7.2189  -11.5740   29.8093 C.2     1  UNL1        0.2443
     30 O          -6.6362  -10.9167   28.9044 O.2     1  UNL1       -0.2730
     31 N          -7.2001  -11.1073   31.1695 N.am    1  UNL1       -0.2825
     32 H          -7.3884  -11.7977   31.9308 H       1  UNL1        0.1549
     33 C          -6.8351   -9.7712   31.5555 C.ar    1  UNL1        0.0535
     34 C          -7.8401   -8.8452   31.8673 C.ar    1  UNL1        0.0353
     35 C          -7.4921   -7.5390   32.2197 C.ar    1  UNL1        0.1002
     36 N          -6.1859   -7.1642   32.2434 N.ar    1  UNL1       -0.2422
     37 C          -5.1901   -8.0335   31.9270 C.ar    1  UNL1        0.1002
     38 C          -5.4944   -9.3498   31.5703 C.ar    1  UNL1        0.0353
     39 C          -9.2987  -12.6545   28.9258 C.3     1  UNL1        0.0569
     40 C         -10.1674  -11.9992   29.9625 C.ar    1  UNL1       -0.0017
     41 C         -10.8760  -12.6448   30.9712 C.ar    1  UNL1        0.0681
     42 N         -11.6545  -11.7641   31.6404 N.ar    1  UNL1       -0.3523
     43 C         -11.4549  -10.5707   31.0548 C.ar    1  UNL1        0.0563
     44 C         -12.0779   -9.3628   31.3669 C.ar    1  UNL1        0.0170
     45 C         -11.7574   -8.2364   30.5878 C.ar    1  UNL1        0.0015
     46 C         -10.8362   -8.3418   29.5225 C.ar    1  UNL1        0.0001
     47 C         -10.2221   -9.5735   29.2306 C.ar    1  UNL1        0.0012
     48 C         -10.5556  -10.6728   30.0241 C.ar    1  UNL1        0.0131
     49 H         -12.3015  -11.9780   32.4316 H       1  UNL1        0.1660
@<TRIPOS>BOND
     1     1     2    2
     2     2     3   am
     3     3    28    1
     4    28    39    1
     5    39    40    1
     6    40    41   ar
     7    41    42   ar
     8    42    43   ar
     9    43    44   ar
    10    44    45   ar
    11    45    46   ar
    12    46    47   ar
    13    47    48   ar
    14    28    29    1
    15    29    30    2
    16    29    31   am
    17    31    33    1
    18    33    34   ar
    19    34    35   ar
    20    35    36   ar
    21    36    37   ar
    22    37    38   ar
    23     2     5    1
    24     5     6   ar
    25     6     7   ar
    26     7     8   ar
    27     8    12    1
    28    12    13    1
    29    13    14    1
    30    14    15    1
    31    15    18    1
    32    18    19   ar
    33    19    20   ar
    34    20    21   ar
    35    21    22   ar
    36    22    24    1
    37    24    25    1
    38    24    26    1
    39    24    27    1
    40    22    23   ar
    41    15    16    1
    42    16    17    1
    43     8     9   ar
    44     9    10   ar
    45    10    11    1
    46    48    40   ar
    47    38    33   ar
    48    10     5   ar
    49    48    43   ar
    50    17    12    1
    51    23    18   ar
    52     3     4    1
    53    42    49    1
    54    31    32    1
@<TRIPOS>MOLECULE
*****
 49 54 0 0 0
SMALL
GASTEIGER

@<TRIPOS>ATOM
      1 O          -7.1855  -10.3767   30.4422 O.2     1  UNL1       -0.2701
      2 C          -8.0519  -11.2918   30.4928 C.2     1  UNL1        0.2483
      3 N          -9.0037  -11.3196   31.5702 N.am    1  UNL1       -0.2945
      4 H          -9.7654  -12.0326   31.5447 H       1  UNL1        0.1501
      5 C          -8.0105  -12.3791   29.4922 C.ar    1  UNL1        0.0808
      6 C          -6.7784  -12.7318   28.9184 C.ar    1  UNL1        0.0080
      7 C          -6.6859  -13.8202   28.0489 C.ar    1  UNL1        0.0148
      8 C          -7.8274  -14.5663   27.7219 C.ar    1  UNL1        0.0502
      9 C          -9.0671  -14.1934   28.2652 C.ar    1  UNL1        0.0443
     10 C          -9.1631  -13.1055   29.1383 C.ar    1  UNL1        0.1457
     11 F         -10.3858  -12.7517   29.6083 F       1  UNL1       -0.2040
     12 N          -7.7211  -15.7241   26.8731 N.pl3   1  UNL1       -0.3040
     13 C          -8.7470  -16.7765   26.9584 C.3     1  UNL1        0.1122
     14 C          -8.6290  -17.7656   25.7941 C.3     1  UNL1        0.1122
     15 N          -8.3907  -17.0308   24.5435 N.pl3   1  UNL1       -0.3041
     16 C          -7.2990  -16.0452   24.4752 C.3     1  UNL1        0.1122
     17 C          -6.6669  -15.8149   25.8529 C.3     1  UNL1        0.1122
     18 C          -9.2694  -17.1957   23.4142 C.ar    1  UNL1        0.0479
     19 C          -8.7446  -17.4517   22.1371 C.ar    1  UNL1        0.0145
     20 C          -9.5971  -17.6118   21.0434 C.ar    1  UNL1        0.0012
     21 C         -10.9808  -17.5316   21.2133 C.ar    1  UNL1        0.0039
     22 C         -11.5285  -17.3105   22.4885 C.ar    1  UNL1        0.0726
     23 C         -10.6630  -17.1233   23.5812 C.ar    1  UNL1        0.0184
     24 C         -13.0201  -17.1758   22.6669 C.3     1  UNL1        0.4186
     25 F         -13.3525  -15.8351   22.7208 F       1  UNL1       -0.1659
     26 F         -13.4281  -17.7893   23.8388 F       1  UNL1       -0.1659
     27 F         -13.6957  -17.7657   21.6126 F       1  UNL1       -0.1659
     28 C          -8.7315  -10.6819   32.8631 C.3     1  UNL1        0.1535
     29 C          -8.3922   -9.2285   32.6581 C.2     1  UNL1        0.2443
     30 O          -7.6800   -8.6399   33.5165 O.2     1  UNL1       -0.2730
     31 N          -8.9251   -8.5011   31.5377 N.am    1  UNL1       -0.2825
     32 H          -9.7510   -8.9006   31.0378 H       1  UNL1        0.1549
     33 C          -8.4581   -7.2051   31.1256 C.ar    1  UNL1        0.0535
     34 C          -9.3667   -6.2854   30.5841 C.ar    1  UNL1        0.0353
     35 C          -8.9142   -5.0337   30.1600 C.ar    1  UNL1        0.1002
     36 N          -7.5962   -4.7165   30.2570 N.ar    1  UNL1       -0.2422
     37 C          -6.6879   -5.5941   30.7592 C.ar    1  UNL1        0.1002
     38 C          -7.0985   -6.8562   31.1959 C.ar    1  UNL1        0.0353
     39 C          -9.9444  -10.8278   33.8009 C.3     1  UNL1        0.0569
     40 C         -11.0588  -11.5894   33.1398 C.ar    1  UNL1       -0.0017
     41 C         -11.9245  -11.1024   32.1651 C.ar    1  UNL1        0.0681
     42 N         -12.8863  -12.0126   31.8896 N.ar    1  UNL1       -0.3523
     43 C         -12.6447  -13.0642   32.6912 C.ar    1  UNL1        0.0563
     44 C         -13.3996  -14.2313   32.8028 C.ar    1  UNL1        0.0170
     45 C         -12.9937  -15.1897   33.7491 C.ar    1  UNL1        0.0015
     46 C         -11.8588  -14.9608   34.5577 C.ar    1  UNL1        0.0001
     47 C         -11.1153  -13.7741   34.4230 C.ar    1  UNL1        0.0012
     48 C         -11.5387  -12.8436   33.4720 C.ar    1  UNL1        0.0131
     49 H         -13.6736  -11.9037   31.2123 H       1  UNL1        0.1660
@<TRIPOS>BOND
     1     1     2    2
     2     2     3   am
     3     3    28    1
     4    28    39    1
     5    39    40    1
     6    40    41   ar
     7    41    42   ar
     8    42    43   ar
     9    43    44   ar
    10    44    45   ar
    11    45    46   ar
    12    46    47   ar
    13    47    48   ar
    14    28    29    1
    15    29    30    2
    16    29    31   am
    17    31    33    1
    18    33    34   ar
    19    34    35   ar
    20    35    36   ar
    21    36    37   ar
    22    37    38   ar
    23     2     5    1
    24     5     6   ar
    25     6     7   ar
    26     7     8   ar
    27     8    12    1
    28    12    13    1
    29    13    14    1
    30    14    15    1
    31    15    18    1
    32    18    19   ar
    33    19    20   ar
    34    20    21   ar
    35    21    22   ar
    36    22    24    1
    37    24    25    1
    38    24    26    1
    39    24    27    1
    40    22    23   ar
    41    15    16    1
    42    16    17    1
    43     8     9   ar
    44     9    10   ar
    45    10    11    1
    46    48    40   ar
    47    38    33   ar
    48    10     5   ar
    49    48    43   ar
    50    17    12    1
    51    23    18   ar
    52     3     4    1
    53    42    49    1
    54    31    32    1
@<TRIPOS>MOLECULE
*****
 49 54 0 0 0
SMALL
GASTEIGER

@<TRIPOS>ATOM
      1 O          -5.3120  -16.0773   25.8941 O.2     1  UNL1       -0.2701
      2 C          -6.5199  -15.7154   25.9204 C.2     1  UNL1        0.2483
      3 N          -7.3920  -16.0469   24.8263 N.am    1  UNL1       -0.2945
      4 H          -8.4062  -15.8151   24.9090 H       1  UNL1        0.1501
      5 C          -6.9940  -14.8690   27.0357 C.ar    1  UNL1        0.0808
      6 C          -6.1483  -13.8678   27.5398 C.ar    1  UNL1        0.0080
      7 C          -6.6010  -12.9839   28.5212 C.ar    1  UNL1        0.0148
      8 C          -7.9027  -13.0954   29.0307 C.ar    1  UNL1        0.0502
      9 C          -8.7382  -14.1186   28.5551 C.ar    1  UNL1        0.0443
     10 C          -8.2890  -15.0040   27.5706 C.ar    1  UNL1        0.1457
     11 F          -9.1121  -16.0049   27.1682 F       1  UNL1       -0.2040
     12 N          -8.3887  -12.1471   29.9987 N.pl3   1  UNL1       -0.3040
     13 C          -7.4275  -11.4476   30.8672 C.3     1  UNL1        0.1122
     14 C          -8.0925  -10.2849   31.6115 C.3     1  UNL1        0.1122
     15 N          -8.9688   -9.5460   30.6914 N.pl3   1  UNL1       -0.3041
     16 C          -9.9751  -10.2750   29.9016 C.3     1  UNL1        0.1122
     17 C          -9.8138  -11.7920   30.0544 C.3     1  UNL1        0.1122
     18 C          -8.7934   -8.1314   30.4848 C.ar    1  UNL1        0.0479
     19 C          -7.5118   -7.5977   30.2734 C.ar    1  UNL1        0.0145
     20 C          -7.3430   -6.2267   30.0728 C.ar    1  UNL1        0.0012
     21 C          -8.4501   -5.3757   30.0676 C.ar    1  UNL1        0.0039
     22 C          -9.7449   -5.8931   30.2427 C.ar    1  UNL1        0.0726
     23 C          -9.9051   -7.2717   30.4712 C.ar    1  UNL1        0.0184
     24 C         -10.9374   -4.9707   30.2853 C.3     1  UNL1        0.4186
     25 F         -12.0213   -5.6012   29.7034 F       1  UNL1       -0.1659
     26 F         -10.6728   -3.7999   29.5956 F       1  UNL1       -0.1659
     27 F         -11.2558   -4.6401   31.5912 F       1  UNL1       -0.1659
     28 C          -6.8785  -16.3183   23.4791 C.3     1  UNL1        0.1535
     29 C          -8.0208  -16.6225   22.5453 C.2     1  UNL1        0.2443
     30 O          -7.9557  -17.6472   21.8129 O.2     1  UNL1       -0.2730
     31 N          -9.1399  -15.7255   22.4376 N.am    1  UNL1       -0.2825
     32 H          -9.0257  -14.7494   22.7921 H       1  UNL1        0.1549
     33 C         -10.3737  -16.0559   21.7774 C.ar    1  UNL1        0.0535
     34 C         -10.5207  -15.7765   20.4117 C.ar    1  UNL1        0.0353
     35 C         -11.7258  -16.0734   19.7707 C.ar    1  UNL1        0.1002
     36 N         -12.7560  -16.6151   20.4725 N.ar    1  UNL1       -0.2422
     37 C         -12.6508  -16.8791   21.8016 C.ar    1  UNL1        0.1002
     38 C         -11.4625  -16.5986   22.4810 C.ar    1  UNL1        0.0353
     39 C          -6.0616  -15.1190   22.9631 C.3     1  UNL1        0.0569
     40 C          -5.1975  -15.5069   21.7961 C.ar    1  UNL1       -0.0017
     41 C          -5.4493  -15.2286   20.4561 C.ar    1  UNL1        0.0681
     42 N          -4.5352  -15.8375   19.6668 N.ar    1  UNL1       -0.3523
     43 C          -3.7167  -16.5094   20.4948 C.ar    1  UNL1        0.0563
     44 C          -2.6463  -17.3300   20.1409 C.ar    1  UNL1        0.0170
     45 C          -1.9489  -17.9838   21.1728 C.ar    1  UNL1        0.0015
     46 C          -2.3357  -17.8097   22.5198 C.ar    1  UNL1        0.0001
     47 C          -3.4196  -16.9750   22.8479 C.ar    1  UNL1        0.0012
     48 C          -4.0895  -16.3350   21.8033 C.ar    1  UNL1        0.0131
     49 H          -4.4954  -15.8130   18.6236 H       1  UNL1        0.1660
@<TRIPOS>BOND
     1     1     2    2
     2     2     3   am
     3     3    28    1
     4    28    39    1
     5    39    40    1
     6    40    41   ar
     7    41    42   ar
     8    42    43   ar
     9    43    44   ar
    10    44    45   ar
    11    45    46   ar
    12    46    47   ar
    13    47    48   ar
    14    28    29    1
    15    29    30    2
    16    29    31   am
    17    31    33    1
    18    33    34   ar
    19    34    35   ar
    20    35    36   ar
    21    36    37   ar
    22    37    38   ar
    23     2     5    1
    24     5     6   ar
    25     6     7   ar
    26     7     8   ar
    27     8    12    1
    28    12    13    1
    29    13    14    1
    30    14    15    1
    31    15    18    1
    32    18    19   ar
    33    19    20   ar
    34    20    21   ar
    35    21    22   ar
    36    22    24    1
    37    24    25    1
    38    24    26    1
    39    24    27    1
    40    22    23   ar
    41    15    16    1
    42    16    17    1
    43     8     9   ar
    44     9    10   ar
    45    10    11    1
    46    48    40   ar
    47    38    33   ar
    48    10     5   ar
    49    48    43   ar
    50    17    12    1
    51    23    18   ar
    52     3     4    1
    53    42    49    1
    54    31    32    1
@<TRIPOS>MOLECULE
*****
 49 54 0 0 0
SMALL
GASTEIGER

@<TRIPOS>ATOM
      1 O          -8.9286  -10.8727   31.7385 O.2     1  UNL1       -0.2701
      2 C          -9.5450  -11.1823   30.6827 C.2     1  UNL1        0.2483
      3 N         -10.7982  -10.5494   30.3720 N.am    1  UNL1       -0.2945
      4 H         -11.2464  -10.7552   29.4522 H       1  UNL1        0.1501
      5 C          -9.0132  -12.2660   29.8295 C.ar    1  UNL1        0.0808
      6 C          -9.8914  -13.2527   29.3531 C.ar    1  UNL1        0.0080
      7 C          -9.4445  -14.2307   28.4625 C.ar    1  UNL1        0.0148
      8 C          -8.1059  -14.2519   28.0450 C.ar    1  UNL1        0.0502
      9 C          -7.2170  -13.2888   28.5484 C.ar    1  UNL1        0.0443
     10 C          -7.6616  -12.3065   29.4385 C.ar    1  UNL1        0.1457
     11 F          -6.7621  -11.4199   29.9346 F       1  UNL1       -0.2040
     12 N          -7.6600  -15.2236   27.0810 N.pl3   1  UNL1       -0.3040
     13 C          -8.2691  -16.5639   27.0746 C.3     1  UNL1        0.1122
     14 C          -7.8840  -17.3451   25.8139 C.3     1  UNL1        0.1122
     15 N          -7.9671  -16.4628   24.6412 N.pl3   1  UNL1       -0.3041
     16 C          -7.2729  -15.1644   24.6566 C.3     1  UNL1        0.1122
     17 C          -6.6876  -14.8600   26.0406 C.3     1  UNL1        0.1122
     18 C          -8.7941  -16.8118   23.5148 C.ar    1  UNL1        0.0479
     19 C          -8.2131  -17.2745   22.3230 C.ar    1  UNL1        0.0145
     20 C          -9.0156  -17.6129   21.2322 C.ar    1  UNL1        0.0012
     21 C         -10.4051  -17.5062   21.3220 C.ar    1  UNL1        0.0039
     22 C         -11.0092  -17.0783   22.5165 C.ar    1  UNL1        0.0726
     23 C         -10.1933  -16.7134   23.6026 C.ar    1  UNL1        0.0184
     24 C         -12.5063  -16.9166   22.6007 C.3     1  UNL1        0.4186
     25 F         -13.0835  -17.4184   21.4493 F       1  UNL1       -0.1659
     26 F         -12.8456  -15.5808   22.7302 F       1  UNL1       -0.1659
     27 F         -13.0130  -17.5988   23.6933 F       1  UNL1       -0.1659
     28 C         -11.6509   -9.9637   31.4122 C.3     1  UNL1        0.1535
     29 C         -12.0828  -11.0307   32.3839 C.2     1  UNL1        0.2443
     30 O         -12.8350  -10.7139   33.3454 O.2     1  UNL1       -0.2730
     31 N         -11.5937  -12.3776   32.2606 N.am    1  UNL1       -0.2825
     32 H         -10.7417  -12.5418   31.6787 H       1  UNL1        0.1549
     33 C         -12.1421  -13.4998   32.9729 C.ar    1  UNL1        0.0535
     34 C         -13.1872  -14.2364   32.3986 C.ar    1  UNL1        0.0353
     35 C         -13.7398  -15.3129   33.0966 C.ar    1  UNL1        0.1002
     36 N         -13.2769  -15.6332   34.3336 N.ar    1  UNL1       -0.2422
     37 C         -12.2783  -14.9259   34.9251 C.ar    1  UNL1        0.1002
     38 C         -11.6970  -13.8426   34.2611 C.ar    1  UNL1        0.0353
     39 C         -10.9052   -8.8331   32.1455 C.3     1  UNL1        0.0569
     40 C         -10.9751   -7.5432   31.3772 C.ar    1  UNL1       -0.0017
     41 C         -12.0901   -7.0375   30.7158 C.ar    1  UNL1        0.0681
     42 N         -11.7631   -5.9242   30.0208 N.ar    1  UNL1       -0.3523
     43 C         -10.4488   -5.7298   30.2257 C.ar    1  UNL1        0.0563
     44 C          -9.6473   -4.7312   29.6735 C.ar    1  UNL1        0.0170
     45 C          -8.2752   -4.7425   29.9829 C.ar    1  UNL1        0.0015
     46 C          -7.7393   -5.7433   30.8228 C.ar    1  UNL1        0.0001
     47 C          -8.5719   -6.7385   31.3666 C.ar    1  UNL1        0.0012
     48 C          -9.9304   -6.6989   31.0464 C.ar    1  UNL1        0.0131
     49 H         -12.3995   -5.3519   29.4226 H       1  UNL1        0.1660
@<TRIPOS>BOND
     1     1     2    2
     2     2     3   am
     3     3    28    1
     4    28    39    1
     5    39    40    1
     6    40    41   ar
     7    41    42   ar
     8    42    43   ar
     9    43    44   ar
    10    44    45   ar
    11    45    46   ar
    12    46    47   ar
    13    47    48   ar
    14    28    29    1
    15    29    30    2
    16    29    31   am
    17    31    33    1
    18    33    34   ar
    19    34    35   ar
    20    35    36   ar
    21    36    37   ar
    22    37    38   ar
    23     2     5    1
    24     5     6   ar
    25     6     7   ar
    26     7     8   ar
    27     8    12    1
    28    12    13    1
    29    13    14    1
    30    14    15    1
    31    15    18    1
    32    18    19   ar
    33    19    20   ar
    34    20    21   ar
    35    21    22   ar
    36    22    24    1
    37    24    25    1
    38    24    26    1
    39    24    27    1
    40    22    23   ar
    41    15    16    1
    42    16    17    1
    43     8     9   ar
    44     9    10   ar
    45    10    11    1
    46    48    40   ar
    47    38    33   ar
    48    10     5   ar
    49    48    43   ar
    50    17    12    1
    51    23    18   ar
    52     3     4    1
    53    42    49    1
    54    31    32    1
