@<TRIPOS>MOLECULE
*****
 51 56 0 0 0
SMALL
GASTEIGER

@<TRIPOS>ATOM
      1 N          59.6679   85.2664   12.0441 N.am    1  UNL1       -0.2945
      2 C          59.1740   84.9729   10.7269 C.2     1  UNL1        0.2483
      3 O          58.6684   83.8416   10.4916 O.2     1  UNL1       -0.2701
      4 H          59.6995   86.2612   12.3603 H       1  UNL1        0.1501
      5 C          59.2472   85.9753    9.6329 C.ar    1  UNL1        0.0808
      6 C          59.1736   85.5431    8.2971 C.ar    1  UNL1        0.0080
      7 C          59.3054   86.4502    7.2436 C.ar    1  UNL1        0.0148
      8 C          59.5252   87.8133    7.4978 C.ar    1  UNL1        0.0502
      9 C          59.5939   88.2500    8.8312 C.ar    1  UNL1        0.0443
     10 C          59.4576   87.3468    9.8890 C.ar    1  UNL1        0.1457
     11 F          59.5820   87.8214   11.1530 F       1  UNL1       -0.2040
     12 N          59.6809   88.7482    6.4074 N.pl3   1  UNL1       -0.3040
     13 C          58.5157   89.1041    5.5830 C.3     1  UNL1        0.1123
     14 C          58.7535   90.3972    4.7971 C.3     1  UNL1        0.1136
     15 N          60.0303   90.3328    4.0713 N.pl3   1  UNL1       -0.2897
     16 C          61.1987   89.6988    4.7053 C.3     1  UNL1        0.1136
     17 C          60.9650   89.4313    6.1961 C.3     1  UNL1        0.1123
     18 C          60.1668   91.0139    2.8035 C.ar    1  UNL1        0.1318
     19 C          61.3972   91.0584    2.1248 C.ar    1  UNL1        0.0343
     20 C          61.4890   91.7270    0.9031 C.ar    1  UNL1        0.0083
     21 C          60.3655   92.3677    0.3610 C.ar    1  UNL1        0.0906
     22 C          59.1485   92.2756    1.0526 C.ar    1  UNL1        0.1041
     23 N          59.0826   91.6176    2.2400 N.ar    1  UNL1       -0.2292
     24 C          60.4398   93.0493   -0.9816 C.3     1  UNL1        0.4200
     25 F          61.5722   93.8411   -1.0649 F       1  UNL1       -0.1658
     26 F          59.3211   93.8432   -1.1516 F       1  UNL1       -0.1658
     27 F          60.4890   92.1144   -2.0011 F       1  UNL1       -0.1658
     28 C          60.1117   84.2390   12.9938 C.3     1  UNL1        0.1535
     29 C          59.9448   82.8637   12.3961 C.2     1  UNL1        0.2443
     30 O          60.7692   82.4374   11.5411 O.2     1  UNL1       -0.2730
     31 N          58.7926   82.0804   12.7451 N.am    1  UNL1       -0.2825
     32 H          57.9983   82.5700   13.2166 H       1  UNL1        0.1549
     33 C          58.6155   80.7000   12.3839 C.ar    1  UNL1        0.0535
     34 C          58.7929   79.7057   13.3556 C.ar    1  UNL1        0.0353
     35 C          58.6441   78.3617   13.0052 C.ar    1  UNL1        0.1002
     36 N          58.3452   78.0201   11.7240 N.ar    1  UNL1       -0.2422
     37 C          58.1868   78.9602   10.7553 C.ar    1  UNL1        0.1002
     38 C          58.3258   80.3159   11.0635 C.ar    1  UNL1        0.0353
     39 C          61.5508   84.5069   13.4895 C.3     1  UNL1        0.0570
     40 C          62.5001   86.0664   10.7399 C.ar    1  UNL1        0.1398
     41 C          62.8265   87.0084    9.7335 C.ar    1  UNL1        0.0370
     42 C          62.9760   88.3743   10.0466 C.ar    1  UNL1        0.0046
     43 C          62.8079   88.8254   11.3639 C.ar    1  UNL1        0.0172
     44 C          62.4833   87.8874   12.3404 C.ar    1  UNL1        0.0593
     45 N          62.2542   88.1328   13.6409 N.ar    1  UNL1       -0.3522
     46 C          61.9328   86.9455   14.1955 C.ar    1  UNL1        0.0682
     47 C          61.9616   85.9341   13.2402 C.ar    1  UNL1        0.0013
     48 C          62.3230   86.5522   12.0463 C.ar    1  UNL1        0.0471
     49 H          62.2930   89.0574   14.1248 H       1  UNL1        0.1660
     50 C          62.9202   84.0436    9.3344 C.3     1  UNL1        0.2525
     51 O          62.3577   84.6997   10.4656 O.3     1  UNL1       -0.4714
@<TRIPOS>BOND
     1    50    51    1
     2    51    40    1
     3    40    41   ar
     4    41    42   ar
     5    42    43   ar
     6    43    44   ar
     7    44    45   ar
     8    45    46   ar
     9    46    47   ar
    10    47    39    1
    11    39    28    1
    12    28     1    1
    13     1     2   am
    14     2     3    2
    15     2     5    1
    16     5     6   ar
    17     6     7   ar
    18     7     8   ar
    19     8    12    1
    20    12    13    1
    21    13    14    1
    22    14    15    1
    23    15    18    1
    24    18    19   ar
    25    19    20   ar
    26    20    21   ar
    27    21    24    1
    28    24    25    1
    29    24    26    1
    30    24    27    1
    31    21    22   ar
    32    22    23   ar
    33    15    16    1
    34    16    17    1
    35     8     9   ar
    36     9    10   ar
    37    10    11    1
    38    28    29    1
    39    29    30    2
    40    29    31   am
    41    31    33    1
    42    33    34   ar
    43    34    35   ar
    44    35    36   ar
    45    36    37   ar
    46    37    38   ar
    47    47    48   ar
    48    48    40   ar
    49    48    44   ar
    50    10     5   ar
    51    38    33   ar
    52    17    12    1
    53    23    18   ar
    54    45    49    1
    55     1     4    1
    56    31    32    1
@<TRIPOS>MOLECULE
*****
 51 56 0 0 0
SMALL
GASTEIGER

@<TRIPOS>ATOM
      1 N          60.3236   84.2135   12.8136 N.am    1  UNL1       -0.2945
      2 C          59.4716   84.1381   11.6588 C.2     1  UNL1        0.2483
      3 O          58.6753   83.1675   11.5376 O.2     1  UNL1       -0.2701
      4 H          60.6612   85.1495   13.1304 H       1  UNL1        0.1501
      5 C          59.5093   85.1806   10.6012 C.ar    1  UNL1        0.0808
      6 C          59.1233   84.8466    9.2912 C.ar    1  UNL1        0.0080
      7 C          59.2093   85.7836    8.2593 C.ar    1  UNL1        0.0148
      8 C          59.6941   87.0775    8.5078 C.ar    1  UNL1        0.0502
      9 C          60.0757   87.4168    9.8165 C.ar    1  UNL1        0.0443
     10 C          59.9867   86.4842   10.8536 C.ar    1  UNL1        0.1457
     11 F          60.4158   86.8563   12.0847 F       1  UNL1       -0.2040
     12 N          59.8013   88.0404    7.4361 N.pl3   1  UNL1       -0.3040
     13 C          58.7947   88.0489    6.3633 C.3     1  UNL1        0.1123
     14 C          58.8046   89.3712    5.5901 C.3     1  UNL1        0.1136
     15 N          60.1699   89.7089    5.1623 N.pl3   1  UNL1       -0.2897
     16 C          61.3040   89.4402    6.0626 C.3     1  UNL1        0.1136
     17 C          60.8377   89.0816    7.4777 C.3     1  UNL1        0.1123
     18 C          60.3737   90.4279    3.9248 C.ar    1  UNL1        0.1318
     19 C          59.3196   91.1096    3.2917 C.ar    1  UNL1        0.0343
     20 C          59.5561   91.7916    2.0971 C.ar    1  UNL1        0.0083
     21 C          60.8338   91.7839    1.5190 C.ar    1  UNL1        0.0906
     22 C          61.8665   91.1181    2.1958 C.ar    1  UNL1        0.1041
     23 N          61.6131   90.4623    3.3588 N.ar    1  UNL1       -0.2292
     24 C          61.1131   92.5587    0.2564 C.3     1  UNL1        0.4200
     25 F          62.1144   93.4909    0.4673 F       1  UNL1       -0.1658
     26 F          59.9625   93.2147   -0.1391 F       1  UNL1       -0.1658
     27 F          61.5192   91.7087   -0.7577 F       1  UNL1       -0.1658
     28 C          60.7323   83.0437   13.6005 C.3     1  UNL1        0.1535
     29 C          61.3193   81.9843   12.7007 C.2     1  UNL1        0.2443
     30 O          62.5685   81.9076   12.5394 O.2     1  UNL1       -0.2730
     31 N          60.4392   81.1208   11.9641 N.am    1  UNL1       -0.2825
     32 H          59.4334   81.3977   11.8960 H       1  UNL1        0.1549
     33 C          60.8739   79.9694   11.2207 C.ar    1  UNL1        0.0535
     34 C          60.6016   78.6868   11.7159 C.ar    1  UNL1        0.0353
     35 C          61.0409   77.5648   11.0093 C.ar    1  UNL1        0.1002
     36 N          61.7438   77.7174    9.8560 N.ar    1  UNL1       -0.2422
     37 C          62.0407   78.9480    9.3610 C.ar    1  UNL1        0.1002
     38 C          61.6191   80.0964   10.0360 C.ar    1  UNL1        0.0353
     39 C          61.6775   83.4392   14.7574 C.3     1  UNL1        0.0570
     40 C          63.6602   86.0755   14.6491 C.ar    1  UNL1        0.1398
     41 C          64.2245   87.3747   14.6298 C.ar    1  UNL1        0.0370
     42 C          63.4713   88.4933   15.0390 C.ar    1  UNL1        0.0046
     43 C          62.1480   88.3389   15.4774 C.ar    1  UNL1        0.0172
     44 C          61.6071   87.0559   15.4865 C.ar    1  UNL1        0.0593
     45 N          60.3567   86.7173   15.8411 N.ar    1  UNL1       -0.3522
     46 C          60.2615   85.3846   15.6527 C.ar    1  UNL1        0.0682
     47 C          61.4638   84.8694   15.1779 C.ar    1  UNL1        0.0013
     48 C          62.3278   85.9563   15.0786 C.ar    1  UNL1        0.0471
     49 H          59.6004   87.3560   16.1736 H       1  UNL1        0.1660
     50 C          65.4869   84.4044   14.9872 C.3     1  UNL1        0.2525
     51 O          64.3854   84.9406   14.2623 O.3     1  UNL1       -0.4714
@<TRIPOS>BOND
     1    50    51    1
     2    51    40    1
     3    40    41   ar
     4    41    42   ar
     5    42    43   ar
     6    43    44   ar
     7    44    45   ar
     8    45    46   ar
     9    46    47   ar
    10    47    39    1
    11    39    28    1
    12    28     1    1
    13     1     2   am
    14     2     3    2
    15     2     5    1
    16     5     6   ar
    17     6     7   ar
    18     7     8   ar
    19     8    12    1
    20    12    13    1
    21    13    14    1
    22    14    15    1
    23    15    18    1
    24    18    19   ar
    25    19    20   ar
    26    20    21   ar
    27    21    24    1
    28    24    25    1
    29    24    26    1
    30    24    27    1
    31    21    22   ar
    32    22    23   ar
    33    15    16    1
    34    16    17    1
    35     8     9   ar
    36     9    10   ar
    37    10    11    1
    38    28    29    1
    39    29    30    2
    40    29    31   am
    41    31    33    1
    42    33    34   ar
    43    34    35   ar
    44    35    36   ar
    45    36    37   ar
    46    37    38   ar
    47    47    48   ar
    48    48    40   ar
    49    48    44   ar
    50    10     5   ar
    51    38    33   ar
    52    17    12    1
    53    23    18   ar
    54    45    49    1
    55     1     4    1
    56    31    32    1
@<TRIPOS>MOLECULE
*****
 51 56 0 0 0
SMALL
GASTEIGER

@<TRIPOS>ATOM
      1 N          61.2639   81.7601   12.0226 N.am    1  UNL1       -0.2945
      2 C          62.2482   82.7271   11.6212 C.2     1  UNL1        0.2483
      3 O          63.4025   82.6844   12.1275 O.2     1  UNL1       -0.2701
      4 H          60.4924   81.5216   11.3605 H       1  UNL1        0.1501
      5 C          61.9344   83.7796   10.6209 C.ar    1  UNL1        0.0808
      6 C          62.0815   85.1321   10.9755 C.ar    1  UNL1        0.0080
      7 C          61.7327   86.1476   10.0826 C.ar    1  UNL1        0.0148
      8 C          61.2170   85.8376    8.8142 C.ar    1  UNL1        0.0502
      9 C          61.0736   84.4874    8.4540 C.ar    1  UNL1        0.0443
     10 C          61.4260   83.4674    9.3422 C.ar    1  UNL1        0.1457
     11 F          61.2188   82.1847    8.9551 F       1  UNL1       -0.2040
     12 N          60.8380   86.8886    7.8982 N.pl3   1  UNL1       -0.3040
     13 C          60.1419   86.5473    6.6480 C.3     1  UNL1        0.1123
     14 C          59.4405   87.7663    6.0411 C.3     1  UNL1        0.1136
     15 N          60.3698   88.9011    5.9435 N.pl3   1  UNL1       -0.2897
     16 C          61.3403   89.1443    7.0243 C.3     1  UNL1        0.1136
     17 C          61.0377   88.2977    8.2652 C.3     1  UNL1        0.1123
     18 C          60.2303   89.8479    4.8599 C.ar    1  UNL1        0.1318
     19 C          59.0465   90.5842    4.6786 C.ar    1  UNL1        0.0343
     20 C          58.9499   91.4882    3.6195 C.ar    1  UNL1        0.0083
     21 C          60.0203   91.6505    2.7281 C.ar    1  UNL1        0.0906
     22 C          61.1957   90.9206    2.9595 C.ar    1  UNL1        0.1041
     23 N          61.2674   90.0474    3.9984 N.ar    1  UNL1       -0.2292
     24 C          59.9468   92.6603    1.6113 C.3     1  UNL1        0.4200
     25 F          59.3761   93.8401    2.0568 F       1  UNL1       -0.1658
     26 F          59.1776   92.1474    0.5837 F       1  UNL1       -0.1658
     27 F          61.2120   92.9466    1.1284 F       1  UNL1       -0.1658
     28 C          61.2915   81.0587   13.3118 C.3     1  UNL1        0.1535
     29 C          61.6862   82.0067   14.4173 C.2     1  UNL1        0.2443
     30 O          62.1545   81.5604   15.5009 O.2     1  UNL1       -0.2730
     31 N          61.4440   83.4133   14.2573 N.am    1  UNL1       -0.2825
     32 H          60.8008   83.7101   13.4885 H       1  UNL1        0.1549
     33 C          61.9339   84.4238   15.1552 C.ar    1  UNL1        0.0535
     34 C          61.1432   84.8214   16.2420 C.ar    1  UNL1        0.0353
     35 C          61.6043   85.8185   17.1048 C.ar    1  UNL1        0.1002
     36 N          62.8066   86.4115   16.8809 N.ar    1  UNL1       -0.2422
     37 C          63.5869   86.0617   15.8244 C.ar    1  UNL1        0.1002
     38 C          63.1638   85.0681   14.9378 C.ar    1  UNL1        0.0353
     39 C          59.9563   80.3328   13.5924 C.3     1  UNL1        0.0570
     40 C          58.4655   82.2471   11.3549 C.ar    1  UNL1        0.1398
     41 C          57.8616   82.8009   10.1994 C.ar    1  UNL1        0.0370
     42 C          57.4530   81.9742    9.1337 C.ar    1  UNL1        0.0046
     43 C          57.6338   80.5850    9.2004 C.ar    1  UNL1        0.0172
     44 C          58.2326   80.0571   10.3412 C.ar    1  UNL1        0.0593
     45 N          58.5150   78.7643   10.5712 N.ar    1  UNL1       -0.3522
     46 C          59.1274   78.7224   11.7729 C.ar    1  UNL1        0.0682
     47 C          59.2321   79.9998   12.3147 C.ar    1  UNL1        0.0013
     48 C          58.6468   80.8542   11.3843 C.ar    1  UNL1        0.0471
     49 H          58.3225   77.9546    9.9405 H       1  UNL1        0.1660
     50 C          58.7169   84.4522   12.5029 C.3     1  UNL1        0.2525
     51 O          58.8706   83.0385   12.4380 O.3     1  UNL1       -0.4714
@<TRIPOS>BOND
     1    50    51    1
     2    51    40    1
     3    40    41   ar
     4    41    42   ar
     5    42    43   ar
     6    43    44   ar
     7    44    45   ar
     8    45    46   ar
     9    46    47   ar
    10    47    39    1
    11    39    28    1
    12    28     1    1
    13     1     2   am
    14     2     3    2
    15     2     5    1
    16     5     6   ar
    17     6     7   ar
    18     7     8   ar
    19     8    12    1
    20    12    13    1
    21    13    14    1
    22    14    15    1
    23    15    18    1
    24    18    19   ar
    25    19    20   ar
    26    20    21   ar
    27    21    24    1
    28    24    25    1
    29    24    26    1
    30    24    27    1
    31    21    22   ar
    32    22    23   ar
    33    15    16    1
    34    16    17    1
    35     8     9   ar
    36     9    10   ar
    37    10    11    1
    38    28    29    1
    39    29    30    2
    40    29    31   am
    41    31    33    1
    42    33    34   ar
    43    34    35   ar
    44    35    36   ar
    45    36    37   ar
    46    37    38   ar
    47    47    48   ar
    48    48    40   ar
    49    48    44   ar
    50    10     5   ar
    51    38    33   ar
    52    17    12    1
    53    23    18   ar
    54    45    49    1
    55     1     4    1
    56    31    32    1
@<TRIPOS>MOLECULE
*****
 51 56 0 0 0
SMALL
GASTEIGER

@<TRIPOS>ATOM
      1 N          60.4289   84.3632   12.8230 N.am    1  UNL1       -0.2945
      2 C          59.4205   84.4555   11.8033 C.2     1  UNL1        0.2483
      3 O          58.3816   83.7459   11.8919 O.2     1  UNL1       -0.2701
      4 H          61.0529   85.1836   12.9903 H       1  UNL1        0.1501
      5 C          59.5761   85.3703   10.6431 C.ar    1  UNL1        0.0808
      6 C          60.1154   86.6528   10.8452 C.ar    1  UNL1        0.0080
      7 C          60.2144   87.5615    9.7894 C.ar    1  UNL1        0.0148
      8 C          59.7667   87.2155    8.5046 C.ar    1  UNL1        0.0502
      9 C          59.2323   85.9329    8.2974 C.ar    1  UNL1        0.0443
     10 C          59.1357   85.0182    9.3496 C.ar    1  UNL1        0.1457
     11 F          58.5662   83.8138    9.0977 F       1  UNL1       -0.2040
     12 N          59.8514   88.1627    7.4171 N.pl3   1  UNL1       -0.3040
     13 C          58.7828   88.2073    6.4070 C.3     1  UNL1        0.1123
     14 C          58.8048   89.5207    5.6191 C.3     1  UNL1        0.1136
     15 N          60.1553   89.7921    5.1056 N.pl3   1  UNL1       -0.2897
     16 C          61.3290   89.4803    5.9389 C.3     1  UNL1        0.1136
     17 C          60.9341   89.1561    7.3836 C.3     1  UNL1        0.1123
     18 C          60.3154   90.4899    3.8496 C.ar    1  UNL1        0.1318
     19 C          61.5584   90.5436    3.1950 C.ar    1  UNL1        0.0343
     20 C          61.6731   91.2283    1.9841 C.ar    1  UNL1        0.0083
     21 C          60.5597   91.8758    1.4293 C.ar    1  UNL1        0.0906
     22 C          59.3299   91.7743    2.0965 C.ar    1  UNL1        0.1041
     23 N          59.2418   91.1007    3.2736 N.ar    1  UNL1       -0.2292
     24 C          60.6591   92.5750    0.0975 C.3     1  UNL1        0.4200
     25 F          59.7378   93.6049    0.0170 F       1  UNL1       -0.1658
     26 F          60.4087   91.6662   -0.9135 F       1  UNL1       -0.1658
     27 F          61.9234   93.1099   -0.0794 F       1  UNL1       -0.1658
     28 C          60.6207   83.1814   13.6722 C.3     1  UNL1        0.1535
     29 C          61.2545   82.0635   12.8816 C.2     1  UNL1        0.2443
     30 O          62.4873   81.8210   12.9989 O.2     1  UNL1       -0.2730
     31 N          60.4599   81.3357   11.9320 N.am    1  UNL1       -0.2825
     32 H          59.5398   81.7465   11.6538 H       1  UNL1        0.1549
     33 C          60.8995   80.1453   11.2559 C.ar    1  UNL1        0.0535
     34 C          61.7028   80.2592   10.1130 C.ar    1  UNL1        0.0353
     35 C          62.1144   79.1069    9.4392 C.ar    1  UNL1        0.1002
     36 N          61.7233   77.8824    9.8807 N.ar    1  UNL1       -0.2422
     37 C          60.9283   77.7406   10.9740 C.ar    1  UNL1        0.1002
     38 C          60.4951   78.8672   11.6777 C.ar    1  UNL1        0.0353
     39 C          61.4059   83.5270   14.9577 C.3     1  UNL1        0.0570
     40 C          61.4507   86.8263   15.0304 C.ar    1  UNL1        0.1398
     41 C          61.7997   88.1983   15.0831 C.ar    1  UNL1        0.0370
     42 C          63.1278   88.6128   14.8593 C.ar    1  UNL1        0.0046
     43 C          64.1290   87.6725   14.5756 C.ar    1  UNL1        0.0172
     44 C          63.7703   86.3279   14.5314 C.ar    1  UNL1        0.0593
     45 N          64.5903   85.2880   14.3071 N.ar    1  UNL1       -0.3522
     46 C          63.8251   84.1805   14.3997 C.ar    1  UNL1        0.0682
     47 C          62.5050   84.5187   14.6811 C.ar    1  UNL1        0.0013
     48 C          62.4792   85.9083   14.7595 C.ar    1  UNL1        0.0471
     49 H          65.6173   85.3230   14.1215 H       1  UNL1        0.1660
     50 C          58.9991   86.8966   14.5529 C.3     1  UNL1        0.2525
     51 O          60.1378   86.3814   15.2343 O.3     1  UNL1       -0.4714
@<TRIPOS>BOND
     1    50    51    1
     2    51    40    1
     3    40    41   ar
     4    41    42   ar
     5    42    43   ar
     6    43    44   ar
     7    44    45   ar
     8    45    46   ar
     9    46    47   ar
    10    47    39    1
    11    39    28    1
    12    28     1    1
    13     1     2   am
    14     2     3    2
    15     2     5    1
    16     5     6   ar
    17     6     7   ar
    18     7     8   ar
    19     8    12    1
    20    12    13    1
    21    13    14    1
    22    14    15    1
    23    15    18    1
    24    18    19   ar
    25    19    20   ar
    26    20    21   ar
    27    21    24    1
    28    24    25    1
    29    24    26    1
    30    24    27    1
    31    21    22   ar
    32    22    23   ar
    33    15    16    1
    34    16    17    1
    35     8     9   ar
    36     9    10   ar
    37    10    11    1
    38    28    29    1
    39    29    30    2
    40    29    31   am
    41    31    33    1
    42    33    34   ar
    43    34    35   ar
    44    35    36   ar
    45    36    37   ar
    46    37    38   ar
    47    47    48   ar
    48    48    40   ar
    49    48    44   ar
    50    10     5   ar
    51    38    33   ar
    52    17    12    1
    53    23    18   ar
    54    45    49    1
    55     1     4    1
    56    31    32    1
