@<TRIPOS>MOLECULE
*****
 26 28 0 0 0
SMALL
GASTEIGER

@<TRIPOS>ATOM
      1 C          47.2981   12.4540  -23.5884 C.ar    1  UNL1        0.1386
      2 C          45.9114   12.4647  -23.7805 C.ar    1  UNL1        0.0366
      3 C          45.3628   12.1630  -25.0292 C.ar    1  UNL1       -0.0011
      4 C          46.1983   11.8555  -26.1134 C.ar    1  UNL1       -0.0206
      5 C          47.5894   11.8822  -25.9359 C.ar    1  UNL1       -0.0011
      6 C          48.1380   12.1839  -24.6864 C.ar    1  UNL1        0.0366
      7 O          47.7840   12.6992  -22.2931 O.3     1  UNL1       -0.4736
      8 C          47.4389   11.9762  -21.1093 C.3     1  UNL1        0.2267
      9 C          47.6293   10.4635  -21.2876 C.3     1  UNL1        0.1396
     10 C          49.6911    9.9354  -19.9306 C.3     1  UNL1        0.1137
     11 N          49.0511   10.0776  -21.2447 N.pl3   1  UNL1       -0.2879
     12 C          49.8577    9.8564  -22.4319 C.ar    1  UNL1        0.1318
     13 C          49.7995    8.6592  -23.1781 C.ar    1  UNL1        0.0343
     14 C          50.5657    8.5299  -24.3385 C.ar    1  UNL1        0.0045
     15 C          51.3876    9.5758  -24.7529 C.ar    1  UNL1        0.0208
     16 C          51.4356   10.7431  -23.9939 C.ar    1  UNL1        0.1003
     17 N          50.6808   10.8542  -22.8694 N.ar    1  UNL1       -0.2292
     18 C          45.6131   11.5320  -27.4641 C.3     1  UNL1        0.0468
     19 C          46.6125   11.8186  -28.5958 C.3     1  UNL1        0.1369
     20 S          46.0162   13.2006  -29.6626 S.3     1  UNL1       -0.0482
     21 C          45.9175   12.0930  -31.0587 C.2     1  UNL1        0.2792
     22 O          45.4719   12.4552  -32.1785 O.2     1  UNL1       -0.2625
     23 N          46.3647   10.7746  -30.8241 N.am    1  UNL1       -0.2460
     24 C          46.7707   10.6164  -29.4784 C.2     1  UNL1        0.2392
     25 O          47.2472    9.5281  -29.0596 O.2     1  UNL1       -0.2737
     26 H          46.3930   10.0202  -31.5456 H       1  UNL1        0.1583
@<TRIPOS>BOND
     1    10    11    1
     2    11     9    1
     3     9     8    1
     4     8     7    1
     5     7     1    1
     6     1     2   ar
     7     2     3   ar
     8     3     4   ar
     9     4    18    1
    10    18    19    1
    11    19    20    1
    12    20    21    1
    13    21    22    2
    14    21    23   am
    15    23    24   am
    16    24    25    2
    17     4     5   ar
    18     5     6   ar
    19    11    12    1
    20    12    13   ar
    21    13    14   ar
    22    14    15   ar
    23    15    16   ar
    24    16    17   ar
    25     6     1   ar
    26    17    12   ar
    27    24    19    1
    28    23    26    1
@<TRIPOS>MOLECULE
*****
 26 28 0 0 0
SMALL
GASTEIGER

@<TRIPOS>ATOM
      1 C          50.7539   10.8208  -26.3369 C.ar    1  UNL1        0.1386
      2 C          51.9747   11.4283  -26.6542 C.ar    1  UNL1        0.0366
      3 C          52.7182   11.0003  -27.7567 C.ar    1  UNL1       -0.0011
      4 C          52.2545    9.9448  -28.5559 C.ar    1  UNL1       -0.0206
      5 C          51.0515    9.3069  -28.2190 C.ar    1  UNL1       -0.0011
      6 C          50.3078    9.7354  -27.1160 C.ar    1  UNL1        0.0366
      7 O          50.0217   11.3419  -25.2569 O.3     1  UNL1       -0.4736
      8 C          48.5977   11.3774  -25.1391 C.3     1  UNL1        0.2267
      9 C          47.9830   12.5086  -25.9750 C.3     1  UNL1        0.1396
     10 C          45.5116   12.0241  -25.8055 C.3     1  UNL1        0.1137
     11 N          46.7275   12.0938  -26.6262 N.pl3   1  UNL1       -0.2879
     12 C          46.6352   11.7260  -28.0280 C.ar    1  UNL1        0.1318
     13 C          46.1799   12.6213  -29.0203 C.ar    1  UNL1        0.0343
     14 C          46.1620   12.2201  -30.3578 C.ar    1  UNL1        0.0045
     15 C          46.5856   10.9400  -30.7087 C.ar    1  UNL1        0.0208
     16 C          47.0206   10.0714  -29.7101 C.ar    1  UNL1        0.1003
     17 N          47.0355   10.4788  -28.4138 N.ar    1  UNL1       -0.2292
     18 C          53.0531    9.4761  -29.7451 C.3     1  UNL1        0.0468
     19 C          53.2850    7.9574  -29.7064 C.3     1  UNL1        0.1369
     20 S          55.0838    7.5725  -29.5657 S.3     1  UNL1       -0.0482
     21 C          55.0438    6.7594  -31.1541 C.2     1  UNL1        0.2792
     22 O          56.0770    6.2937  -31.7012 O.2     1  UNL1       -0.2625
     23 N          53.7742    6.6791  -31.7663 N.am    1  UNL1       -0.2460
     24 C          52.7937    7.3151  -30.9695 C.2     1  UNL1        0.2392
     25 O          51.5796    7.3249  -31.3050 O.2     1  UNL1       -0.2737
     26 H          53.5848    6.2129  -32.6814 H       1  UNL1        0.1583
@<TRIPOS>BOND
     1    10    11    1
     2    11     9    1
     3     9     8    1
     4     8     7    1
     5     7     1    1
     6     1     2   ar
     7     2     3   ar
     8     3     4   ar
     9     4    18    1
    10    18    19    1
    11    19    20    1
    12    20    21    1
    13    21    22    2
    14    21    23   am
    15    23    24   am
    16    24    25    2
    17     4     5   ar
    18     5     6   ar
    19    11    12    1
    20    12    13   ar
    21    13    14   ar
    22    14    15   ar
    23    15    16   ar
    24    16    17   ar
    25     6     1   ar
    26    17    12   ar
    27    24    19    1
    28    23    26    1
@<TRIPOS>MOLECULE
*****
 26 28 0 0 0
SMALL
GASTEIGER

@<TRIPOS>ATOM
      1 C          46.7777   13.2952  -24.0263 C.ar    1  UNL1        0.1386
      2 C          45.4618   12.9002  -24.2950 C.ar    1  UNL1        0.0366
      3 C          45.1495   12.2163  -25.4724 C.ar    1  UNL1       -0.0011
      4 C          46.1526   11.9260  -26.4091 C.ar    1  UNL1       -0.0206
      5 C          47.4653   12.3545  -26.1629 C.ar    1  UNL1       -0.0011
      6 C          47.7775   13.0385  -24.9847 C.ar    1  UNL1        0.0366
      7 O          47.0381   13.9187  -22.7944 O.3     1  UNL1       -0.4736
      8 C          48.3201   14.0844  -22.1846 C.3     1  UNL1        0.2267
      9 C          48.9469   15.4420  -22.5316 C.3     1  UNL1        0.1396
     10 C          51.0830   14.2176  -23.0879 C.3     1  UNL1        0.1137
     11 N          50.1351   15.2974  -23.3917 N.pl3   1  UNL1       -0.2879
     12 C          50.4304   16.1811  -24.5056 C.ar    1  UNL1        0.1318
     13 C          49.9238   15.9614  -25.8051 C.ar    1  UNL1        0.0343
     14 C          50.2060   16.8771  -26.8211 C.ar    1  UNL1        0.0045
     15 C          50.9891   17.9979  -26.5534 C.ar    1  UNL1        0.0208
     16 C          51.4860   18.1870  -25.2657 C.ar    1  UNL1        0.1003
     17 N          51.1988   17.2886  -24.2875 N.ar    1  UNL1       -0.2292
     18 C          45.8221   11.1911  -27.6828 C.3     1  UNL1        0.0468
     19 C          46.6790   11.6858  -28.8587 C.3     1  UNL1        0.1369
     20 S          45.9845   13.2414  -29.5669 S.3     1  UNL1       -0.0482
     21 C          45.6892   12.4136  -31.1204 C.2     1  UNL1        0.2792
     22 O          45.1157   12.9774  -32.0883 O.2     1  UNL1       -0.2625
     23 N          46.1336   11.0755  -31.1925 N.am    1  UNL1       -0.2460
     24 C          46.7002   10.6698  -29.9616 C.2     1  UNL1        0.2392
     25 O          47.2016    9.5234  -29.8153 O.2     1  UNL1       -0.2737
     26 H          46.0557   10.4689  -32.0390 H       1  UNL1        0.1583
@<TRIPOS>BOND
     1    10    11    1
     2    11     9    1
     3     9     8    1
     4     8     7    1
     5     7     1    1
     6     1     2   ar
     7     2     3   ar
     8     3     4   ar
     9     4    18    1
    10    18    19    1
    11    19    20    1
    12    20    21    1
    13    21    22    2
    14    21    23   am
    15    23    24   am
    16    24    25    2
    17     4     5   ar
    18     5     6   ar
    19    11    12    1
    20    12    13   ar
    21    13    14   ar
    22    14    15   ar
    23    15    16   ar
    24    16    17   ar
    25     6     1   ar
    26    17    12   ar
    27    24    19    1
    28    23    26    1
@<TRIPOS>MOLECULE
*****
 26 28 0 0 0
SMALL
GASTEIGER

@<TRIPOS>ATOM
      1 C          46.1198   12.6379  -25.7963 C.ar    1  UNL1        0.1386
      2 C          45.1920   12.7564  -24.7547 C.ar    1  UNL1        0.0366
      3 C          45.5307   12.3801  -23.4527 C.ar    1  UNL1       -0.0011
      4 C          46.8058   11.8660  -23.1740 C.ar    1  UNL1       -0.0206
      5 C          47.7254   11.7082  -24.2213 C.ar    1  UNL1       -0.0011
      6 C          47.3863   12.0850  -25.5238 C.ar    1  UNL1        0.0366
      7 O          45.7410   13.0969  -27.0691 O.3     1  UNL1       -0.4736
      8 C          46.4366   14.0617  -27.8618 C.3     1  UNL1        0.2267
      9 C          46.0937   15.4986  -27.4445 C.3     1  UNL1        0.1396
     10 C          47.9850   17.1683  -27.5251 C.3     1  UNL1        0.1137
     11 N          47.2248   16.1625  -26.7719 N.pl3   1  UNL1       -0.2879
     12 C          47.6423   15.8561  -25.4152 C.ar    1  UNL1        0.1318
     13 C          46.7966   16.0403  -24.2998 C.ar    1  UNL1        0.0343
     14 C          47.2429   15.6794  -23.0267 C.ar    1  UNL1        0.0045
     15 C          48.5191   15.1462  -22.8591 C.ar    1  UNL1        0.0208
     16 C          49.3387   14.9837  -23.9740 C.ar    1  UNL1        0.1003
     17 N          48.8877   15.3364  -25.2064 N.ar    1  UNL1       -0.2292
     18 C          47.1767   11.4552  -21.7721 C.3     1  UNL1        0.0468
     19 C          48.7000   11.3480  -21.5994 C.3     1  UNL1        0.1369
     20 S          49.2196    9.5847  -21.4443 S.3     1  UNL1       -0.0482
     21 C          49.8185    9.8964  -19.7921 C.2     1  UNL1        0.2792
     22 O          50.2787    8.9848  -19.0568 O.2     1  UNL1       -0.2625
     23 N          49.7344   11.2365  -19.3558 N.am    1  UNL1       -0.2460
     24 C          49.1411   12.0497  -20.3495 C.2     1  UNL1        0.2392
     25 O          49.0070   13.2918  -20.1881 O.2     1  UNL1       -0.2737
     26 H          50.0661   11.5803  -18.4271 H       1  UNL1        0.1583
@<TRIPOS>BOND
     1    10    11    1
     2    11     9    1
     3     9     8    1
     4     8     7    1
     5     7     1    1
     6     1     2   ar
     7     2     3   ar
     8     3     4   ar
     9     4    18    1
    10    18    19    1
    11    19    20    1
    12    20    21    1
    13    21    22    2
    14    21    23   am
    15    23    24   am
    16    24    25    2
    17     4     5   ar
    18     5     6   ar
    19    11    12    1
    20    12    13   ar
    21    13    14   ar
    22    14    15   ar
    23    15    16   ar
    24    16    17   ar
    25     6     1   ar
    26    17    12   ar
    27    24    19    1
    28    23    26    1
@<TRIPOS>MOLECULE
*****
 26 28 0 0 0
SMALL
GASTEIGER

@<TRIPOS>ATOM
      1 C          47.1734   12.1793  -22.6573 C.ar    1  UNL1        0.1386
      2 C          48.1969   13.1345  -22.6629 C.ar    1  UNL1        0.0366
      3 C          48.8211   13.5168  -21.4731 C.ar    1  UNL1       -0.0011
      4 C          48.4207   12.9546  -20.2518 C.ar    1  UNL1       -0.0206
      5 C          47.3690   12.0266  -20.2363 C.ar    1  UNL1       -0.0011
      6 C          46.7449   11.6441  -21.4269 C.ar    1  UNL1        0.0366
      7 O          46.6331   11.7879  -23.8938 O.3     1  UNL1       -0.4736
      8 C          45.5514   12.4196  -24.5822 C.3     1  UNL1        0.2267
      9 C          45.3670   11.8549  -25.9976 C.3     1  UNL1        0.1396
     10 C          47.0095   13.6968  -26.5279 C.3     1  UNL1        0.1137
     11 N          46.2174   12.5467  -26.9828 N.pl3   1  UNL1       -0.2879
     12 C          46.2931   12.1679  -28.3826 C.ar    1  UNL1        0.1318
     13 C          46.6854   10.8776  -28.8007 C.ar    1  UNL1        0.0343
     14 C          46.6897   10.5632  -30.1613 C.ar    1  UNL1        0.0045
     15 C          46.3145   11.5214  -31.1007 C.ar    1  UNL1        0.0208
     16 C          45.9414   12.7906  -30.6639 C.ar    1  UNL1        0.1003
     17 N          45.9390   13.0790  -29.3360 N.ar    1  UNL1       -0.2292
     18 C          49.0879   13.3648  -18.9641 C.3     1  UNL1        0.0468
     19 C          49.9551   12.2325  -18.3918 C.3     1  UNL1        0.1369
     20 S          49.9069   12.2381  -16.5476 S.3     1  UNL1       -0.0482
     21 C          51.6581   12.5788  -16.4932 C.2     1  UNL1        0.2792
     22 O          52.2745   12.7786  -15.4146 O.2     1  UNL1       -0.2625
     23 N          52.3105   12.6194  -17.7446 N.am    1  UNL1       -0.2460
     24 C          51.3886   12.4084  -18.7963 C.2     1  UNL1        0.2392
     25 O          51.7626   12.3607  -19.9983 O.2     1  UNL1       -0.2737
     26 H          53.3338   12.7818  -17.8755 H       1  UNL1        0.1583
@<TRIPOS>BOND
     1    10    11    1
     2    11     9    1
     3     9     8    1
     4     8     7    1
     5     7     1    1
     6     1     2   ar
     7     2     3   ar
     8     3     4   ar
     9     4    18    1
    10    18    19    1
    11    19    20    1
    12    20    21    1
    13    21    22    2
    14    21    23   am
    15    23    24   am
    16    24    25    2
    17     4     5   ar
    18     5     6   ar
    19    11    12    1
    20    12    13   ar
    21    13    14   ar
    22    14    15   ar
    23    15    16   ar
    24    16    17   ar
    25     6     1   ar
    26    17    12   ar
    27    24    19    1
    28    23    26    1
@<TRIPOS>MOLECULE
*****
 26 28 0 0 0
SMALL
GASTEIGER

@<TRIPOS>ATOM
      1 C          46.6479   11.9679  -23.7364 C.ar    1  UNL1        0.1386
      2 C          47.8005   11.1753  -23.6805 C.ar    1  UNL1        0.0366
      3 C          48.3241   10.7649  -22.4522 C.ar    1  UNL1       -0.0011
      4 C          47.7055   11.1529  -21.2544 C.ar    1  UNL1       -0.0206
      5 C          46.5735   11.9797  -21.3039 C.ar    1  UNL1       -0.0011
      6 C          46.0498   12.3900  -22.5330 C.ar    1  UNL1        0.0366
      7 O          46.1328   12.2903  -25.0032 O.3     1  UNL1       -0.4736
      8 C          45.7511   13.5916  -25.4549 C.3     1  UNL1        0.2267
      9 C          46.7576   14.1650  -26.4622 C.3     1  UNL1        0.1396
     10 C          45.5807   15.4192  -28.3097 C.3     1  UNL1        0.1137
     11 N          46.2162   14.1841  -27.8330 N.pl3   1  UNL1       -0.2879
     12 C          46.2548   13.0395  -28.7259 C.ar    1  UNL1        0.1318
     13 C          45.9051   13.1283  -30.0909 C.ar    1  UNL1        0.0343
     14 C          46.0113   11.9998  -30.9067 C.ar    1  UNL1        0.0045
     15 C          46.4544   10.7915  -30.3730 C.ar    1  UNL1        0.0208
     16 C          46.7836   10.7267  -29.0208 C.ar    1  UNL1        0.1003
     17 N          46.6783   11.8350  -28.2417 N.ar    1  UNL1       -0.2292
     18 C          48.2669   10.7161  -19.9256 C.3     1  UNL1        0.0468
     19 C          48.7627   11.9143  -19.1007 C.3     1  UNL1        0.1369
     20 S          50.3867   12.5188  -19.7338 S.3     1  UNL1       -0.0482
     21 C          51.1588   12.1010  -18.1797 C.2     1  UNL1        0.2792
     22 O          52.3954   12.2272  -17.9840 O.2     1  UNL1       -0.2625
     23 N          50.2913   11.6084  -17.1808 N.am    1  UNL1       -0.2460
     24 C          48.9661   11.5216  -17.6676 C.2     1  UNL1        0.2392
     25 O          48.0177   11.1467  -16.9282 O.2     1  UNL1       -0.2737
     26 H          50.5874   11.3453  -16.2145 H       1  UNL1        0.1583
@<TRIPOS>BOND
     1    10    11    1
     2    11     9    1
     3     9     8    1
     4     8     7    1
     5     7     1    1
     6     1     2   ar
     7     2     3   ar
     8     3     4   ar
     9     4    18    1
    10    18    19    1
    11    19    20    1
    12    20    21    1
    13    21    22    2
    14    21    23   am
    15    23    24   am
    16    24    25    2
    17     4     5   ar
    18     5     6   ar
    19    11    12    1
    20    12    13   ar
    21    13    14   ar
    22    14    15   ar
    23    15    16   ar
    24    16    17   ar
    25     6     1   ar
    26    17    12   ar
    27    24    19    1
    28    23    26    1
@<TRIPOS>MOLECULE
*****
 26 28 0 0 0
SMALL
GASTEIGER

@<TRIPOS>ATOM
      1 C          46.7494   14.2266  -25.2891 C.ar    1  UNL1        0.1386
      2 C          46.8522   14.7249  -23.9849 C.ar    1  UNL1        0.0366
      3 C          47.0882   13.8645  -22.9099 C.ar    1  UNL1       -0.0011
      4 C          47.2143   12.4838  -23.1236 C.ar    1  UNL1       -0.0206
      5 C          47.0728   11.9753  -24.4231 C.ar    1  UNL1       -0.0011
      6 C          46.8368   12.8364  -25.4984 C.ar    1  UNL1        0.0366
      7 O          46.5796   15.1504  -26.3340 O.3     1  UNL1       -0.4736
      8 C          47.0008   16.5163  -26.3322 C.3     1  UNL1        0.2267
      9 C          48.2367   16.7345  -27.2160 C.3     1  UNL1        0.1396
     10 C          50.2316   18.1346  -26.5592 C.3     1  UNL1        0.1137
     11 N          49.4657   16.8896  -26.4173 N.pl3   1  UNL1       -0.2879
     12 C          49.9719   15.8672  -25.5188 C.ar    1  UNL1        0.1318
     13 C          50.2592   16.1237  -24.1604 C.ar    1  UNL1        0.0343
     14 C          50.6970   15.0834  -23.3380 C.ar    1  UNL1        0.0045
     15 C          50.8552   13.8008  -23.8586 C.ar    1  UNL1        0.0208
     16 C          50.5752   13.5752  -25.2046 C.ar    1  UNL1        0.1003
     17 N          50.1463   14.5976  -25.9903 N.ar    1  UNL1       -0.2292
     18 C          47.4661   11.5495  -21.9679 C.3     1  UNL1        0.0468
     19 C          48.9628   11.2395  -21.8082 C.3     1  UNL1        0.1369
     20 S          49.2270    9.4480  -21.4554 S.3     1  UNL1       -0.0482
     21 C          49.9187    9.8542  -19.8610 C.2     1  UNL1        0.2792
     22 O          50.2664    8.9744  -19.0311 O.2     1  UNL1       -0.2625
     23 N          50.0435   11.2329  -19.5837 N.am    1  UNL1       -0.2460
     24 C          49.5415   12.0061  -20.6564 C.2     1  UNL1        0.2392
     25 O          49.5936   13.2646  -20.6399 O.2     1  UNL1       -0.2737
     26 H          50.4517   11.6275  -18.7072 H       1  UNL1        0.1583
@<TRIPOS>BOND
     1    10    11    1
     2    11     9    1
     3     9     8    1
     4     8     7    1
     5     7     1    1
     6     1     2   ar
     7     2     3   ar
     8     3     4   ar
     9     4    18    1
    10    18    19    1
    11    19    20    1
    12    20    21    1
    13    21    22    2
    14    21    23   am
    15    23    24   am
    16    24    25    2
    17     4     5   ar
    18     5     6   ar
    19    11    12    1
    20    12    13   ar
    21    13    14   ar
    22    14    15   ar
    23    15    16   ar
    24    16    17   ar
    25     6     1   ar
    26    17    12   ar
    27    24    19    1
    28    23    26    1
@<TRIPOS>MOLECULE
*****
 26 28 0 0 0
SMALL
GASTEIGER

@<TRIPOS>ATOM
      1 C          48.4599   14.6639  -24.8479 C.ar    1  UNL1        0.1386
      2 C          49.6394   13.9619  -24.5722 C.ar    1  UNL1        0.0366
      3 C          50.1482   13.9063  -23.2724 C.ar    1  UNL1       -0.0011
      4 C          49.4871   14.5653  -22.2253 C.ar    1  UNL1       -0.0206
      5 C          48.3268   15.3028  -22.5034 C.ar    1  UNL1       -0.0011
      6 C          47.8179   15.3580  -23.8039 C.ar    1  UNL1        0.0366
      7 O          47.9639   14.6249  -26.1619 O.3     1  UNL1       -0.4736
      8 C          46.6680   14.1753  -26.5637 C.3     1  UNL1        0.2267
      9 C          46.4674   12.6805  -26.2777 C.3     1  UNL1        0.1396
     10 C          44.4474   12.7603  -24.7662 C.3     1  UNL1        0.1137
     11 N          45.8706   12.4481  -24.9502 N.pl3   1  UNL1       -0.2879
     12 C          46.6208   11.9522  -23.8099 C.ar    1  UNL1        0.1318
     13 C          46.2525   12.2355  -22.4766 C.ar    1  UNL1        0.0343
     14 C          46.9889   11.6866  -21.4245 C.ar    1  UNL1        0.0045
     15 C          48.0850   10.8689  -21.6912 C.ar    1  UNL1        0.0208
     16 C          48.4346   10.6127  -23.0152 C.ar    1  UNL1        0.1003
     17 N          47.7052   11.1515  -24.0273 N.ar    1  UNL1       -0.2292
     18 C          50.0322   14.5119  -20.8211 C.3     1  UNL1        0.0468
     19 C          50.8856   13.2542  -20.5941 C.3     1  UNL1        0.1369
     20 S          50.3195   12.3398  -19.0951 S.3     1  UNL1       -0.0482
     21 C          51.8979   12.6264  -18.3125 C.2     1  UNL1        0.2792
     22 O          52.1412   12.2688  -17.1308 O.2     1  UNL1       -0.2625
     23 N          52.8591   13.2919  -19.1040 N.am    1  UNL1       -0.2460
     24 C          52.3218   13.6232  -20.3699 C.2     1  UNL1        0.2392
     25 O          53.0217   14.1845  -21.2541 O.2     1  UNL1       -0.2737
     26 H          53.8335   13.5085  -18.7973 H       1  UNL1        0.1583
@<TRIPOS>BOND
     1    10    11    1
     2    11     9    1
     3     9     8    1
     4     8     7    1
     5     7     1    1
     6     1     2   ar
     7     2     3   ar
     8     3     4   ar
     9     4    18    1
    10    18    19    1
    11    19    20    1
    12    20    21    1
    13    21    22    2
    14    21    23   am
    15    23    24   am
    16    24    25    2
    17     4     5   ar
    18     5     6   ar
    19    11    12    1
    20    12    13   ar
    21    13    14   ar
    22    14    15   ar
    23    15    16   ar
    24    16    17   ar
    25     6     1   ar
    26    17    12   ar
    27    24    19    1
    28    23    26    1
@<TRIPOS>MOLECULE
*****
 26 28 0 0 0
SMALL
GASTEIGER

@<TRIPOS>ATOM
      1 C          46.2721   13.1449  -25.8274 C.ar    1  UNL1        0.1386
      2 C          45.3117   13.0295  -24.8154 C.ar    1  UNL1        0.0366
      3 C          45.6133   12.3764  -23.6179 C.ar    1  UNL1       -0.0011
      4 C          46.8838   11.8160  -23.4184 C.ar    1  UNL1       -0.0206
      5 C          47.8366   11.8944  -24.4448 C.ar    1  UNL1       -0.0011
      6 C          47.5345   12.5480  -25.6427 C.ar    1  UNL1        0.0366
      7 O          45.9287   13.8722  -26.9794 O.3     1  UNL1       -0.4736
      8 C          46.5467   15.0783  -27.4338 C.3     1  UNL1        0.2267
      9 C          46.1411   16.2861  -26.5777 C.3     1  UNL1        0.1396
     10 C          46.8674   16.4636  -24.1668 C.3     1  UNL1        0.1137
     11 N          47.1788   16.6367  -25.5915 N.pl3   1  UNL1       -0.2879
     12 C          48.4812   17.1679  -25.9530 C.ar    1  UNL1        0.1318
     13 C          48.6363   18.3349  -26.7324 C.ar    1  UNL1        0.0343
     14 C          49.9175   18.8202  -27.0032 C.ar    1  UNL1        0.0045
     15 C          51.0362   18.1511  -26.5112 C.ar    1  UNL1        0.0208
     16 C          50.8574   16.9958  -25.7533 C.ar    1  UNL1        0.1003
     17 N          49.6037   16.5391  -25.4957 N.ar    1  UNL1       -0.2292
     18 C          47.2149   11.1074  -22.1301 C.3     1  UNL1        0.0468
     19 C          48.7262   11.1195  -21.8513 C.3     1  UNL1        0.1369
     20 S          49.3497    9.4106  -21.5439 S.3     1  UNL1       -0.0482
     21 C          49.8095    9.8672  -19.8809 C.2     1  UNL1        0.2792
     22 O          50.2767    9.0385  -19.0572 O.2     1  UNL1       -0.2625
     23 N          49.6063   11.2227  -19.5423 N.am    1  UNL1       -0.2460
     24 C          49.0312   11.9277  -20.6253 C.2     1  UNL1        0.2392
     25 O          48.8039   13.1649  -20.5573 O.2     1  UNL1       -0.2737
     26 H          49.8486   11.6468  -18.6193 H       1  UNL1        0.1583
@<TRIPOS>BOND
     1    10    11    1
     2    11     9    1
     3     9     8    1
     4     8     7    1
     5     7     1    1
     6     1     2   ar
     7     2     3   ar
     8     3     4   ar
     9     4    18    1
    10    18    19    1
    11    19    20    1
    12    20    21    1
    13    21    22    2
    14    21    23   am
    15    23    24   am
    16    24    25    2
    17     4     5   ar
    18     5     6   ar
    19    11    12    1
    20    12    13   ar
    21    13    14   ar
    22    14    15   ar
    23    15    16   ar
    24    16    17   ar
    25     6     1   ar
    26    17    12   ar
    27    24    19    1
    28    23    26    1
