@<TRIPOS>MOLECULE
*****
 38 42 0 0 0
SMALL
GASTEIGER

@<TRIPOS>ATOM
      1 N         -21.8144   -9.4626  -11.9181 N.3     1  UNL1       -0.2679
      2 C         -22.4685   -8.6137  -14.2109 C.3     1  UNL1        0.0207
      3 C         -23.9180   -8.0176  -14.1782 C.3     1  UNL1        0.0064
      4 C         -24.3676   -7.5627  -12.7883 C.3     1  UNL1        0.0277
      5 C         -23.3345   -6.6310  -12.2355 C.ar    1  UNL1       -0.0073
      6 C         -23.6727   -5.4013  -11.6583 C.ar    1  UNL1       -0.0015
      7 C         -22.6632   -4.5491  -11.2072 C.ar    1  UNL1        0.0203
      8 C         -21.3280   -4.9370  -11.3418 C.ar    1  UNL1        0.0985
      9 N         -21.0199   -6.1411  -11.8934 N.ar    1  UNL1       -0.2471
     10 C         -21.9852   -6.9963  -12.3326 C.ar    1  UNL1        0.0695
     11 C         -21.6113   -8.3546  -12.9036 C.3     1  UNL1        0.0978
     12 C         -20.9828   -9.3645  -16.2009 C.3     1  UNL1        0.0001
     13 C         -21.7319   -8.2013  -15.5267 C.3     1  UNL1        0.0017
     14 C         -22.6781   -7.5242  -16.5311 C.3     1  UNL1        0.0001
     15 C         -21.2847   -9.2071  -10.5470 C.3     1  UNL1        0.0725
     16 C         -19.7609   -9.3801  -10.5444 C.3     1  UNL1        0.0188
     17 C         -19.2174   -9.6324   -9.1304 C.3     1  UNL1        0.0185
     18 C         -19.6548   -8.5433   -8.1421 C.3     1  UNL1        0.0686
     19 N         -18.5865   -8.2772   -7.1589 N.3     1  UNL1       -0.2984
     20 H         -17.7752   -8.8911   -7.4082 H       1  UNL1        0.1232
     21 C         -18.9781   -8.5617   -5.7622 C.3     1  UNL1        0.0590
     22 C         -18.2478   -9.8253   -5.2552 C.3     1  UNL1        0.0478
     23 C         -16.7888   -9.5230   -4.8468 C.3     1  UNL1        0.1435
     24 O         -16.3564   -8.2723   -5.3469 O.3     1  UNL1       -0.3537
     25 C         -17.0735   -7.2225   -4.7194 C.3     1  UNL1        0.1435
     26 C         -18.6073   -7.3942   -4.8271 C.3     1  UNL1        0.0478
     27 C         -21.3095  -10.7660  -12.4276 C.3     1  UNL1        0.0886
     28 C         -22.3913  -11.4650  -13.2793 C.3     1  UNL1        0.0748
     29 C         -21.8761  -12.8090  -13.8221 C.3     1  UNL1        0.0432
     30 C         -22.9742  -13.5683  -14.5168 C.ar    1  UNL1       -0.0234
     31 C         -22.6466  -14.6128  -15.3951 C.ar    1  UNL1       -0.0045
     32 C         -23.6552  -15.3438  -16.0276 C.ar    1  UNL1       -0.0003
     33 C         -24.9965  -15.0432  -15.7825 C.ar    1  UNL1       -0.0003
     34 C         -25.3341  -14.0169  -14.8966 C.ar    1  UNL1       -0.0032
     35 C         -24.3300  -13.2863  -14.2425 C.ar    1  UNL1       -0.0103
     36 C         -24.7134  -12.1319  -13.3466 C.3     1  UNL1        0.0953
     37 N         -23.6020  -11.7089  -12.4799 N.3     1  UNL1       -0.2934
     38 H         -23.8946  -10.8105  -12.0281 H       1  UNL1        0.1236
@<TRIPOS>BOND
     1    12    13    1
     2    13    14    1
     3    13     2    1
     4     2     3    1
     5     3     4    1
     6     4     5    1
     7     5     6   ar
     8     6     7   ar
     9     7     8   ar
    10     8     9   ar
    11     9    10   ar
    12    10    11    1
    13    11     1    1
    14     1    15    1
    15    15    16    1
    16    16    17    1
    17    17    18    1
    18    18    19    1
    19    19    21    1
    20    21    22    1
    21    22    23    1
    22    23    24    1
    23    24    25    1
    24    25    26    1
    25     1    27    1
    26    27    28    1
    27    28    29    1
    28    29    30    1
    29    30    31   ar
    30    31    32   ar
    31    32    33   ar
    32    33    34   ar
    33    34    35   ar
    34    35    36    1
    35    36    37    1
    36    11     2    1
    37    26    21    1
    38    37    28    1
    39    10     5   ar
    40    35    30   ar
    41    19    20    1
    42    37    38    1
@<TRIPOS>MOLECULE
*****
 38 42 0 0 0
SMALL
GASTEIGER

@<TRIPOS>ATOM
      1 N         -23.2699  -10.7267  -12.2301 N.3     1  UNL1       -0.2679
      2 C         -22.4969  -10.3370  -14.6085 C.3     1  UNL1        0.0207
      3 C         -21.6467  -11.5543  -15.1114 C.3     1  UNL1        0.0064
      4 C         -21.9327  -12.8584  -14.3641 C.3     1  UNL1        0.0277
      5 C         -23.4072  -13.1139  -14.4007 C.ar    1  UNL1       -0.0073
      6 C         -23.9389  -14.3601  -14.7530 C.ar    1  UNL1       -0.0015
      7 C         -25.3233  -14.5259  -14.8218 C.ar    1  UNL1        0.0203
      8 C         -26.1581  -13.4420  -14.5397 C.ar    1  UNL1        0.0985
      9 N         -25.6230  -12.2429  -14.1866 N.ar    1  UNL1       -0.2471
     10 C         -24.2762  -12.0561  -14.1019 C.ar    1  UNL1        0.0695
     11 C         -23.7090  -10.7164  -13.6609 C.3     1  UNL1        0.0978
     12 C         -21.9438   -8.2447  -16.0394 C.3     1  UNL1        0.0001
     13 C         -22.9095   -9.4200  -15.8054 C.3     1  UNL1        0.0017
     14 C         -23.1021  -10.2177  -17.1052 C.3     1  UNL1        0.0001
     15 C         -24.3601  -10.8919  -11.2253 C.3     1  UNL1        0.0725
     16 C         -24.4093   -9.6599  -10.3133 C.3     1  UNL1        0.0188
     17 C         -25.6056   -9.7090   -9.3516 C.3     1  UNL1        0.0185
     18 C         -26.6851   -8.6833   -9.7217 C.3     1  UNL1        0.0686
     19 N         -26.1043   -7.5858  -10.5198 N.3     1  UNL1       -0.2984
     20 H         -25.7425   -6.8699   -9.8462 H       1  UNL1        0.1232
     21 C         -27.0722   -6.9309  -11.4250 C.3     1  UNL1        0.0590
     22 C         -26.3880   -5.7688  -12.1791 C.3     1  UNL1        0.0478
     23 C         -25.5329   -6.2737  -13.3625 C.3     1  UNL1        0.1435
     24 O         -25.2920   -7.6650  -13.2749 O.3     1  UNL1       -0.3537
     25 C         -26.5039   -8.3809  -13.4456 C.3     1  UNL1        0.1435
     26 C         -27.6163   -7.9199  -12.4742 C.3     1  UNL1        0.0478
     27 C         -22.4358   -9.5422  -11.8909 C.3     1  UNL1        0.0886
     28 C         -21.3213   -9.9371  -10.8978 C.3     1  UNL1        0.0748
     29 C         -20.6091  -11.2210  -11.3574 C.3     1  UNL1        0.0432
     30 C         -19.4209  -11.5223  -10.4843 C.ar    1  UNL1       -0.0234
     31 C         -18.8702  -12.8133  -10.4841 C.ar    1  UNL1       -0.0045
     32 C         -17.7515  -13.1018   -9.6987 C.ar    1  UNL1       -0.0003
     33 C         -17.1702  -12.1034   -8.9147 C.ar    1  UNL1       -0.0003
     34 C         -17.6997  -10.8104   -8.9207 C.ar    1  UNL1       -0.0032
     35 C         -18.8132  -10.5042   -9.7181 C.ar    1  UNL1       -0.0103
     36 C         -19.4167   -9.1207   -9.6538 C.3     1  UNL1        0.0953
     37 N         -20.3270   -8.8592  -10.7800 N.3     1  UNL1       -0.2934
     38 H         -20.8248   -7.9630  -10.5660 H       1  UNL1        0.1236
@<TRIPOS>BOND
     1    12    13    1
     2    13    14    1
     3    13     2    1
     4     2     3    1
     5     3     4    1
     6     4     5    1
     7     5     6   ar
     8     6     7   ar
     9     7     8   ar
    10     8     9   ar
    11     9    10   ar
    12    10    11    1
    13    11     1    1
    14     1    15    1
    15    15    16    1
    16    16    17    1
    17    17    18    1
    18    18    19    1
    19    19    21    1
    20    21    22    1
    21    22    23    1
    22    23    24    1
    23    24    25    1
    24    25    26    1
    25     1    27    1
    26    27    28    1
    27    28    29    1
    28    29    30    1
    29    30    31   ar
    30    31    32   ar
    31    32    33   ar
    32    33    34   ar
    33    34    35   ar
    34    35    36    1
    35    36    37    1
    36    11     2    1
    37    26    21    1
    38    37    28    1
    39    10     5   ar
    40    35    30   ar
    41    19    20    1
    42    37    38    1
@<TRIPOS>MOLECULE
*****
 38 42 0 0 0
SMALL
GASTEIGER

@<TRIPOS>ATOM
      1 N         -22.9091   -9.2581  -13.1381 N.3     1  UNL1       -0.2679
      2 C         -22.6224   -7.0061  -12.0192 C.3     1  UNL1        0.0207
      3 C         -23.9844   -6.2303  -11.9991 C.3     1  UNL1        0.0064
      4 C         -25.2130   -7.1363  -12.1007 C.3     1  UNL1        0.0277
      5 C         -25.1177   -8.1876  -11.0393 C.ar    1  UNL1       -0.0073
      6 C         -26.1926   -8.4953  -10.1967 C.ar    1  UNL1       -0.0015
      7 C         -26.0297   -9.4478   -9.1892 C.ar    1  UNL1        0.0203
      8 C         -24.7927  -10.0785   -9.0359 C.ar    1  UNL1        0.0985
      9 N         -23.7644   -9.7756   -9.8725 N.ar    1  UNL1       -0.2471
     10 C         -23.8987   -8.8576  -10.8701 C.ar    1  UNL1        0.0695
     11 C         -22.7445   -8.5730  -11.8176 C.3     1  UNL1        0.0978
     12 C         -21.4560   -4.8164  -11.2600 C.3     1  UNL1        0.0001
     13 C         -21.5912   -6.3357  -11.0542 C.3     1  UNL1        0.0017
     14 C         -21.8913   -6.6486   -9.5795 C.3     1  UNL1        0.0001
     15 C         -22.6287  -10.7234  -13.1404 C.3     1  UNL1        0.0725
     16 C         -23.9388  -11.4975  -12.9502 C.3     1  UNL1        0.0188
     17 C         -25.0990  -10.8551  -13.7247 C.3     1  UNL1        0.0185
     18 C         -25.4453  -11.6381  -14.9980 C.3     1  UNL1        0.0686
     19 N         -25.0227  -13.0466  -14.8706 N.3     1  UNL1       -0.2984
     20 H         -24.2486  -13.0759  -14.1657 H       1  UNL1        0.1232
     21 C         -24.5300  -13.6371  -16.1330 C.3     1  UNL1        0.0590
     22 C         -23.2449  -12.9113  -16.5901 C.3     1  UNL1        0.0478
     23 C         -22.0018  -13.3940  -15.8103 C.3     1  UNL1        0.1435
     24 O         -22.3635  -14.1121  -14.6462 O.3     1  UNL1       -0.3537
     25 C         -22.9939  -15.3312  -15.0022 C.3     1  UNL1        0.1435
     26 C         -24.1929  -15.1308  -15.9593 C.3     1  UNL1        0.0478
     27 C         -22.1367   -8.5870  -14.2183 C.3     1  UNL1        0.0886
     28 C         -22.9640   -8.5420  -15.5213 C.3     1  UNL1        0.0748
     29 C         -23.1488   -7.0924  -16.0019 C.3     1  UNL1        0.0432
     30 C         -23.8135   -7.0506  -17.3514 C.ar    1  UNL1       -0.0234
     31 C         -24.4096   -5.8597  -17.7943 C.ar    1  UNL1       -0.0045
     32 C         -25.0080   -5.7979  -19.0552 C.ar    1  UNL1       -0.0003
     33 C         -25.0090   -6.9204  -19.8854 C.ar    1  UNL1       -0.0003
     34 C         -24.4032   -8.1060  -19.4617 C.ar    1  UNL1       -0.0032
     35 C         -23.7844   -8.1756  -18.2039 C.ar    1  UNL1       -0.0103
     36 C         -23.2011   -9.4872  -17.7331 C.3     1  UNL1        0.0953
     37 N         -22.2992   -9.3128  -16.5835 N.3     1  UNL1       -0.2934
     38 H         -22.0825  -10.2708  -16.2199 H       1  UNL1        0.1236
@<TRIPOS>BOND
     1    12    13    1
     2    13    14    1
     3    13     2    1
     4     2     3    1
     5     3     4    1
     6     4     5    1
     7     5     6   ar
     8     6     7   ar
     9     7     8   ar
    10     8     9   ar
    11     9    10   ar
    12    10    11    1
    13    11     1    1
    14     1    15    1
    15    15    16    1
    16    16    17    1
    17    17    18    1
    18    18    19    1
    19    19    21    1
    20    21    22    1
    21    22    23    1
    22    23    24    1
    23    24    25    1
    24    25    26    1
    25     1    27    1
    26    27    28    1
    27    28    29    1
    28    29    30    1
    29    30    31   ar
    30    31    32   ar
    31    32    33   ar
    32    33    34   ar
    33    34    35   ar
    34    35    36    1
    35    36    37    1
    36    11     2    1
    37    26    21    1
    38    37    28    1
    39    10     5   ar
    40    35    30   ar
    41    19    20    1
    42    37    38    1
@<TRIPOS>MOLECULE
*****
 38 42 0 0 0
SMALL
GASTEIGER

@<TRIPOS>ATOM
      1 N         -24.4702   -8.4492  -13.2401 N.3     1  UNL1       -0.2679
      2 C         -23.5958   -9.4294  -11.0767 C.3     1  UNL1        0.0207
      3 C         -22.0348   -9.5622  -11.1303 C.3     1  UNL1        0.0064
      4 C         -21.3680   -8.6135  -12.1285 C.3     1  UNL1        0.0277
      5 C         -21.8317   -7.2193  -11.8421 C.ar    1  UNL1       -0.0073
      6 C         -20.9411   -6.1438  -11.7417 C.ar    1  UNL1       -0.0015
      7 C         -21.4247   -4.8743  -11.4200 C.ar    1  UNL1        0.0203
      8 C         -22.7928   -4.6977  -11.2002 C.ar    1  UNL1        0.0985
      9 N         -23.6438   -5.7520  -11.3150 N.ar    1  UNL1       -0.2471
     10 C         -23.2003   -6.9991  -11.6376 C.ar    1  UNL1        0.0695
     11 C         -24.1815   -8.1485  -11.8026 C.3     1  UNL1        0.0978
     12 C         -23.2552   -8.8709   -8.5660 C.3     1  UNL1        0.0001
     13 C         -24.1145   -9.6031   -9.6122 C.3     1  UNL1        0.0017
     14 C         -25.5896   -9.1954   -9.4691 C.3     1  UNL1        0.0001
     15 C         -24.9640   -7.2978  -14.0502 C.3     1  UNL1        0.0725
     16 C         -26.4122   -6.9785  -13.6596 C.3     1  UNL1        0.0188
     17 C         -26.7058   -5.4731  -13.7380 C.3     1  UNL1        0.0185
     18 C         -27.5561   -5.1149  -14.9640 C.3     1  UNL1        0.0686
     19 N         -28.8992   -4.6648  -14.5488 N.3     1  UNL1       -0.2984
     20 H         -29.1031   -5.1094  -13.6226 H       1  UNL1        0.1232
     21 C         -29.9716   -5.0389  -15.4949 C.3     1  UNL1        0.0590
     22 C         -31.3458   -4.9641  -14.7928 C.3     1  UNL1        0.0478
     23 C         -31.8623   -3.5117  -14.6899 C.3     1  UNL1        0.1435
     24 O         -30.8319   -2.5739  -14.9353 O.3     1  UNL1       -0.3537
     25 C         -30.4119   -2.6543  -16.2872 C.3     1  UNL1        0.1435
     26 C         -30.0073   -4.0875  -16.7066 C.3     1  UNL1        0.0478
     27 C         -25.3820   -9.6144  -13.3972 C.3     1  UNL1        0.0886
     28 C         -24.5704  -10.8962  -13.6845 C.3     1  UNL1        0.0748
     29 C         -25.3908  -11.8845  -14.5312 C.3     1  UNL1        0.0432
     30 C         -24.5534  -13.0629  -14.9496 C.ar    1  UNL1       -0.0234
     31 C         -25.1812  -14.2384  -15.3897 C.ar    1  UNL1       -0.0045
     32 C         -24.4175  -15.3317  -15.8058 C.ar    1  UNL1       -0.0003
     33 C         -23.0233  -15.2571  -15.7932 C.ar    1  UNL1       -0.0003
     34 C         -22.3880  -14.0856  -15.3736 C.ar    1  UNL1       -0.0032
     35 C         -23.1445  -12.9749  -14.9689 C.ar    1  UNL1       -0.0103
     36 C         -22.4398  -11.7444  -14.4476 C.3     1  UNL1        0.0953
     37 N         -23.3285  -10.5725  -14.4037 N.3     1  UNL1       -0.2934
     38 H         -22.8187   -9.8247  -13.8767 H       1  UNL1        0.1236
@<TRIPOS>BOND
     1    12    13    1
     2    13    14    1
     3    13     2    1
     4     2     3    1
     5     3     4    1
     6     4     5    1
     7     5     6   ar
     8     6     7   ar
     9     7     8   ar
    10     8     9   ar
    11     9    10   ar
    12    10    11    1
    13    11     1    1
    14     1    15    1
    15    15    16    1
    16    16    17    1
    17    17    18    1
    18    18    19    1
    19    19    21    1
    20    21    22    1
    21    22    23    1
    22    23    24    1
    23    24    25    1
    24    25    26    1
    25     1    27    1
    26    27    28    1
    27    28    29    1
    28    29    30    1
    29    30    31   ar
    30    31    32   ar
    31    32    33   ar
    32    33    34   ar
    33    34    35   ar
    34    35    36    1
    35    36    37    1
    36    11     2    1
    37    26    21    1
    38    37    28    1
    39    10     5   ar
    40    35    30   ar
    41    19    20    1
    42    37    38    1
@<TRIPOS>MOLECULE
*****
 38 42 0 0 0
SMALL
GASTEIGER

@<TRIPOS>ATOM
      1 N         -21.6896   -9.0553  -12.3230 N.3     1  UNL1       -0.2679
      2 C         -24.0759   -8.2872  -11.9747 C.3     1  UNL1        0.0207
      3 C         -24.4040   -8.2054  -10.4440 C.3     1  UNL1        0.0064
      4 C         -23.1697   -8.0368   -9.5557 C.3     1  UNL1        0.0277
      5 C         -22.3823   -6.8649  -10.0533 C.ar    1  UNL1       -0.0073
      6 C         -21.9106   -5.8653   -9.1941 C.ar    1  UNL1       -0.0015
      7 C         -21.2273   -4.7678   -9.7208 C.ar    1  UNL1        0.0203
      8 C         -21.0268   -4.6832  -11.1006 C.ar    1  UNL1        0.0985
      9 N         -21.4811   -5.6706  -11.9177 N.ar    1  UNL1       -0.2471
     10 C         -22.1420   -6.7573  -11.4296 C.ar    1  UNL1        0.0695
     11 C         -22.5984   -7.8667  -12.3633 C.3     1  UNL1        0.0978
     12 C         -26.4342   -8.3974  -13.0505 C.3     1  UNL1        0.0001
     13 C         -25.1706   -7.5513  -12.8138 C.3     1  UNL1        0.0017
     14 C         -25.5471   -6.1905  -12.2062 C.3     1  UNL1        0.0001
     15 C         -20.3978   -8.8515  -11.6051 C.3     1  UNL1        0.0725
     16 C         -20.2081   -9.9612  -10.5639 C.3     1  UNL1        0.0188
     17 C         -19.0266   -9.6692   -9.6272 C.3     1  UNL1        0.0185
     18 C         -19.4718   -8.9581   -8.3425 C.3     1  UNL1        0.0686
     19 N         -18.4074   -9.0193   -7.3216 N.3     1  UNL1       -0.2984
     20 H         -17.9315   -9.9466   -7.4245 H       1  UNL1        0.1232
     21 C         -18.9048   -8.8988   -5.9348 C.3     1  UNL1        0.0590
     22 C         -18.1540   -9.8884   -5.0160 C.3     1  UNL1        0.0478
     23 C         -16.7556   -9.3625   -4.6228 C.3     1  UNL1        0.1435
     24 O         -16.3498   -8.2911   -5.4528 O.3     1  UNL1       -0.3537
     25 C         -17.1761   -7.1610   -5.2281 C.3     1  UNL1        0.1435
     26 C         -18.6826   -7.4780   -5.3810 C.3     1  UNL1        0.0478
     27 C         -21.4396   -9.6163  -13.6781 C.3     1  UNL1        0.0886
     28 C         -22.0255  -11.0409  -13.7859 C.3     1  UNL1        0.0748
     29 C         -23.5118  -10.9925  -14.1795 C.3     1  UNL1        0.0432
     30 C         -24.0468  -12.3743  -14.4427 C.ar    1  UNL1       -0.0234
     31 C         -25.4331  -12.5931  -14.4412 C.ar    1  UNL1       -0.0045
     32 C         -25.9460  -13.8646  -14.7092 C.ar    1  UNL1       -0.0003
     33 C         -25.0803  -14.9241  -14.9881 C.ar    1  UNL1       -0.0003
     34 C         -23.6993  -14.7137  -15.0093 C.ar    1  UNL1       -0.0032
     35 C         -23.1728  -13.4372  -14.7579 C.ar    1  UNL1       -0.0103
     36 C         -21.6749  -13.2459  -14.7112 C.3     1  UNL1        0.0953
     37 N         -21.2937  -11.8269  -14.7914 N.3     1  UNL1       -0.2934
     38 H         -20.2694  -11.7756  -14.5796 H       1  UNL1        0.1236
@<TRIPOS>BOND
     1    12    13    1
     2    13    14    1
     3    13     2    1
     4     2     3    1
     5     3     4    1
     6     4     5    1
     7     5     6   ar
     8     6     7   ar
     9     7     8   ar
    10     8     9   ar
    11     9    10   ar
    12    10    11    1
    13    11     1    1
    14     1    15    1
    15    15    16    1
    16    16    17    1
    17    17    18    1
    18    18    19    1
    19    19    21    1
    20    21    22    1
    21    22    23    1
    22    23    24    1
    23    24    25    1
    24    25    26    1
    25     1    27    1
    26    27    28    1
    27    28    29    1
    28    29    30    1
    29    30    31   ar
    30    31    32   ar
    31    32    33   ar
    32    33    34   ar
    33    34    35   ar
    34    35    36    1
    35    36    37    1
    36    11     2    1
    37    26    21    1
    38    37    28    1
    39    10     5   ar
    40    35    30   ar
    41    19    20    1
    42    37    38    1
@<TRIPOS>MOLECULE
*****
 38 42 0 0 0
SMALL
GASTEIGER

@<TRIPOS>ATOM
      1 N         -24.4015   -9.4606  -12.4943 N.3     1  UNL1       -0.2679
      2 C         -23.0609   -9.5083  -14.6405 C.3     1  UNL1        0.0207
      3 C         -21.9317  -10.5922  -14.5536 C.3     1  UNL1        0.0064
      4 C         -22.2169  -11.7015  -13.5392 C.3     1  UNL1        0.0277
      5 C         -23.5667  -12.2786  -13.8326 C.ar    1  UNL1       -0.0073
      6 C         -23.7857  -13.6591  -13.9114 C.ar    1  UNL1       -0.0015
      7 C         -25.0544  -14.1394  -14.2408 C.ar    1  UNL1        0.0203
      8 C         -26.0872  -13.2323  -14.4896 C.ar    1  UNL1        0.0985
      9 N         -25.8581  -11.8953  -14.3954 N.ar    1  UNL1       -0.2471
     10 C         -24.6327  -11.3996  -14.0660 C.ar    1  UNL1        0.0695
     11 C         -24.4188   -9.9012  -13.9246 C.3     1  UNL1        0.0978
     12 C         -22.3714   -7.8265  -16.4918 C.3     1  UNL1        0.0001
     13 C         -23.2542   -9.0300  -16.1162 C.3     1  UNL1        0.0017
     14 C         -23.0543  -10.1723  -17.1251 C.3     1  UNL1        0.0001
     15 C         -24.1360  -10.5357  -11.4946 C.3     1  UNL1        0.0725
     16 C         -24.5964  -10.0721  -10.1072 C.3     1  UNL1        0.0188
     17 C         -23.4419  -10.0683   -9.0944 C.3     1  UNL1        0.0185
     18 C         -23.1717   -8.6658   -8.5338 C.3     1  UNL1        0.0686
     19 N         -23.0550   -7.6839   -9.6297 N.3     1  UNL1       -0.2984
     20 H         -23.3553   -8.1646  -10.5105 H       1  UNL1        0.1232
     21 C         -21.6838   -7.1662   -9.8220 C.3     1  UNL1        0.0590
     22 C         -21.0870   -7.7245  -11.1332 C.3     1  UNL1        0.0478
     23 C         -21.6105   -6.9666  -12.3734 C.3     1  UNL1        0.1435
     24 O         -22.7528   -6.1907  -12.0660 O.3     1  UNL1       -0.3537
     25 C         -22.4021   -5.1345  -11.1874 C.3     1  UNL1        0.1435
     26 C         -21.6733   -5.6280   -9.9151 C.3     1  UNL1        0.0478
     27 C         -25.6311   -8.7091  -12.1240 C.3     1  UNL1        0.0886
     28 C         -26.0167   -7.7233  -13.2482 C.3     1  UNL1        0.0748
     29 C         -27.5051   -7.3451  -13.1571 C.3     1  UNL1        0.0432
     30 C         -27.8502   -6.2652  -14.1468 C.ar    1  UNL1       -0.0234
     31 C         -29.1924   -6.0450  -14.4929 C.ar    1  UNL1       -0.0045
     32 C         -29.5310   -5.0294  -15.3904 C.ar    1  UNL1       -0.0003
     33 C         -28.5345   -4.2221  -15.9425 C.ar    1  UNL1       -0.0003
     34 C         -27.1969   -4.4212  -15.5916 C.ar    1  UNL1       -0.0032
     35 C         -26.8459   -5.4275  -14.6784 C.ar    1  UNL1       -0.0103
     36 C         -25.3882   -5.6764  -14.3692 C.3     1  UNL1        0.0953
     37 N         -25.2093   -6.4966  -13.1607 N.3     1  UNL1       -0.2934
     38 H         -24.1968   -6.7614  -13.1209 H       1  UNL1        0.1236
@<TRIPOS>BOND
     1    12    13    1
     2    13    14    1
     3    13     2    1
     4     2     3    1
     5     3     4    1
     6     4     5    1
     7     5     6   ar
     8     6     7   ar
     9     7     8   ar
    10     8     9   ar
    11     9    10   ar
    12    10    11    1
    13    11     1    1
    14     1    15    1
    15    15    16    1
    16    16    17    1
    17    17    18    1
    18    18    19    1
    19    19    21    1
    20    21    22    1
    21    22    23    1
    22    23    24    1
    23    24    25    1
    24    25    26    1
    25     1    27    1
    26    27    28    1
    27    28    29    1
    28    29    30    1
    29    30    31   ar
    30    31    32   ar
    31    32    33   ar
    32    33    34   ar
    33    34    35   ar
    34    35    36    1
    35    36    37    1
    36    11     2    1
    37    26    21    1
    38    37    28    1
    39    10     5   ar
    40    35    30   ar
    41    19    20    1
    42    37    38    1
@<TRIPOS>MOLECULE
*****
 38 42 0 0 0
SMALL
GASTEIGER

@<TRIPOS>ATOM
      1 N         -22.6512   -9.5423  -10.3158 N.3     1  UNL1       -0.2679
      2 C         -20.1289   -9.3731  -10.4380 C.3     1  UNL1        0.0207
      3 C         -19.6954   -8.6307  -11.7489 C.3     1  UNL1        0.0064
      4 C         -20.7784   -7.7192  -12.3295 C.3     1  UNL1        0.0277
      5 C         -21.2454   -6.7900  -11.2527 C.ar    1  UNL1       -0.0073
      6 C         -21.3711   -5.4114  -11.4611 C.ar    1  UNL1       -0.0015
      7 C         -21.7603   -4.5859  -10.4047 C.ar    1  UNL1        0.0203
      8 C         -22.0163   -5.1499   -9.1526 C.ar    1  UNL1        0.0985
      9 N         -21.9012   -6.4929   -8.9732 N.ar    1  UNL1       -0.2471
     10 C         -21.5331   -7.3227   -9.9890 C.ar    1  UNL1        0.0695
     11 C         -21.4567   -8.8250   -9.7692 C.3     1  UNL1        0.0978
     12 C         -19.2784   -9.0210   -8.0123 C.3     1  UNL1        0.0001
     13 C         -18.9297   -9.4769   -9.4403 C.3     1  UNL1        0.0017
     14 C         -18.3193  -10.8873   -9.4148 C.3     1  UNL1        0.0001
     15 C         -23.7768   -9.7382   -9.3565 C.3     1  UNL1        0.0725
     16 C         -24.8092   -8.6192   -9.5404 C.3     1  UNL1        0.0188
     17 C         -26.2434   -9.1669   -9.5813 C.3     1  UNL1        0.0185
     18 C         -27.2268   -8.1618  -10.1954 C.3     1  UNL1        0.0686
     19 N         -26.5817   -7.4083  -11.2885 N.3     1  UNL1       -0.2984
     20 H         -26.9195   -6.4188  -11.2249 H       1  UNL1        0.1232
     21 C         -26.8979   -7.9261  -12.6364 C.3     1  UNL1        0.0590
     22 C         -27.4113   -6.7798  -13.5361 C.3     1  UNL1        0.0478
     23 C         -26.2551   -5.9097  -14.0772 C.3     1  UNL1        0.1435
     24 O         -25.0546   -6.1365  -13.3639 O.3     1  UNL1       -0.3537
     25 C         -24.5859   -7.4527  -13.6052 C.3     1  UNL1        0.1435
     26 C         -25.6523   -8.5340  -13.3099 C.3     1  UNL1        0.0478
     27 C         -22.2861  -10.8384  -10.9486 C.3     1  UNL1        0.0886
     28 C         -22.9463  -10.9618  -12.3390 C.3     1  UNL1        0.0748
     29 C         -21.8916  -11.2479  -13.4217 C.3     1  UNL1        0.0432
     30 C         -22.5419  -11.5281  -14.7496 C.ar    1  UNL1       -0.0234
     31 C         -21.7825  -11.4381  -15.9264 C.ar    1  UNL1       -0.0045
     32 C         -22.3654  -11.7203  -17.1643 C.ar    1  UNL1       -0.0003
     33 C         -23.7067  -12.1014  -17.2359 C.ar    1  UNL1       -0.0003
     34 C         -24.4673  -12.2110  -16.0691 C.ar    1  UNL1       -0.0032
     35 C         -23.8886  -11.9462  -14.8183 C.ar    1  UNL1       -0.0103
     36 C         -24.7464  -11.9971  -13.5757 C.3     1  UNL1        0.0953
     37 N         -23.9397  -12.0469  -12.3460 N.3     1  UNL1       -0.2934
     38 H         -24.5991  -11.9056  -11.5447 H       1  UNL1        0.1236
@<TRIPOS>BOND
     1    12    13    1
     2    13    14    1
     3    13     2    1
     4     2     3    1
     5     3     4    1
     6     4     5    1
     7     5     6   ar
     8     6     7   ar
     9     7     8   ar
    10     8     9   ar
    11     9    10   ar
    12    10    11    1
    13    11     1    1
    14     1    15    1
    15    15    16    1
    16    16    17    1
    17    17    18    1
    18    18    19    1
    19    19    21    1
    20    21    22    1
    21    22    23    1
    22    23    24    1
    23    24    25    1
    24    25    26    1
    25     1    27    1
    26    27    28    1
    27    28    29    1
    28    29    30    1
    29    30    31   ar
    30    31    32   ar
    31    32    33   ar
    32    33    34   ar
    33    34    35   ar
    34    35    36    1
    35    36    37    1
    36    11     2    1
    37    26    21    1
    38    37    28    1
    39    10     5   ar
    40    35    30   ar
    41    19    20    1
    42    37    38    1
@<TRIPOS>MOLECULE
*****
 38 42 0 0 0
SMALL
GASTEIGER

@<TRIPOS>ATOM
      1 N         -24.5169   -8.3476  -13.0984 N.3     1  UNL1       -0.2679
      2 C         -23.7651   -9.2116  -10.8414 C.3     1  UNL1        0.0207
      3 C         -22.2121   -9.4248  -10.8293 C.3     1  UNL1        0.0064
      4 C         -21.4651   -8.5845  -11.8670 C.3     1  UNL1        0.0277
      5 C         -21.8649   -7.1521  -11.6960 C.ar    1  UNL1       -0.0073
      6 C         -20.9236   -6.1174  -11.6394 C.ar    1  UNL1       -0.0015
      7 C         -21.3509   -4.8058  -11.4252 C.ar    1  UNL1        0.0203
      8 C         -22.7144   -4.5464  -11.2678 C.ar    1  UNL1        0.0985
      9 N         -23.6147   -5.5630  -11.3389 N.ar    1  UNL1       -0.2471
     10 C         -23.2263   -6.8504  -11.5569 C.ar    1  UNL1        0.0695
     11 C         -24.2598   -7.9588  -11.6761 C.3     1  UNL1        0.0978
     12 C         -25.1553  -10.5234   -9.0870 C.3     1  UNL1        0.0001
     13 C         -24.3393   -9.2536   -9.3880 C.3     1  UNL1        0.0017
     14 C         -23.2431   -9.0615   -8.3276 C.3     1  UNL1        0.0001
     15 C         -25.0353   -7.2594  -13.9776 C.3     1  UNL1        0.0725
     16 C         -26.4499   -6.8690  -13.5320 C.3     1  UNL1        0.0188
     17 C         -26.8733   -5.5081  -14.1041 C.3     1  UNL1        0.0185
     18 C         -28.3666   -5.4698  -14.4547 C.3     1  UNL1        0.0686
     19 N         -28.5619   -4.9854  -15.8353 N.3     1  UNL1       -0.2984
     20 H         -27.8493   -5.4636  -16.4358 H       1  UNL1        0.1232
     21 C         -28.3951   -3.5241  -15.9829 C.3     1  UNL1        0.0590
     22 C         -27.3421   -3.2194  -17.0717 C.3     1  UNL1        0.0478
     23 C         -27.9281   -3.3558  -18.4946 C.3     1  UNL1        0.1435
     24 O         -29.1597   -4.0517  -18.4862 O.3     1  UNL1       -0.3537
     25 C         -30.1485   -3.2841  -17.8204 C.3     1  UNL1        0.1435
     26 C         -29.7158   -2.8484  -16.4003 C.3     1  UNL1        0.0478
     27 C         -25.3882   -9.5491  -13.2027 C.3     1  UNL1        0.0886
     28 C         -24.5409  -10.8009  -13.5178 C.3     1  UNL1        0.0748
     29 C         -25.3435  -11.8063  -14.3613 C.3     1  UNL1        0.0432
     30 C         -24.4760  -12.9525  -14.8068 C.ar    1  UNL1       -0.0234
     31 C         -25.0732  -14.1431  -15.2491 C.ar    1  UNL1       -0.0045
     32 C         -24.2820  -15.2067  -15.6901 C.ar    1  UNL1       -0.0003
     33 C         -22.8909  -15.0871  -15.7003 C.ar    1  UNL1       -0.0003
     34 C         -22.2865  -13.9001  -15.2787 C.ar    1  UNL1       -0.0032
     35 C         -23.0712  -12.8188  -14.8490 C.ar    1  UNL1       -0.0103
     36 C         -22.3976  -11.5717  -14.3262 C.3     1  UNL1        0.0953
     37 N         -23.3227  -10.4296  -14.2543 N.3     1  UNL1       -0.2934
     38 H         -22.8282   -9.6713  -13.7278 H       1  UNL1        0.1236
@<TRIPOS>BOND
     1    12    13    1
     2    13    14    1
     3    13     2    1
     4     2     3    1
     5     3     4    1
     6     4     5    1
     7     5     6   ar
     8     6     7   ar
     9     7     8   ar
    10     8     9   ar
    11     9    10   ar
    12    10    11    1
    13    11     1    1
    14     1    15    1
    15    15    16    1
    16    16    17    1
    17    17    18    1
    18    18    19    1
    19    19    21    1
    20    21    22    1
    21    22    23    1
    22    23    24    1
    23    24    25    1
    24    25    26    1
    25     1    27    1
    26    27    28    1
    27    28    29    1
    28    29    30    1
    29    30    31   ar
    30    31    32   ar
    31    32    33   ar
    32    33    34   ar
    33    34    35   ar
    34    35    36    1
    35    36    37    1
    36    11     2    1
    37    26    21    1
    38    37    28    1
    39    10     5   ar
    40    35    30   ar
    41    19    20    1
    42    37    38    1
@<TRIPOS>MOLECULE
*****
 38 42 0 0 0
SMALL
GASTEIGER

@<TRIPOS>ATOM
      1 N         -22.0151   -8.5861  -12.8360 N.3     1  UNL1       -0.2679
      2 C         -24.2358   -8.4615  -11.6282 C.3     1  UNL1        0.0207
      3 C         -24.0288   -8.6536  -10.0862 C.3     1  UNL1        0.0064
      4 C         -22.6186   -8.3073   -9.6043 C.3     1  UNL1        0.0277
      5 C         -22.2796   -6.9282  -10.0773 C.ar    1  UNL1       -0.0073
      6 C         -21.7351   -5.9608   -9.2244 C.ar    1  UNL1       -0.0015
      7 C         -21.4883   -4.6744   -9.7073 C.ar    1  UNL1        0.0203
      8 C         -21.7919   -4.3716  -11.0368 C.ar    1  UNL1        0.0985
      9 N         -22.3082   -5.3284  -11.8534 N.ar    1  UNL1       -0.2471
     10 C         -22.5495   -6.5942  -11.4112 C.ar    1  UNL1        0.0695
     11 C         -23.0853   -7.6543  -12.3599 C.3     1  UNL1        0.0978
     12 C         -26.2971   -8.4984  -13.2032 C.3     1  UNL1        0.0001
     13 C         -25.6673   -7.9097  -11.9283 C.3     1  UNL1        0.0017
     14 C         -26.6179   -8.0882  -10.7336 C.3     1  UNL1        0.0001
     15 C         -21.5909   -8.4049  -14.2548 C.3     1  UNL1        0.0725
     16 C         -22.8068   -8.0294  -15.1107 C.3     1  UNL1        0.0188
     17 C         -22.7456   -8.6741  -16.5032 C.3     1  UNL1        0.0185
     18 C         -22.8823  -10.2010  -16.4378 C.3     1  UNL1        0.0686
     19 N         -23.9213  -10.5865  -15.4629 N.3     1  UNL1       -0.2984
     20 H         -23.4341  -10.8182  -14.5651 H       1  UNL1        0.1232
     21 C         -24.7221  -11.7577  -15.8778 C.3     1  UNL1        0.0590
     22 C         -23.7885  -12.9276  -16.2609 C.3     1  UNL1        0.0478
     23 C         -23.2471  -13.6646  -15.0158 C.3     1  UNL1        0.1435
     24 O         -23.4390  -12.9061  -13.8371 O.3     1  UNL1       -0.3537
     25 C         -24.8228  -12.7950  -13.5493 C.3     1  UNL1        0.1435
     26 C         -25.6415  -12.2400  -14.7389 C.3     1  UNL1        0.0478
     27 C         -22.3587  -10.0112  -12.5822 C.3     1  UNL1        0.0886
     28 C         -21.1021  -10.7977  -12.1500 C.3     1  UNL1        0.0748
     29 C         -20.5058  -10.2094  -10.8597 C.3     1  UNL1        0.0432
     30 C         -19.3797  -11.0650  -10.3453 C.ar    1  UNL1       -0.0234
     31 C         -18.4677  -10.5297   -9.4226 C.ar    1  UNL1       -0.0045
     32 C         -17.4323  -11.3192   -8.9163 C.ar    1  UNL1       -0.0003
     33 C         -17.3043  -12.6494   -9.3208 C.ar    1  UNL1       -0.0003
     34 C         -18.2168  -13.1976  -10.2257 C.ar    1  UNL1       -0.0032
     35 C         -19.2709  -12.4194  -10.7286 C.ar    1  UNL1       -0.0103
     36 C         -20.2023  -13.0071  -11.7628 C.3     1  UNL1        0.0953
     37 N         -21.4311  -12.2128  -11.9185 N.3     1  UNL1       -0.2934
     38 H         -21.9287  -12.5856  -12.7612 H       1  UNL1        0.1236
@<TRIPOS>BOND
     1    12    13    1
     2    13    14    1
     3    13     2    1
     4     2     3    1
     5     3     4    1
     6     4     5    1
     7     5     6   ar
     8     6     7   ar
     9     7     8   ar
    10     8     9   ar
    11     9    10   ar
    12    10    11    1
    13    11     1    1
    14     1    15    1
    15    15    16    1
    16    16    17    1
    17    17    18    1
    18    18    19    1
    19    19    21    1
    20    21    22    1
    21    22    23    1
    22    23    24    1
    23    24    25    1
    24    25    26    1
    25     1    27    1
    26    27    28    1
    27    28    29    1
    28    29    30    1
    29    30    31   ar
    30    31    32   ar
    31    32    33   ar
    32    33    34   ar
    33    34    35   ar
    34    35    36    1
    35    36    37    1
    36    11     2    1
    37    26    21    1
    38    37    28    1
    39    10     5   ar
    40    35    30   ar
    41    19    20    1
    42    37    38    1
