@<TRIPOS>MOLECULE
*****
 61 65 0 0 0
SMALL
GASTEIGER

@<TRIPOS>ATOM
      1 C         -20.0809   -7.8081   -8.4317 C.ar    1  UNL1        0.0532
      2 C         -20.7169   -6.6095   -8.7741 C.ar    1  UNL1        0.0075
      3 C         -21.1374   -6.3769  -10.0789 C.ar    1  UNL1        0.0389
      4 C         -20.9282   -7.3402  -11.0778 C.ar    1  UNL1        0.1595
      5 C         -20.3030   -8.5556  -10.7489 C.ar    1  UNL1        0.0977
      6 C         -19.8761   -8.8059   -9.4193 C.ar    1  UNL1        0.0289
      7 N         -18.3470   -7.5885   -6.6086 N.am    1  UNL1       -0.3040
      8 C         -19.6640   -7.9884   -7.0287 C.2     1  UNL1        0.2456
      9 O         -20.4953   -8.4473   -6.2006 O.2     1  UNL1       -0.2702
     10 H         -17.7673   -7.0764   -7.3137 H       1  UNL1        0.1496
     11 C         -17.5950   -9.4045   -5.1039 C.3     1  UNL1        0.0196
     12 C         -17.7572   -7.8832   -5.2882 C.3     1  UNL1        0.0572
     13 C         -16.3949   -7.1766   -5.1448 C.3     1  UNL1        0.0196
     14 C         -18.6995   -7.3551   -4.1879 C.3     1  UNL1        0.0196
     15 C         -19.3173  -10.1656   -9.0432 C.3     1  UNL1        0.1651
     16 O         -18.3664  -10.5713   -9.9886 O.3     1  UNL1       -0.3772
     17 H         -18.8712  -10.9243  -10.7671 H       1  UNL1        0.2109
     18 N         -20.1121   -9.5370  -11.7752 N.pl3   1  UNL1       -0.2122
     19 H         -19.5674   -9.2805  -12.6283 H       1  UNL1        0.1738
     20 S         -21.1742  -10.9017  -11.8695 S.O2    1  UNL1        0.0745
     21 O         -20.6199  -12.0358  -11.0539 O.2     1  UNL1       -0.1499
     22 O         -21.2745  -11.3661  -13.2951 O.2     1  UNL1       -0.1499
     23 C         -22.7636  -10.4323  -11.2516 C.ar    1  UNL1        0.1356
     24 C         -22.8502   -9.9220   -9.9480 C.ar    1  UNL1        0.0207
     25 C         -24.0685   -9.4686   -9.4405 C.ar    1  UNL1       -0.0028
     26 C         -25.2197   -9.4978  -10.2370 C.ar    1  UNL1       -0.0216
     27 C         -25.1468  -10.0287  -11.5323 C.ar    1  UNL1        0.0085
     28 C         -23.9274  -10.4813  -12.0504 C.ar    1  UNL1        0.0762
     29 CL        -23.9073  -11.0564  -13.7140 Cl      1  UNL1       -0.0809
     30 C         -26.5362   -9.0286   -9.6798 C.3     1  UNL1        0.0224
     31 C         -26.6975   -7.5153   -9.6113 C.3     1  UNL1        0.0047
     32 C         -27.4404   -8.3074  -10.6712 C.3     1  UNL1        0.0047
     33 O         -21.3753   -7.1416  -12.3954 O.3     1  UNL1       -0.4513
     34 C         -22.7195   -7.0324  -12.7704 C.ar    1  UNL1        0.1580
     35 C         -23.5895   -6.3054  -11.9517 C.ar    1  UNL1        0.0677
     36 C         -24.9239   -6.1197  -12.3231 C.ar    1  UNL1        0.1398
     37 F         -25.7271   -5.3509  -11.5448 F       1  UNL1       -0.2044
     38 C         -25.4122   -6.6918  -13.5109 C.ar    1  UNL1        0.0175
     39 C         -24.5485   -7.4594  -14.3090 C.ar    1  UNL1        0.0130
     40 C         -23.2114   -7.6389  -13.9416 C.ar    1  UNL1        0.0919
     41 CL        -22.1817   -8.6348  -14.9598 Cl      1  UNL1       -0.0791
     42 C         -26.7935   -6.3639  -14.0104 C.3     1  UNL1        0.1382
     43 C         -26.7370   -5.0581  -14.7337 C.2     1  UNL1        0.3234
     44 O         -25.9937   -4.1317  -14.3098 O.2     1  UNL1       -0.2497
     45 O         -27.4428   -4.9189  -15.9332 O.3     1  UNL1       -0.4215
     46 C         -28.2451   -3.7826  -16.2507 C.3     1  UNL1        0.3207
     47 O         -29.5690   -4.0576  -15.8291 O.3     1  UNL1       -0.3070
     48 C         -30.4074   -2.9345  -16.0395 C.3     1  UNL1        0.2456
     49 C         -30.5560   -2.6507  -17.5476 C.3     1  UNL1        0.1781
     50 O         -31.3629   -1.5156  -17.7360 O.3     1  UNL1       -0.3790
     51 C         -29.1694   -2.4108  -18.1660 C.3     1  UNL1        0.1733
     52 O         -29.2930   -2.3441  -19.5639 O.3     1  UNL1       -0.3793
     53 C         -28.2076   -3.5488  -17.7777 C.3     1  UNL1        0.2106
     54 O         -26.9006   -3.2157  -18.1706 O.3     1  UNL1       -0.3766
     55 H         -31.7072   -1.5583  -18.6662 H       1  UNL1        0.2106
     56 H         -28.5095   -1.8357  -19.9004 H       1  UNL1        0.2105
     57 H         -26.7967   -3.5060  -19.1139 H       1  UNL1        0.2107
     58 C         -31.7550   -3.2186  -15.4351 C.2     1  UNL1        0.3439
     59 O         -32.7601   -2.5470  -15.7901 O.2     1  UNL1       -0.2475
     60 O         -31.8992   -4.1876  -14.4458 O.3     1  UNL1       -0.4785
     61 H         -31.1072   -4.7274  -14.1176 H       1  UNL1        0.2951
@<TRIPOS>BOND
     1    11    12    1
     2    12    13    1
     3    12    14    1
     4    12     7    1
     5     7     8   am
     6     8     9    2
     7     8     1    1
     8     1     2   ar
     9     2     3   ar
    10     3     4   ar
    11     4    33    1
    12    33    34    1
    13    34    35   ar
    14    35    36   ar
    15    36    37    1
    16    36    38   ar
    17    38    42    1
    18    42    43    1
    19    43    44    2
    20    43    45    1
    21    45    46    1
    22    46    47    1
    23    47    48    1
    24    48    58    1
    25    58    59    2
    26    58    60    1
    27    48    49    1
    28    49    50    1
    29    49    51    1
    30    51    52    1
    31    51    53    1
    32    53    54    1
    33    38    39   ar
    34    39    40   ar
    35    40    41    1
    36     4     5   ar
    37     5    18    1
    38    18    20    1
    39    20    21    2
    40    20    22    2
    41    20    23    1
    42    23    24   ar
    43    24    25   ar
    44    25    26   ar
    45    26    30    1
    46    30    31    1
    47    31    32    1
    48    26    27   ar
    49    27    28   ar
    50    28    29    1
    51     5     6   ar
    52     6    15    1
    53    15    16    1
    54     6     1   ar
    55    40    34   ar
    56    28    23   ar
    57    53    46    1
    58    32    30    1
    59     7    10    1
    60    60    61    1
    61    50    55    1
    62    52    56    1
    63    54    57    1
    64    18    19    1
    65    16    17    1
@<TRIPOS>MOLECULE
*****
 61 65 0 0 0
SMALL
GASTEIGER

@<TRIPOS>ATOM
      1 C         -19.8670   -8.0286   -8.2522 C.ar    1  UNL1        0.0532
      2 C         -20.5581   -6.9145   -8.7416 C.ar    1  UNL1        0.0075
      3 C         -20.9781   -6.8656  -10.0663 C.ar    1  UNL1        0.0389
      4 C         -20.7130   -7.9330  -10.9382 C.ar    1  UNL1        0.1595
      5 C         -20.0317   -9.0658  -10.4601 C.ar    1  UNL1        0.0977
      6 C         -19.6047   -9.1289   -9.1086 C.ar    1  UNL1        0.0289
      7 N         -18.1074   -7.6526   -6.4800 N.am    1  UNL1       -0.3040
      8 C         -19.4541   -8.0137   -6.8367 C.2     1  UNL1        0.2456
      9 O         -20.3111   -8.2705   -5.9496 O.2     1  UNL1       -0.2702
     10 H         -17.4963   -7.3048   -7.2552 H       1  UNL1        0.1496
     11 C         -18.4499   -7.0986   -4.0918 C.3     1  UNL1        0.0196
     12 C         -17.5314   -7.7765   -5.1269 C.3     1  UNL1        0.0572
     13 C         -17.3255   -9.2620   -4.7708 C.3     1  UNL1        0.0196
     14 C         -16.1597   -7.0727   -5.0984 C.3     1  UNL1        0.0196
     15 C         -18.9830  -10.4024   -8.5661 C.3     1  UNL1        0.1651
     16 O         -17.6485  -10.1699   -8.2090 O.3     1  UNL1       -0.3772
     17 H         -17.1201  -10.1953   -9.0490 H       1  UNL1        0.2109
     18 N         -19.7838  -10.1554  -11.3569 N.pl3   1  UNL1       -0.2122
     19 H         -19.1472  -10.0081  -12.1714 H       1  UNL1        0.1738
     20 S         -20.8899  -11.4865  -11.4208 S.O2    1  UNL1        0.0745
     21 O         -21.8480  -11.4085  -10.2655 O.2     1  UNL1       -0.1499
     22 O         -20.1322  -12.7789  -11.3038 O.2     1  UNL1       -0.1499
     23 C         -21.7778  -11.4184  -12.9489 C.ar    1  UNL1        0.1356
     24 C         -21.0685  -11.6106  -14.1436 C.ar    1  UNL1        0.0207
     25 C         -21.7341  -11.6401  -15.3698 C.ar    1  UNL1       -0.0028
     26 C         -23.1262  -11.4989  -15.4209 C.ar    1  UNL1       -0.0216
     27 C         -23.8397  -11.2821  -14.2339 C.ar    1  UNL1        0.0085
     28 C         -23.1799  -11.2559  -12.9994 C.ar    1  UNL1        0.0762
     29 CL        -24.1606  -11.0608  -11.5506 Cl      1  UNL1       -0.0809
     30 C         -23.8387  -11.5093  -16.7461 C.3     1  UNL1        0.0224
     31 C         -23.4513  -10.3765  -17.6881 C.3     1  UNL1        0.0047
     32 C         -22.9549  -11.7853  -17.9558 C.3     1  UNL1        0.0047
     33 O         -21.1578   -7.9206  -12.2713 O.3     1  UNL1       -0.4513
     34 C         -22.4980   -7.8144  -12.6609 C.ar    1  UNL1        0.1580
     35 C         -23.4811   -7.7206  -11.6707 C.ar    1  UNL1        0.0677
     36 C         -24.8239   -7.5496  -12.0183 C.ar    1  UNL1        0.1398
     37 F         -25.7471   -7.3909  -11.0363 F       1  UNL1       -0.2044
     38 C         -25.2023   -7.5030  -13.3715 C.ar    1  UNL1        0.0175
     39 C         -24.2193   -7.6427  -14.3646 C.ar    1  UNL1        0.0130
     40 C         -22.8748   -7.8061  -14.0172 C.ar    1  UNL1        0.0919
     41 CL        -21.6893   -8.0080  -15.2989 Cl      1  UNL1       -0.0791
     42 C         -26.6125   -7.1522  -13.7634 C.3     1  UNL1        0.1382
     43 C         -26.6776   -5.6838  -14.0298 C.2     1  UNL1        0.3234
     44 O         -26.3524   -4.8625  -13.1297 O.2     1  UNL1       -0.2497
     45 O         -27.0094   -5.2443  -15.3155 O.3     1  UNL1       -0.4215
     46 C         -27.9562   -4.2097  -15.5772 C.3     1  UNL1        0.3207
     47 O         -29.2473   -4.7296  -15.3149 O.3     1  UNL1       -0.3070
     48 C         -30.2356   -3.7267  -15.4755 C.3     1  UNL1        0.2456
     49 C         -30.3139   -3.2815  -16.9495 C.3     1  UNL1        0.1781
     50 O         -31.2749   -2.2649  -17.0841 O.3     1  UNL1       -0.3790
     51 C         -28.9407   -2.7619  -17.4046 C.3     1  UNL1        0.1733
     52 O         -28.9681   -2.5398  -18.7916 O.3     1  UNL1       -0.3793
     53 C         -27.8419   -3.7834  -17.0581 C.3     1  UNL1        0.2106
     54 O         -26.5789   -3.2125  -17.2871 O.3     1  UNL1       -0.3766
     55 H         -31.5371   -2.2415  -18.0413 H       1  UNL1        0.2106
     56 H         -28.2525   -1.8821  -18.9941 H       1  UNL1        0.2105
     57 H         -26.3596   -3.3636  -18.2431 H       1  UNL1        0.2107
     58 C         -31.5623   -4.2820  -15.0356 C.2     1  UNL1        0.3439
     59 O         -32.5490   -3.5136  -14.8836 O.2     1  UNL1       -0.2475
     60 O         -31.7036   -5.6363  -14.7447 O.3     1  UNL1       -0.4785
     61 H         -30.9241   -6.2776  -14.8301 H       1  UNL1        0.2951
@<TRIPOS>BOND
     1    11    12    1
     2    12    13    1
     3    12    14    1
     4    12     7    1
     5     7     8   am
     6     8     9    2
     7     8     1    1
     8     1     2   ar
     9     2     3   ar
    10     3     4   ar
    11     4    33    1
    12    33    34    1
    13    34    35   ar
    14    35    36   ar
    15    36    37    1
    16    36    38   ar
    17    38    42    1
    18    42    43    1
    19    43    44    2
    20    43    45    1
    21    45    46    1
    22    46    47    1
    23    47    48    1
    24    48    58    1
    25    58    59    2
    26    58    60    1
    27    48    49    1
    28    49    50    1
    29    49    51    1
    30    51    52    1
    31    51    53    1
    32    53    54    1
    33    38    39   ar
    34    39    40   ar
    35    40    41    1
    36     4     5   ar
    37     5    18    1
    38    18    20    1
    39    20    21    2
    40    20    22    2
    41    20    23    1
    42    23    24   ar
    43    24    25   ar
    44    25    26   ar
    45    26    30    1
    46    30    31    1
    47    31    32    1
    48    26    27   ar
    49    27    28   ar
    50    28    29    1
    51     5     6   ar
    52     6    15    1
    53    15    16    1
    54     6     1   ar
    55    40    34   ar
    56    28    23   ar
    57    53    46    1
    58    32    30    1
    59     7    10    1
    60    60    61    1
    61    50    55    1
    62    52    56    1
    63    54    57    1
    64    18    19    1
    65    16    17    1
@<TRIPOS>MOLECULE
*****
 61 65 0 0 0
SMALL
GASTEIGER

@<TRIPOS>ATOM
      1 C         -19.9920   -7.8375   -8.2698 C.ar    1  UNL1        0.0532
      2 C         -20.6861   -6.6892   -8.6675 C.ar    1  UNL1        0.0075
      3 C         -21.1504   -6.5566   -9.9714 C.ar    1  UNL1        0.0389
      4 C         -20.9278   -7.5722  -10.9142 C.ar    1  UNL1        0.1595
      5 C         -20.2441   -8.7383  -10.5287 C.ar    1  UNL1        0.0977
      6 C         -19.7721   -8.8868   -9.1990 C.ar    1  UNL1        0.0289
      7 N         -18.1801   -7.5470   -6.5346 N.am    1  UNL1       -0.3040
      8 C         -19.5309   -7.9118   -6.8711 C.2     1  UNL1        0.2456
      9 O         -20.3517   -8.2482   -5.9764 O.2     1  UNL1       -0.2702
     10 H         -17.6030   -7.1330   -7.3032 H       1  UNL1        0.1496
     11 C         -18.4636   -7.1920   -4.1012 C.3     1  UNL1        0.0196
     12 C         -17.5555   -7.7519   -5.2132 C.3     1  UNL1        0.0572
     13 C         -17.2836   -9.2511   -4.9805 C.3     1  UNL1        0.0196
     14 C         -16.2104   -6.9992   -5.1712 C.3     1  UNL1        0.0196
     15 C         -19.1475  -10.1966   -8.7555 C.3     1  UNL1        0.1651
     16 O         -18.2164  -10.6305   -9.7081 O.3     1  UNL1       -0.3772
     17 H         -18.7349  -11.0536  -10.4413 H       1  UNL1        0.2109
     18 N         -20.0398   -9.7744  -11.4971 N.pl3   1  UNL1       -0.2122
     19 H         -19.5088   -9.5568  -12.3695 H       1  UNL1        0.1738
     20 S         -21.0709  -11.1659  -11.4996 S.O2    1  UNL1        0.0745
     21 O         -22.0705  -11.0611  -10.3823 O.2     1  UNL1       -0.1499
     22 O         -20.2501  -12.4031  -11.2684 O.2     1  UNL1       -0.1499
     23 C         -21.9088  -11.2530  -13.0548 C.ar    1  UNL1        0.1356
     24 C         -21.1428  -11.4108  -14.2192 C.ar    1  UNL1        0.0207
     25 C         -21.7594  -11.5591  -15.4622 C.ar    1  UNL1       -0.0028
     26 C         -23.1561  -11.5737  -15.5601 C.ar    1  UNL1       -0.0216
     27 C         -23.9287  -11.3922  -14.4046 C.ar    1  UNL1        0.0085
     28 C         -23.3177  -11.2475  -13.1532 C.ar    1  UNL1        0.0762
     29 CL        -24.3622  -11.1071  -11.7432 Cl      1  UNL1       -0.0809
     30 C         -23.8180  -11.7119  -16.9042 C.3     1  UNL1        0.0224
     31 C         -23.4749  -10.6121  -17.9010 C.3     1  UNL1        0.0047
     32 C         -22.8745  -11.9959  -18.0660 C.3     1  UNL1        0.0047
     33 O         -21.4175   -7.4752  -12.2280 O.3     1  UNL1       -0.4513
     34 C         -22.7630   -7.6173  -12.5870 C.ar    1  UNL1        0.1580
     35 C         -23.7345   -7.5860  -11.5816 C.ar    1  UNL1        0.0677
     36 C         -25.0922   -7.6608  -11.9046 C.ar    1  UNL1        0.1398
     37 F         -26.0150   -7.5570  -10.9149 F       1  UNL1       -0.2044
     38 C         -25.4921   -7.8014  -13.2450 C.ar    1  UNL1        0.0175
     39 C         -24.5135   -7.8781  -14.2492 C.ar    1  UNL1        0.0130
     40 C         -23.1553   -7.7956  -13.9271 C.ar    1  UNL1        0.0919
     41 CL        -21.9709   -7.9288  -15.2188 Cl      1  UNL1       -0.0791
     42 C         -26.9454   -7.7141  -13.6264 C.3     1  UNL1        0.1382
     43 C         -27.2871   -6.2789  -13.8612 C.2     1  UNL1        0.3234
     44 O         -26.3699   -5.4277  -14.0178 O.2     1  UNL1       -0.2497
     45 O         -28.6313   -5.9182  -13.9999 O.3     1  UNL1       -0.4215
     46 C         -29.1754   -5.3367  -15.1837 C.3     1  UNL1        0.3207
     47 O         -28.2070   -4.4490  -15.7129 O.3     1  UNL1       -0.3070
     48 C         -28.6496   -3.8952  -16.9400 C.3     1  UNL1        0.2456
     49 C         -29.8812   -2.9968  -16.7102 C.3     1  UNL1        0.1781
     50 O         -30.3257   -2.4830  -17.9405 O.3     1  UNL1       -0.3790
     51 C         -31.0030   -3.8180  -16.0544 C.3     1  UNL1        0.1733
     52 O         -32.0447   -2.9552  -15.6745 O.3     1  UNL1       -0.3793
     53 C         -30.4653   -4.5668  -14.8212 C.3     1  UNL1        0.2106
     54 O         -31.4369   -5.4691  -14.3572 O.3     1  UNL1       -0.3766
     55 H         -30.8725   -1.6799  -17.7364 H       1  UNL1        0.2106
     56 H         -32.8689   -3.5051  -15.6130 H       1  UNL1        0.2105
     57 H         -32.0310   -4.9666  -13.7412 H       1  UNL1        0.2107
     58 C         -27.5295   -3.0882  -17.5369 C.2     1  UNL1        0.3439
     59 O         -26.4949   -2.8469  -16.8596 O.2     1  UNL1       -0.2475
     60 O         -27.6415   -2.5586  -18.8197 O.3     1  UNL1       -0.4785
     61 H         -28.4706   -2.7103  -19.3818 H       1  UNL1        0.2951
@<TRIPOS>BOND
     1    11    12    1
     2    12    13    1
     3    12    14    1
     4    12     7    1
     5     7     8   am
     6     8     9    2
     7     8     1    1
     8     1     2   ar
     9     2     3   ar
    10     3     4   ar
    11     4    33    1
    12    33    34    1
    13    34    35   ar
    14    35    36   ar
    15    36    37    1
    16    36    38   ar
    17    38    42    1
    18    42    43    1
    19    43    44    2
    20    43    45    1
    21    45    46    1
    22    46    47    1
    23    47    48    1
    24    48    58    1
    25    58    59    2
    26    58    60    1
    27    48    49    1
    28    49    50    1
    29    49    51    1
    30    51    52    1
    31    51    53    1
    32    53    54    1
    33    38    39   ar
    34    39    40   ar
    35    40    41    1
    36     4     5   ar
    37     5    18    1
    38    18    20    1
    39    20    21    2
    40    20    22    2
    41    20    23    1
    42    23    24   ar
    43    24    25   ar
    44    25    26   ar
    45    26    30    1
    46    30    31    1
    47    31    32    1
    48    26    27   ar
    49    27    28   ar
    50    28    29    1
    51     5     6   ar
    52     6    15    1
    53    15    16    1
    54     6     1   ar
    55    40    34   ar
    56    28    23   ar
    57    53    46    1
    58    32    30    1
    59     7    10    1
    60    60    61    1
    61    50    55    1
    62    52    56    1
    63    54    57    1
    64    18    19    1
    65    16    17    1
@<TRIPOS>MOLECULE
*****
 61 65 0 0 0
SMALL
GASTEIGER

@<TRIPOS>ATOM
      1 C         -19.9631   -7.5729   -8.4682 C.ar    1  UNL1        0.0532
      2 C         -20.6422   -6.3964   -8.8044 C.ar    1  UNL1        0.0075
      3 C         -21.1414   -6.2074  -10.0883 C.ar    1  UNL1        0.0389
      4 C         -20.9698   -7.1933  -11.0723 C.ar    1  UNL1        0.1595
      5 C         -20.3019   -8.3871  -10.7485 C.ar    1  UNL1        0.0977
      6 C         -19.7946   -8.5931   -9.4396 C.ar    1  UNL1        0.0289
      7 N         -20.1594   -8.5414   -6.1440 N.am    1  UNL1       -0.3040
      8 C         -19.4631   -7.7071   -7.0874 C.2     1  UNL1        0.2456
      9 O         -18.3934   -7.1232   -6.7677 O.2     1  UNL1       -0.2702
     10 H         -20.9501   -9.1138   -6.5215 H       1  UNL1        0.1496
     11 C         -18.7443   -9.6361   -4.4332 C.3     1  UNL1        0.0196
     12 C         -19.8630   -8.6104   -4.6998 C.3     1  UNL1        0.0572
     13 C         -19.4537   -7.2205   -4.1741 C.3     1  UNL1        0.0196
     14 C         -21.1308   -9.0632   -3.9479 C.3     1  UNL1        0.0196
     15 C         -19.1873   -9.9312   -9.0612 C.3     1  UNL1        0.1651
     16 O         -18.2081  -10.2944   -9.9949 O.3     1  UNL1       -0.3772
     17 H         -18.6876  -10.6637  -10.7817 H       1  UNL1        0.2109
     18 N         -20.1499   -9.3923  -11.7582 N.pl3   1  UNL1       -0.2122
     19 H         -19.7164   -9.1327  -12.6721 H       1  UNL1        0.1738
     20 S         -21.1167  -10.8278  -11.6964 S.O2    1  UNL1        0.0745
     21 O         -20.4559  -11.8493  -10.8141 O.2     1  UNL1       -0.1499
     22 O         -21.2349  -11.4168  -13.0738 O.2     1  UNL1       -0.1499
     23 C         -22.7120  -10.4147  -11.0540 C.ar    1  UNL1        0.1356
     24 C         -22.7854   -9.7638   -9.8138 C.ar    1  UNL1        0.0207
     25 C         -24.0147   -9.3506   -9.2984 C.ar    1  UNL1       -0.0028
     26 C         -25.1922   -9.5625  -10.0257 C.ar    1  UNL1       -0.0216
     27 C         -25.1303  -10.2338  -11.2547 C.ar    1  UNL1        0.0085
     28 C         -23.9005  -10.6474  -11.7808 C.ar    1  UNL1        0.0762
     29 CL        -23.9032  -11.4097  -13.3674 Cl      1  UNL1       -0.0809
     30 C         -26.5185   -9.1354   -9.4577 C.3     1  UNL1        0.0224
     31 C         -26.7588   -7.6311   -9.4588 C.3     1  UNL1        0.0047
     32 C         -27.4831   -8.5129  -10.4590 C.3     1  UNL1        0.0047
     33 O         -21.4955   -7.0390  -12.3665 O.3     1  UNL1       -0.4513
     34 C         -22.8581   -7.0933  -12.6825 C.ar    1  UNL1        0.1580
     35 C         -23.7562   -6.3408  -11.9190 C.ar    1  UNL1        0.0677
     36 C         -25.1159   -6.3182  -12.2415 C.ar    1  UNL1        0.1398
     37 F         -25.9528   -5.5240  -11.5270 F       1  UNL1       -0.2044
     38 C         -25.5983   -7.0802  -13.3200 C.ar    1  UNL1        0.0175
     39 C         -24.7020   -7.8706  -14.0575 C.ar    1  UNL1        0.0130
     40 C         -23.3404   -7.8875  -13.7399 C.ar    1  UNL1        0.0919
     41 CL        -22.2672   -8.9185  -14.6750 Cl      1  UNL1       -0.0791
     42 C         -27.0225   -6.9379  -13.7851 C.3     1  UNL1        0.1382
     43 C         -27.1636   -5.6233  -14.4804 C.2     1  UNL1        0.3234
     44 O         -26.2384   -5.1989  -15.2250 O.2     1  UNL1       -0.2497
     45 O         -28.3704   -4.9253  -14.3679 O.3     1  UNL1       -0.4215
     46 C         -29.1797   -4.5610  -15.4849 C.3     1  UNL1        0.3207
     47 O         -28.3805   -3.7900  -16.3639 O.3     1  UNL1       -0.3070
     48 C         -29.0995   -3.4616  -17.5401 C.3     1  UNL1        0.2456
     49 C         -30.2790   -2.5270  -17.2049 C.3     1  UNL1        0.1781
     50 O         -30.9992   -2.2385  -18.3766 O.3     1  UNL1       -0.3790
     51 C         -31.2021   -3.2088  -16.1821 C.3     1  UNL1        0.1733
     52 O         -32.1622   -2.2839  -15.7388 O.3     1  UNL1       -0.3793
     53 C         -30.3827   -3.7287  -14.9868 C.3     1  UNL1        0.2106
     54 O         -31.1990   -4.5258  -14.1671 O.3     1  UNL1       -0.3766
     55 H         -31.5135   -1.4076  -18.2012 H       1  UNL1        0.2106
     56 H         -32.9346   -2.8075  -15.4000 H       1  UNL1        0.2105
     57 H         -31.6592   -3.9165  -13.5331 H       1  UNL1        0.2107
     58 C         -28.1647   -2.7832  -18.5034 C.2     1  UNL1        0.3439
     59 O         -28.4968   -1.6953  -19.0450 O.2     1  UNL1       -0.2475
     60 O         -26.9490   -3.3699  -18.8449 O.3     1  UNL1       -0.4785
     61 H         -26.6626   -4.2572  -18.4490 H       1  UNL1        0.2951
@<TRIPOS>BOND
     1    11    12    1
     2    12    13    1
     3    12    14    1
     4    12     7    1
     5     7     8   am
     6     8     9    2
     7     8     1    1
     8     1     2   ar
     9     2     3   ar
    10     3     4   ar
    11     4    33    1
    12    33    34    1
    13    34    35   ar
    14    35    36   ar
    15    36    37    1
    16    36    38   ar
    17    38    42    1
    18    42    43    1
    19    43    44    2
    20    43    45    1
    21    45    46    1
    22    46    47    1
    23    47    48    1
    24    48    58    1
    25    58    59    2
    26    58    60    1
    27    48    49    1
    28    49    50    1
    29    49    51    1
    30    51    52    1
    31    51    53    1
    32    53    54    1
    33    38    39   ar
    34    39    40   ar
    35    40    41    1
    36     4     5   ar
    37     5    18    1
    38    18    20    1
    39    20    21    2
    40    20    22    2
    41    20    23    1
    42    23    24   ar
    43    24    25   ar
    44    25    26   ar
    45    26    30    1
    46    30    31    1
    47    31    32    1
    48    26    27   ar
    49    27    28   ar
    50    28    29    1
    51     5     6   ar
    52     6    15    1
    53    15    16    1
    54     6     1   ar
    55    40    34   ar
    56    28    23   ar
    57    53    46    1
    58    32    30    1
    59     7    10    1
    60    60    61    1
    61    50    55    1
    62    52    56    1
    63    54    57    1
    64    18    19    1
    65    16    17    1
@<TRIPOS>MOLECULE
*****
 61 65 0 0 0
SMALL
GASTEIGER

@<TRIPOS>ATOM
      1 C         -20.2327   -8.0701   -8.5002 C.ar    1  UNL1        0.0532
      2 C         -19.5133   -7.6584   -9.6277 C.ar    1  UNL1        0.0075
      3 C         -20.1187   -7.6144  -10.8787 C.ar    1  UNL1        0.0389
      4 C         -21.4632   -7.9860  -11.0336 C.ar    1  UNL1        0.1595
      5 C         -22.2049   -8.3894   -9.9096 C.ar    1  UNL1        0.0977
      6 C         -21.5989   -8.4312   -8.6275 C.ar    1  UNL1        0.0289
      7 N         -18.6202   -9.1617   -6.8919 N.am    1  UNL1       -0.3040
      8 C         -19.5282   -8.0899   -7.2049 C.2     1  UNL1        0.2456
      9 O         -19.6955   -7.1302   -6.4059 O.2     1  UNL1       -0.2702
     10 H         -18.4156   -9.8402   -7.6620 H       1  UNL1        0.1496
     11 C         -17.1901  -10.6943   -5.5753 C.3     1  UNL1        0.0196
     12 C         -18.0030   -9.3851   -5.5701 C.3     1  UNL1        0.0572
     13 C         -17.0993   -8.1934   -5.1971 C.3     1  UNL1        0.0196
     14 C         -19.1159   -9.5049   -4.5096 C.3     1  UNL1        0.0196
     15 C         -22.4351   -8.7452   -7.4009 C.3     1  UNL1        0.1651
     16 O         -23.6568   -8.0626   -7.4660 O.3     1  UNL1       -0.3772
     17 H         -23.4768   -7.1287   -7.1817 H       1  UNL1        0.2109
     18 N         -23.5814   -8.7487  -10.0798 N.pl3   1  UNL1       -0.2122
     19 H         -24.3211   -8.0471   -9.8541 H       1  UNL1        0.1738
     20 S         -24.0351  -10.4192  -10.1314 S.O2    1  UNL1        0.0745
     21 O         -25.4659  -10.5720   -9.6978 O.2     1  UNL1       -0.1499
     22 O         -23.1790  -11.2048   -9.1786 O.2     1  UNL1       -0.1499
     23 C         -23.8373  -11.0139  -11.7854 C.ar    1  UNL1        0.1356
     24 C         -24.9603  -11.0405  -12.6252 C.ar    1  UNL1        0.0207
     25 C         -24.8420  -11.4307  -13.9598 C.ar    1  UNL1       -0.0028
     26 C         -23.5922  -11.7813  -14.4847 C.ar    1  UNL1       -0.0216
     27 C         -22.4691  -11.7808  -13.6459 C.ar    1  UNL1        0.0085
     28 C         -22.5786  -11.3862  -12.3070 C.ar    1  UNL1        0.0762
     29 CL        -21.1052  -11.3352  -11.3451 Cl      1  UNL1       -0.0809
     30 C         -23.4713  -12.2224  -15.9181 C.3     1  UNL1        0.0224
     31 C         -23.1773  -11.1024  -16.9081 C.3     1  UNL1        0.0047
     32 C         -22.0816  -12.0802  -16.5258 C.3     1  UNL1        0.0047
     33 O         -22.1056   -7.9167  -12.2817 O.3     1  UNL1       -0.4513
     34 C         -23.3295   -7.2774  -12.5111 C.ar    1  UNL1        0.1580
     35 C         -24.3404   -7.9784  -13.1761 C.ar    1  UNL1        0.0677
     36 C         -25.5973   -7.3984  -13.3685 C.ar    1  UNL1        0.1398
     37 F         -26.5806   -8.1278  -13.9541 F       1  UNL1       -0.2044
     38 C         -25.8461   -6.0886  -12.9222 C.ar    1  UNL1        0.0175
     39 C         -24.8157   -5.3697  -12.2949 C.ar    1  UNL1        0.0130
     40 C         -23.5605   -5.9525  -12.0953 C.ar    1  UNL1        0.0919
     41 CL        -22.2969   -4.9977  -11.3334 Cl      1  UNL1       -0.0791
     42 C         -27.2354   -5.5119  -12.9687 C.3     1  UNL1        0.1382
     43 C         -27.6226   -5.3267  -14.3996 C.2     1  UNL1        0.3234
     44 O         -26.7954   -4.8474  -15.2219 O.2     1  UNL1       -0.2497
     45 O         -28.8749   -5.7817  -14.8251 O.3     1  UNL1       -0.4215
     46 C         -29.7208   -5.0526  -15.7129 C.3     1  UNL1        0.3207
     47 O         -28.9074   -4.1491  -16.4396 O.3     1  UNL1       -0.3070
     48 C         -29.6729   -3.4466  -17.4034 C.3     1  UNL1        0.2456
     49 C         -30.7026   -2.5331  -16.7090 C.3     1  UNL1        0.1781
     50 O         -31.4736   -1.8700  -17.6788 O.3     1  UNL1       -0.3790
     51 C         -31.6166   -3.3788  -15.8077 C.3     1  UNL1        0.1733
     52 O         -32.4218   -2.5245  -15.0359 O.3     1  UNL1       -0.3793
     53 C         -30.7731   -4.2792  -14.8867 C.3     1  UNL1        0.2106
     54 O         -31.6111   -5.1899  -14.2220 O.3     1  UNL1       -0.3766
     55 H         -31.8699   -1.0742  -17.2369 H       1  UNL1        0.2106
     56 H         -33.2218   -3.0463  -14.7652 H       1  UNL1        0.2105
     57 H         -31.9440   -4.7366  -13.4043 H       1  UNL1        0.2107
     58 C         -28.7429   -2.6215  -18.2498 C.2     1  UNL1        0.3439
     59 O         -29.2076   -1.7524  -19.0347 O.2     1  UNL1       -0.2475
     60 O         -27.3683   -2.8400  -18.2139 O.3     1  UNL1       -0.4785
     61 H         -26.9631   -3.5490  -17.6144 H       1  UNL1        0.2951
@<TRIPOS>BOND
     1    11    12    1
     2    12    13    1
     3    12    14    1
     4    12     7    1
     5     7     8   am
     6     8     9    2
     7     8     1    1
     8     1     2   ar
     9     2     3   ar
    10     3     4   ar
    11     4    33    1
    12    33    34    1
    13    34    35   ar
    14    35    36   ar
    15    36    37    1
    16    36    38   ar
    17    38    42    1
    18    42    43    1
    19    43    44    2
    20    43    45    1
    21    45    46    1
    22    46    47    1
    23    47    48    1
    24    48    58    1
    25    58    59    2
    26    58    60    1
    27    48    49    1
    28    49    50    1
    29    49    51    1
    30    51    52    1
    31    51    53    1
    32    53    54    1
    33    38    39   ar
    34    39    40   ar
    35    40    41    1
    36     4     5   ar
    37     5    18    1
    38    18    20    1
    39    20    21    2
    40    20    22    2
    41    20    23    1
    42    23    24   ar
    43    24    25   ar
    44    25    26   ar
    45    26    30    1
    46    30    31    1
    47    31    32    1
    48    26    27   ar
    49    27    28   ar
    50    28    29    1
    51     5     6   ar
    52     6    15    1
    53    15    16    1
    54     6     1   ar
    55    40    34   ar
    56    28    23   ar
    57    53    46    1
    58    32    30    1
    59     7    10    1
    60    60    61    1
    61    50    55    1
    62    52    56    1
    63    54    57    1
    64    18    19    1
    65    16    17    1
@<TRIPOS>MOLECULE
*****
 61 65 0 0 0
SMALL
GASTEIGER

@<TRIPOS>ATOM
      1 C         -20.1116   -8.1478   -8.4375 C.ar    1  UNL1        0.0532
      2 C         -19.3494   -7.8463   -9.5718 C.ar    1  UNL1        0.0075
      3 C         -19.9269   -7.8513  -10.8367 C.ar    1  UNL1        0.0389
      4 C         -21.2858   -8.1625  -10.9988 C.ar    1  UNL1        0.1595
      5 C         -22.0697   -8.4547   -9.8691 C.ar    1  UNL1        0.0977
      6 C         -21.4921   -8.4458   -8.5733 C.ar    1  UNL1        0.0289
      7 N         -18.5507   -9.1916   -6.7486 N.am    1  UNL1       -0.3040
      8 C         -19.4347   -8.1211   -7.1277 C.2     1  UNL1        0.2456
      9 O         -19.6035   -7.1248   -6.3752 O.2     1  UNL1       -0.2702
     10 H         -18.3407   -9.9063   -7.4837 H       1  UNL1        0.1496
     11 C         -17.0644   -8.1649   -5.0561 C.3     1  UNL1        0.0196
     12 C         -17.9648   -9.3658   -5.4053 C.3     1  UNL1        0.0572
     13 C         -19.0815   -9.5230   -4.3546 C.3     1  UNL1        0.0196
     14 C         -17.1015  -10.6434   -5.3955 C.3     1  UNL1        0.0196
     15 C         -22.3677   -8.6375   -7.3490 C.3     1  UNL1        0.1651
     16 O         -23.5793   -7.9538   -7.5143 O.3     1  UNL1       -0.3772
     17 H         -23.3975   -6.9990   -7.3122 H       1  UNL1        0.2109
     18 N         -23.4596   -8.7530  -10.0481 N.pl3   1  UNL1       -0.2122
     19 H         -24.1645   -7.9969   -9.9003 H       1  UNL1        0.1738
     20 S         -24.0036  -10.3956   -9.9776 S.O2    1  UNL1        0.0745
     21 O         -25.4670  -10.4333   -9.6375 O.2     1  UNL1       -0.1499
     22 O         -23.2607  -11.1278   -8.8960 O.2     1  UNL1       -0.1499
     23 C         -23.7282  -11.1564  -11.5504 C.ar    1  UNL1        0.1356
     24 C         -24.8172  -11.3036  -12.4220 C.ar    1  UNL1        0.0207
     25 C         -24.6384  -11.8295  -13.7021 C.ar    1  UNL1       -0.0028
     26 C         -23.3612  -12.1984  -14.1417 C.ar    1  UNL1       -0.0216
     27 C         -22.2714  -12.0773  -13.2683 C.ar    1  UNL1        0.0085
     28 C         -22.4418  -11.5463  -11.9841 C.ar    1  UNL1        0.0762
     29 CL        -21.0081  -11.3521  -10.9814 Cl      1  UNL1       -0.0809
     30 C         -23.1747  -12.7853  -15.5145 C.3     1  UNL1        0.0224
     31 C         -22.8650  -14.2768  -15.5345 C.3     1  UNL1        0.0047
     32 C         -24.2412  -13.7851  -15.9431 C.3     1  UNL1        0.0047
     33 O         -21.8989   -8.1400  -12.2632 O.3     1  UNL1       -0.4513
     34 C         -23.1133   -7.5040  -12.5464 C.ar    1  UNL1        0.1580
     35 C         -24.1131   -8.2261  -13.2057 C.ar    1  UNL1        0.0677
     36 C         -25.3617   -7.6477  -13.4502 C.ar    1  UNL1        0.1398
     37 F         -26.3359   -8.3949  -14.0285 F       1  UNL1       -0.2044
     38 C         -25.6124   -6.3196  -13.0630 C.ar    1  UNL1        0.0175
     39 C         -24.5922   -5.5814  -12.4415 C.ar    1  UNL1        0.0130
     40 C         -23.3455   -6.1622  -12.1898 C.ar    1  UNL1        0.0919
     41 CL        -22.0937   -5.1840  -11.4381 Cl      1  UNL1       -0.0791
     42 C         -26.9968   -5.7379  -13.1647 C.3     1  UNL1        0.1382
     43 C         -27.1986   -5.2392  -14.5583 C.2     1  UNL1        0.3234
     44 O         -26.2037   -4.9465  -15.2758 O.2     1  UNL1       -0.2497
     45 O         -28.4959   -5.1967  -15.0795 O.3     1  UNL1       -0.4215
     46 C         -29.1342   -3.9968  -15.5134 C.3     1  UNL1        0.3207
     47 O         -30.5072   -4.0932  -15.1793 O.3     1  UNL1       -0.3070
     48 C         -31.1903   -2.8960  -15.5085 C.3     1  UNL1        0.2456
     49 C         -31.2001   -2.6862  -17.0359 C.3     1  UNL1        0.1781
     50 O         -31.8521   -1.4794  -17.3415 O.3     1  UNL1       -0.3790
     51 C         -29.7555   -2.6434  -17.5596 C.3     1  UNL1        0.1733
     52 O         -29.7739   -2.6454  -18.9643 O.3     1  UNL1       -0.3793
     53 C         -28.9643   -3.8591  -17.0431 C.3     1  UNL1        0.2106
     54 O         -27.6031   -3.7013  -17.3528 O.3     1  UNL1       -0.3766
     55 H         -32.1342   -1.5371  -18.2916 H       1  UNL1        0.2106
     56 H         -28.9144   -2.2506  -19.2661 H       1  UNL1        0.2105
     57 H         -27.4696   -4.0567  -18.2698 H       1  UNL1        0.2107
     58 C         -32.6004   -2.9880  -14.9937 C.2     1  UNL1        0.3439
     59 O         -33.5701   -2.9348  -15.7964 O.2     1  UNL1       -0.2475
     60 O         -32.8526   -3.0826  -13.6277 O.3     1  UNL1       -0.4785
     61 H         -32.0976   -3.1006  -12.9526 H       1  UNL1        0.2951
@<TRIPOS>BOND
     1    11    12    1
     2    12    13    1
     3    12    14    1
     4    12     7    1
     5     7     8   am
     6     8     9    2
     7     8     1    1
     8     1     2   ar
     9     2     3   ar
    10     3     4   ar
    11     4    33    1
    12    33    34    1
    13    34    35   ar
    14    35    36   ar
    15    36    37    1
    16    36    38   ar
    17    38    42    1
    18    42    43    1
    19    43    44    2
    20    43    45    1
    21    45    46    1
    22    46    47    1
    23    47    48    1
    24    48    58    1
    25    58    59    2
    26    58    60    1
    27    48    49    1
    28    49    50    1
    29    49    51    1
    30    51    52    1
    31    51    53    1
    32    53    54    1
    33    38    39   ar
    34    39    40   ar
    35    40    41    1
    36     4     5   ar
    37     5    18    1
    38    18    20    1
    39    20    21    2
    40    20    22    2
    41    20    23    1
    42    23    24   ar
    43    24    25   ar
    44    25    26   ar
    45    26    30    1
    46    30    31    1
    47    31    32    1
    48    26    27   ar
    49    27    28   ar
    50    28    29    1
    51     5     6   ar
    52     6    15    1
    53    15    16    1
    54     6     1   ar
    55    40    34   ar
    56    28    23   ar
    57    53    46    1
    58    32    30    1
    59     7    10    1
    60    60    61    1
    61    50    55    1
    62    52    56    1
    63    54    57    1
    64    18    19    1
    65    16    17    1
@<TRIPOS>MOLECULE
*****
 61 65 0 0 0
SMALL
GASTEIGER

@<TRIPOS>ATOM
      1 C         -27.1914   -6.0233  -14.4143 C.ar    1  UNL1        0.0532
      2 C         -27.5814   -6.9885  -13.4790 C.ar    1  UNL1        0.0075
      3 C         -26.6694   -7.9234  -13.0018 C.ar    1  UNL1        0.0389
      4 C         -25.3405   -7.9177  -13.4530 C.ar    1  UNL1        0.1595
      5 C         -24.9280   -6.9470  -14.3824 C.ar    1  UNL1        0.0977
      6 C         -25.8486   -5.9843  -14.8706 C.ar    1  UNL1        0.0289
      7 N         -29.5977   -5.2692  -14.5545 N.am    1  UNL1       -0.3040
      8 C         -28.2101   -5.0617  -14.8748 C.2     1  UNL1        0.2456
      9 O         -27.8384   -4.0355  -15.5042 O.2     1  UNL1       -0.2702
     10 H         -29.8132   -6.0581  -13.9014 H       1  UNL1        0.1496
     11 C         -32.0612   -5.1583  -14.7703 C.3     1  UNL1        0.0196
     12 C         -30.7176   -4.4833  -15.1079 C.3     1  UNL1        0.0572
     13 C         -30.6842   -3.0460  -14.5521 C.3     1  UNL1        0.0196
     14 C         -30.5754   -4.4172  -16.6419 C.3     1  UNL1        0.0196
     15 C         -25.3694   -4.8639  -15.7748 C.3     1  UNL1        0.1651
     16 O         -25.6901   -5.1531  -17.1075 O.3     1  UNL1       -0.3772
     17 H         -25.0049   -5.7935  -17.4329 H       1  UNL1        0.2109
     18 N         -23.5638   -6.9423  -14.8205 N.pl3   1  UNL1       -0.2122
     19 H         -22.8882   -6.2851  -14.3709 H       1  UNL1        0.1738
     20 S         -23.1565   -7.5881  -16.3749 S.O2    1  UNL1        0.0745
     21 O         -21.9726   -6.8529  -16.9375 O.2     1  UNL1       -0.1499
     22 O         -24.3091   -7.3957  -17.3196 O.2     1  UNL1       -0.1499
     23 C         -22.7736   -9.3057  -16.1973 C.ar    1  UNL1        0.1356
     24 C         -23.8313  -10.2143  -16.0455 C.ar    1  UNL1        0.0207
     25 C         -23.5865  -11.5864  -15.9760 C.ar    1  UNL1       -0.0028
     26 C         -22.2789  -12.0763  -16.0789 C.ar    1  UNL1       -0.0216
     27 C         -21.2141  -11.1736  -16.2063 C.ar    1  UNL1        0.0085
     28 C         -21.4517   -9.7959  -16.2814 C.ar    1  UNL1        0.0762
     29 CL        -20.0659   -8.7378  -16.5239 Cl      1  UNL1       -0.0809
     30 C         -22.0159  -13.5546  -15.9818 C.3     1  UNL1        0.0224
     31 C         -21.5780  -14.0361  -14.6045 C.3     1  UNL1        0.0047
     32 C         -22.9835  -14.3290  -15.0960 C.3     1  UNL1        0.0047
     33 O         -24.3930   -8.8308  -12.9592 O.3     1  UNL1       -0.4513
     34 C         -23.3478   -8.4988  -12.0892 C.ar    1  UNL1        0.1580
     35 C         -23.3538   -7.2402  -11.4797 C.ar    1  UNL1        0.0677
     36 C         -22.3630   -6.8943  -10.5567 C.ar    1  UNL1        0.1398
     37 F         -22.4336   -5.6936   -9.9282 F       1  UNL1       -0.2044
     38 C         -21.3303   -7.8000  -10.2572 C.ar    1  UNL1        0.0175
     39 C         -21.3006   -9.0460  -10.9041 C.ar    1  UNL1        0.0130
     40 C         -22.2960   -9.3954  -11.8218 C.ar    1  UNL1        0.0919
     41 CL        -22.1939  -10.9545  -12.6267 Cl      1  UNL1       -0.0791
     42 C         -20.3552   -7.5137   -9.1470 C.3     1  UNL1        0.1382
     43 C         -20.7989   -8.2514   -7.9262 C.2     1  UNL1        0.3234
     44 O         -22.0273   -8.4426   -7.7140 O.2     1  UNL1       -0.2497
     45 O         -19.8309   -8.8053   -7.0822 O.3     1  UNL1       -0.4215
     46 C         -19.4111   -8.2030   -5.8588 C.3     1  UNL1        0.3207
     47 O         -18.0189   -8.4248   -5.7239 O.3     1  UNL1       -0.3070
     48 C         -17.5166   -7.7798   -4.5662 C.3     1  UNL1        0.2456
     49 C         -18.1127   -8.4173   -3.2953 C.3     1  UNL1        0.1781
     50 O         -17.6295   -7.7448   -2.1599 O.3     1  UNL1       -0.3790
     51 C         -19.6462   -8.3227   -3.3419 C.3     1  UNL1        0.1733
     52 O         -20.1869   -9.0704   -2.2824 O.3     1  UNL1       -0.3793
     53 C         -20.1735   -8.8587   -4.6855 C.3     1  UNL1        0.2106
     54 O         -21.5450   -8.5767   -4.7996 O.3     1  UNL1       -0.3766
     55 H         -17.7480   -8.3593   -1.3892 H       1  UNL1        0.2106
     56 H         -21.0936   -8.7074   -2.1044 H       1  UNL1        0.2105
     57 H         -22.0332   -9.3200   -4.3591 H       1  UNL1        0.2107
     58 C         -16.0184   -7.9113   -4.5524 C.2     1  UNL1        0.3439
     59 O         -15.4663   -8.7614   -3.8043 O.2     1  UNL1       -0.2475
     60 O         -15.2247   -7.0670   -5.3242 O.3     1  UNL1       -0.4785
     61 H         -15.6343   -6.3544   -5.9165 H       1  UNL1        0.2951
@<TRIPOS>BOND
     1    11    12    1
     2    12    13    1
     3    12    14    1
     4    12     7    1
     5     7     8   am
     6     8     9    2
     7     8     1    1
     8     1     2   ar
     9     2     3   ar
    10     3     4   ar
    11     4    33    1
    12    33    34    1
    13    34    35   ar
    14    35    36   ar
    15    36    37    1
    16    36    38   ar
    17    38    42    1
    18    42    43    1
    19    43    44    2
    20    43    45    1
    21    45    46    1
    22    46    47    1
    23    47    48    1
    24    48    58    1
    25    58    59    2
    26    58    60    1
    27    48    49    1
    28    49    50    1
    29    49    51    1
    30    51    52    1
    31    51    53    1
    32    53    54    1
    33    38    39   ar
    34    39    40   ar
    35    40    41    1
    36     4     5   ar
    37     5    18    1
    38    18    20    1
    39    20    21    2
    40    20    22    2
    41    20    23    1
    42    23    24   ar
    43    24    25   ar
    44    25    26   ar
    45    26    30    1
    46    30    31    1
    47    31    32    1
    48    26    27   ar
    49    27    28   ar
    50    28    29    1
    51     5     6   ar
    52     6    15    1
    53    15    16    1
    54     6     1   ar
    55    40    34   ar
    56    28    23   ar
    57    53    46    1
    58    32    30    1
    59     7    10    1
    60    60    61    1
    61    50    55    1
    62    52    56    1
    63    54    57    1
    64    18    19    1
    65    16    17    1
@<TRIPOS>MOLECULE
*****
 61 65 0 0 0
SMALL
GASTEIGER

@<TRIPOS>ATOM
      1 C         -20.1528   -8.2187   -7.7458 C.ar    1  UNL1        0.0532
      2 C         -19.7708   -7.3968   -8.8121 C.ar    1  UNL1        0.0075
      3 C         -20.7105   -6.9453   -9.7321 C.ar    1  UNL1        0.0389
      4 C         -22.0605   -7.3090   -9.6093 C.ar    1  UNL1        0.1595
      5 C         -22.4643   -8.1230   -8.5367 C.ar    1  UNL1        0.0977
      6 C         -21.5148   -8.5836   -7.5885 C.ar    1  UNL1        0.0289
      7 N         -18.9924   -8.0457   -5.5093 N.am    1  UNL1       -0.3040
      8 C         -19.1041   -8.6581   -6.8069 C.2     1  UNL1        0.2456
      9 O         -18.3475   -9.6086   -7.1404 O.2     1  UNL1       -0.2702
     10 H         -19.7481   -7.3718   -5.2444 H       1  UNL1        0.1496
     11 C         -18.3101   -7.8792   -3.1356 C.3     1  UNL1        0.0196
     12 C         -17.8822   -8.2707   -4.5633 C.3     1  UNL1        0.0572
     13 C         -17.4388   -9.7463   -4.6054 C.3     1  UNL1        0.0196
     14 C         -16.6856   -7.3892   -4.9741 C.3     1  UNL1        0.0196
     15 C         -21.9742   -9.3554   -6.3655 C.3     1  UNL1        0.1651
     16 O         -21.7292   -8.6074   -5.2066 O.3     1  UNL1       -0.3772
     17 H         -20.7662   -8.7196   -4.9933 H       1  UNL1        0.2109
     18 N         -23.8487   -8.4715   -8.4139 N.pl3   1  UNL1       -0.2122
     19 H         -24.4402   -7.9649   -7.7183 H       1  UNL1        0.1738
     20 S         -24.4029  -10.0099   -8.9841 S.O2    1  UNL1        0.0745
     21 O         -25.8708   -9.9379   -9.2984 O.2     1  UNL1       -0.1499
     22 O         -24.2121  -11.0449   -7.9115 O.2     1  UNL1       -0.1499
     23 C         -23.4934  -10.4416  -10.4383 C.ar    1  UNL1        0.1356
     24 C         -22.1246  -10.7211  -10.3126 C.ar    1  UNL1        0.0207
     25 C         -21.3790  -11.1380  -11.4160 C.ar    1  UNL1       -0.0028
     26 C         -21.9950  -11.3038  -12.6624 C.ar    1  UNL1       -0.0216
     27 C         -23.3570  -11.0032  -12.8021 C.ar    1  UNL1        0.0085
     28 C         -24.1130  -10.5888  -11.6990 C.ar    1  UNL1        0.0762
     29 CL        -25.8341  -10.3114  -11.9433 Cl      1  UNL1       -0.0809
     30 C         -21.1840  -11.7325  -13.8551 C.3     1  UNL1        0.0224
     31 C         -21.2906  -13.2123  -14.2010 C.3     1  UNL1        0.0047
     32 C         -21.9951  -12.1817  -15.0638 C.3     1  UNL1        0.0047
     33 O         -23.0333   -6.8367  -10.5070 O.3     1  UNL1       -0.4513
     34 C         -23.0952   -7.1774  -11.8632 C.ar    1  UNL1        0.1580
     35 C         -21.9051   -7.4604  -12.5409 C.ar    1  UNL1        0.0677
     36 C         -21.9295   -7.8658  -13.8781 C.ar    1  UNL1        0.1398
     37 F         -20.7654   -8.2019  -14.4896 F       1  UNL1       -0.2044
     38 C         -23.1526   -7.9612  -14.5646 C.ar    1  UNL1        0.0175
     39 C         -24.3429   -7.6329  -13.8956 C.ar    1  UNL1        0.0130
     40 C         -24.3196   -7.2347  -12.5555 C.ar    1  UNL1        0.0919
     41 CL        -25.8346   -6.8048  -11.7751 Cl      1  UNL1       -0.0791
     42 C         -23.2141   -8.5549  -15.9462 C.3     1  UNL1        0.1382
     43 C         -22.9321   -7.4742  -16.9381 C.2     1  UNL1        0.3234
     44 O         -21.7583   -7.0350  -17.0789 O.2     1  UNL1       -0.2497
     45 O         -23.9673   -7.0319  -17.7682 O.3     1  UNL1       -0.4215
     46 C         -24.5921   -5.7556  -17.6405 C.3     1  UNL1        0.3207
     47 O         -25.4674   -5.8128  -16.5285 O.3     1  UNL1       -0.3070
     48 C         -26.0629   -4.5488  -16.2916 C.3     1  UNL1        0.2456
     49 C         -26.9868   -4.1625  -17.4639 C.3     1  UNL1        0.1781
     50 O         -27.5424   -2.8935  -17.2274 O.3     1  UNL1       -0.3790
     51 C         -26.1787   -4.1404  -18.7713 C.3     1  UNL1        0.1733
     52 O         -27.0584   -3.9779  -19.8546 O.3     1  UNL1       -0.3793
     53 C         -25.3858   -5.4506  -18.9309 C.3     1  UNL1        0.2106
     54 O         -24.4975   -5.3348  -20.0131 O.3     1  UNL1       -0.3766
     55 H         -28.3540   -2.8243  -17.7949 H       1  UNL1        0.2106
     56 H         -26.5285   -3.5998  -20.6042 H       1  UNL1        0.2105
     57 H         -24.9996   -5.5880  -20.8309 H       1  UNL1        0.2107
     58 C         -26.8553   -4.6205  -15.0153 C.2     1  UNL1        0.3439
     59 O         -26.2613   -4.6592  -13.9050 O.2     1  UNL1       -0.2475
     60 O         -28.2454   -4.6946  -15.0461 O.3     1  UNL1       -0.4785
     61 H         -28.7537   -4.6931  -15.9223 H       1  UNL1        0.2951
@<TRIPOS>BOND
     1    11    12    1
     2    12    13    1
     3    12    14    1
     4    12     7    1
     5     7     8   am
     6     8     9    2
     7     8     1    1
     8     1     2   ar
     9     2     3   ar
    10     3     4   ar
    11     4    33    1
    12    33    34    1
    13    34    35   ar
    14    35    36   ar
    15    36    37    1
    16    36    38   ar
    17    38    42    1
    18    42    43    1
    19    43    44    2
    20    43    45    1
    21    45    46    1
    22    46    47    1
    23    47    48    1
    24    48    58    1
    25    58    59    2
    26    58    60    1
    27    48    49    1
    28    49    50    1
    29    49    51    1
    30    51    52    1
    31    51    53    1
    32    53    54    1
    33    38    39   ar
    34    39    40   ar
    35    40    41    1
    36     4     5   ar
    37     5    18    1
    38    18    20    1
    39    20    21    2
    40    20    22    2
    41    20    23    1
    42    23    24   ar
    43    24    25   ar
    44    25    26   ar
    45    26    30    1
    46    30    31    1
    47    31    32    1
    48    26    27   ar
    49    27    28   ar
    50    28    29    1
    51     5     6   ar
    52     6    15    1
    53    15    16    1
    54     6     1   ar
    55    40    34   ar
    56    28    23   ar
    57    53    46    1
    58    32    30    1
    59     7    10    1
    60    60    61    1
    61    50    55    1
    62    52    56    1
    63    54    57    1
    64    18    19    1
    65    16    17    1
@<TRIPOS>MOLECULE
*****
 61 65 0 0 0
SMALL
GASTEIGER

@<TRIPOS>ATOM
      1 C         -25.9493   -5.2247  -15.2583 C.ar    1  UNL1        0.0532
      2 C         -24.9570   -5.7875  -16.0689 C.ar    1  UNL1        0.0075
      3 C         -24.0801   -6.7390  -15.5598 C.ar    1  UNL1        0.0389
      4 C         -24.1727   -7.1499  -14.2211 C.ar    1  UNL1        0.1595
      5 C         -25.1719   -6.6050  -13.3961 C.ar    1  UNL1        0.0977
      6 C         -26.0762   -5.6386  -13.9072 C.ar    1  UNL1        0.0289
      7 N         -28.1666   -4.6013  -16.2944 N.am    1  UNL1       -0.3040
      8 C         -26.8461   -4.2235  -15.8649 C.2     1  UNL1        0.2456
      9 O         -26.4554   -3.0288  -15.9509 O.2     1  UNL1       -0.2702
     10 H         -28.4765   -5.5713  -16.0527 H       1  UNL1        0.1496
     11 C         -28.2882   -2.9435  -18.1286 C.3     1  UNL1        0.0196
     12 C         -29.0785   -3.7411  -17.0732 C.3     1  UNL1        0.0572
     13 C         -30.1671   -4.5965  -17.7507 C.3     1  UNL1        0.0196
     14 C         -29.7650   -2.7430  -16.1191 C.3     1  UNL1        0.0196
     15 C         -27.2289   -5.1480  -13.0512 C.3     1  UNL1        0.1651
     16 O         -26.7713   -4.8347  -11.7647 O.3     1  UNL1       -0.3772
     17 H         -26.6903   -5.6939  -11.2740 H       1  UNL1        0.2109
     18 N         -25.2658   -7.0473  -12.0365 N.pl3   1  UNL1       -0.2122
     19 H         -24.5187   -6.7732  -11.3605 H       1  UNL1        0.1738
     20 S         -26.2590   -8.4098  -11.6410 S.O2    1  UNL1        0.0745
     21 O         -27.6628   -8.1739  -12.1230 O.2     1  UNL1       -0.1499
     22 O         -26.3076   -8.5833  -10.1492 O.2     1  UNL1       -0.1499
     23 C         -25.5871   -9.8505  -12.4164 C.ar    1  UNL1        0.1356
     24 C         -25.9538  -10.1295  -13.7412 C.ar    1  UNL1        0.0207
     25 C         -25.3945  -11.2117  -14.4218 C.ar    1  UNL1       -0.0028
     26 C         -24.4405  -12.0229  -13.7953 C.ar    1  UNL1       -0.0216
     27 C         -24.0866  -11.7656  -12.4635 C.ar    1  UNL1        0.0085
     28 C         -24.6397  -10.6791  -11.7754 C.ar    1  UNL1        0.0762
     29 CL        -24.0794  -10.3781  -10.1339 Cl      1  UNL1       -0.0809
     30 C         -23.8553  -13.2020  -14.5241 C.3     1  UNL1        0.0224
     31 C         -24.7518  -14.4327  -14.5710 C.3     1  UNL1        0.0047
     32 C         -24.5666  -13.5847  -15.8157 C.3     1  UNL1        0.0047
     33 O         -23.3198   -8.1350  -13.6942 O.3     1  UNL1       -0.4513
     34 C         -22.4335   -7.9322  -12.6300 C.ar    1  UNL1        0.1580
     35 C         -22.4805   -6.7183  -11.9372 C.ar    1  UNL1        0.0677
     36 C         -21.6564   -6.5014  -10.8295 C.ar    1  UNL1        0.1398
     37 F         -21.7734   -5.3419  -10.1340 F       1  UNL1       -0.2044
     38 C         -20.7472   -7.4930  -10.4212 C.ar    1  UNL1        0.0175
     39 C         -20.6695   -8.6935  -11.1454 C.ar    1  UNL1        0.0130
     40 C         -21.4993   -8.9140  -12.2491 C.ar    1  UNL1        0.0919
     41 CL        -21.3391  -10.4209  -13.1392 Cl      1  UNL1       -0.0791
     42 C         -19.9760   -7.3464   -9.1371 C.3     1  UNL1        0.1382
     43 C         -20.6514   -8.1630   -8.0842 C.2     1  UNL1        0.3234
     44 O         -21.9008   -8.3310   -8.1184 O.2     1  UNL1       -0.2497
     45 O         -19.8667   -8.8117   -7.1252 O.3     1  UNL1       -0.4215
     46 C         -19.4601   -8.2089   -5.8976 C.3     1  UNL1        0.3207
     47 O         -18.0660   -8.4148   -5.7566 O.3     1  UNL1       -0.3070
     48 C         -17.5771   -7.7681   -4.5942 C.3     1  UNL1        0.2456
     49 C         -18.1718   -8.4173   -3.3285 C.3     1  UNL1        0.1781
     50 O         -17.7022   -7.7433   -2.1883 O.3     1  UNL1       -0.3790
     51 C         -19.7061   -8.3406   -3.3823 C.3     1  UNL1        0.1733
     52 O         -20.2431   -9.0985   -2.3283 O.3     1  UNL1       -0.3793
     53 C         -20.2204   -8.8779   -4.7304 C.3     1  UNL1        0.2106
     54 O         -21.5946   -8.6116   -4.8503 O.3     1  UNL1       -0.3766
     55 H         -17.8171   -8.3619   -1.4204 H       1  UNL1        0.2106
     56 H         -21.1548   -8.7469   -2.1534 H       1  UNL1        0.2105
     57 H         -22.0761   -9.3623   -4.4149 H       1  UNL1        0.2107
     58 C         -16.0775   -7.8820   -4.5735 C.2     1  UNL1        0.3439
     59 O         -15.5185   -8.7193   -3.8161 O.2     1  UNL1       -0.2475
     60 O         -15.2906   -7.0349   -5.3493 O.3     1  UNL1       -0.4785
     61 H         -15.7062   -6.3322   -5.9491 H       1  UNL1        0.2951
@<TRIPOS>BOND
     1    11    12    1
     2    12    13    1
     3    12    14    1
     4    12     7    1
     5     7     8   am
     6     8     9    2
     7     8     1    1
     8     1     2   ar
     9     2     3   ar
    10     3     4   ar
    11     4    33    1
    12    33    34    1
    13    34    35   ar
    14    35    36   ar
    15    36    37    1
    16    36    38   ar
    17    38    42    1
    18    42    43    1
    19    43    44    2
    20    43    45    1
    21    45    46    1
    22    46    47    1
    23    47    48    1
    24    48    58    1
    25    58    59    2
    26    58    60    1
    27    48    49    1
    28    49    50    1
    29    49    51    1
    30    51    52    1
    31    51    53    1
    32    53    54    1
    33    38    39   ar
    34    39    40   ar
    35    40    41    1
    36     4     5   ar
    37     5    18    1
    38    18    20    1
    39    20    21    2
    40    20    22    2
    41    20    23    1
    42    23    24   ar
    43    24    25   ar
    44    25    26   ar
    45    26    30    1
    46    30    31    1
    47    31    32    1
    48    26    27   ar
    49    27    28   ar
    50    28    29    1
    51     5     6   ar
    52     6    15    1
    53    15    16    1
    54     6     1   ar
    55    40    34   ar
    56    28    23   ar
    57    53    46    1
    58    32    30    1
    59     7    10    1
    60    60    61    1
    61    50    55    1
    62    52    56    1
    63    54    57    1
    64    18    19    1
    65    16    17    1
