@<TRIPOS>MOLECULE
*****
 47 52 0 0 0
SMALL
GASTEIGER

@<TRIPOS>ATOM
      1 C           5.7934   77.5179   20.5415 C.ar    1  UNL1        0.1318
      2 C           6.6805   78.1515   19.6546 C.ar    1  UNL1        0.0356
      3 C           7.9159   78.6045   20.1205 C.ar    1  UNL1        0.0191
      4 C           8.2817   78.4106   21.4578 C.ar    1  UNL1        0.0702
      5 C           7.3707   77.7724   22.3137 C.ar    1  UNL1        0.1149
      6 N           6.1690   77.3521   21.8409 N.ar    1  UNL1       -0.2279
      7 C           3.0710   74.6471   19.8150 C.3     1  UNL1        0.0472
      8 C           2.3793   75.8178   20.5540 C.3     1  UNL1        0.0252
      9 C           3.4035   76.8440   21.0768 C.3     1  UNL1        0.0923
     10 N           4.4911   77.0649   20.1078 N.pl3   1  UNL1       -0.2932
     11 C           4.2699   76.6559   18.7153 C.3     1  UNL1        0.0923
     12 C           3.9808   75.1511   18.6542 C.3     1  UNL1        0.0252
     13 C           3.8148   73.7370   20.8181 C.3     1  UNL1        0.2054
     14 O           5.2196   73.7060   20.5494 O.3     1  UNL1       -0.4755
     15 C           6.8994   74.3091   23.7963 C.ar    1  UNL1        0.0379
     16 C           5.9250   74.0397   22.8179 C.ar    1  UNL1        0.0397
     17 C           6.2568   73.9829   21.4604 C.ar    1  UNL1        0.1388
     18 C           7.5952   74.1936   21.0716 C.ar    1  UNL1        0.0433
     19 C           8.5789   74.4916   22.0277 C.ar    1  UNL1        0.0786
     20 C           8.2253   74.5343   23.3859 C.ar    1  UNL1        0.0095
     21 C           9.9808   74.7489   21.6197 C.2     1  UNL1        0.3381
     22 O          10.8555   73.8576   21.7850 O.2     1  UNL1       -0.2451
     23 O          10.3688   75.9721   21.0752 O.3     1  UNL1       -0.4771
     24 H           9.7355   76.7576   20.9971 H       1  UNL1        0.2954
     25 C           6.3512   75.6650   25.9621 C.3     1  UNL1        0.0773
     26 C           6.5481   74.3643   25.2421 C.2     1  UNL1        0.1736
     27 O           6.4084   73.2935   25.8940 O.2     1  UNL1       -0.2913
     28 N           9.5374   78.9228   21.9357 N.am    1  UNL1       -0.2766
     29 C          10.1380   78.5306   23.1782 C.2     1  UNL1        0.2839
     30 O           9.9353   77.3747   23.6379 O.2     1  UNL1       -0.2665
     31 H          10.0811   79.5594   21.3110 H       1  UNL1        0.1553
     32 C          11.0566   79.4301   23.8975 C.ar    1  UNL1        0.1946
     33 O          12.3283   79.1316   24.0982 O.2     1  UNL1       -0.4492
     34 C          12.8764   80.1252   24.7538 C.ar    1  UNL1        0.1452
     35 C          14.1994   80.2377   25.1672 C.ar    1  UNL1        0.0375
     36 C          14.5778   81.4016   25.8591 C.ar    1  UNL1        0.0031
     37 C          13.6337   82.4301   26.1262 C.ar    1  UNL1        0.0002
     38 C          12.2963   82.2744   25.6890 C.ar    1  UNL1        0.0028
     39 C          11.9567   81.1065   25.0060 C.ar    1  UNL1        0.0337
     40 C          10.7597   80.6721   24.4723 C.ar    1  UNL1        0.0202
     41 C           9.4440   81.3889   24.5169 C.3     1  UNL1        0.0345
     42 C          14.0448   83.6557   26.8570 C.ar    1  UNL1        0.0000
     43 C          14.1482   84.8888   26.1856 C.ar    1  UNL1        0.0000
     44 C          14.5345   86.0414   26.8767 C.ar    1  UNL1        0.0000
     45 C          14.8223   85.9770   28.2418 C.ar    1  UNL1        0.0000
     46 C          14.7236   84.7597   28.9192 C.ar    1  UNL1        0.0000
     47 C          14.3369   83.6042   28.2335 C.ar    1  UNL1        0.0000
@<TRIPOS>BOND
     1    25    26    1
     2    26    27    2
     3    26    15    1
     4    15    16   ar
     5    16    17   ar
     6    17    14    1
     7    14    13    1
     8    13     7    1
     9     7     8    1
    10     8     9    1
    11     9    10    1
    12    10     1    1
    13     1     2   ar
    14     2     3   ar
    15     3     4   ar
    16     4    28    1
    17    28    29   am
    18    29    30    2
    19    29    32    1
    20    32    33   ar
    21    33    34   ar
    22    34    35   ar
    23    35    36   ar
    24    36    37   ar
    25    37    42    1
    26    42    43   ar
    27    43    44   ar
    28    44    45   ar
    29    45    46   ar
    30    46    47   ar
    31    37    38   ar
    32    38    39   ar
    33    39    40   ar
    34    40    41    1
    35     4     5   ar
    36     5     6   ar
    37    10    11    1
    38    11    12    1
    39    17    18   ar
    40    18    19   ar
    41    19    21    1
    42    21    22    2
    43    21    23    1
    44    19    20   ar
    45    20    15   ar
    46    12     7    1
    47     6     1   ar
    48    40    32   ar
    49    39    34   ar
    50    47    42   ar
    51    28    31    1
    52    23    24    1
@<TRIPOS>MOLECULE
*****
 47 52 0 0 0
SMALL
GASTEIGER

@<TRIPOS>ATOM
      1 C           5.9155   77.3267   20.7131 C.ar    1  UNL1        0.1318
      2 C           6.7657   77.9900   19.8121 C.ar    1  UNL1        0.0356
      3 C           7.9938   78.4823   20.2571 C.ar    1  UNL1        0.0191
      4 C           8.3893   78.2984   21.5873 C.ar    1  UNL1        0.0702
      5 C           7.5147   77.6297   22.4579 C.ar    1  UNL1        0.1149
      6 N           6.3191   77.1712   22.0054 N.ar    1  UNL1       -0.2279
      7 C           3.3187   74.3645   19.8986 C.3     1  UNL1        0.0472
      8 C           2.5994   75.4427   20.7441 C.3     1  UNL1        0.0252
      9 C           3.5900   76.4867   21.2956 C.3     1  UNL1        0.0923
     10 N           4.6211   76.8322   20.3015 N.pl3   1  UNL1       -0.2932
     11 C           4.3610   76.5061   18.8940 C.3     1  UNL1        0.0923
     12 C           4.1491   74.9951   18.7401 C.3     1  UNL1        0.0252
     13 C           4.1526   73.4317   20.8055 C.3     1  UNL1        0.2054
     14 O           5.5528   73.6937   20.6735 O.3     1  UNL1       -0.4755
     15 C           8.8188   74.1360   22.3663 C.ar    1  UNL1        0.0379
     16 C           7.8308   73.9406   21.3839 C.ar    1  UNL1        0.0397
     17 C           6.4740   73.8913   21.7197 C.ar    1  UNL1        0.1388
     18 C           6.0946   74.0476   23.0683 C.ar    1  UNL1        0.0433
     19 C           7.0646   74.2157   24.0690 C.ar    1  UNL1        0.0786
     20 C           8.4204   74.2717   23.7080 C.ar    1  UNL1        0.0095
     21 C           6.6721   74.3450   25.4927 C.2     1  UNL1        0.3381
     22 O           6.3519   73.3195   26.1505 O.2     1  UNL1       -0.2451
     23 O           6.6222   75.5863   26.1253 O.3     1  UNL1       -0.4771
     24 H           6.7823   76.4549   25.6311 H       1  UNL1        0.2954
     25 C          11.2279   73.1252   22.4274 C.3     1  UNL1        0.0773
     26 C          10.2630   74.1942   22.0091 C.2     1  UNL1        0.1736
     27 O          10.7026   75.1653   21.3347 O.2     1  UNL1       -0.2913
     28 N           9.6360   78.8503   22.0441 N.am    1  UNL1       -0.2766
     29 C          10.2722   78.4740   23.2737 C.2     1  UNL1        0.2839
     30 O          10.1165   77.3103   23.7323 O.2     1  UNL1       -0.2665
     31 H          10.1465   79.5069   21.4122 H       1  UNL1        0.1553
     32 C          11.1736   79.4009   23.9797 C.ar    1  UNL1        0.1946
     33 O          12.4543   79.1365   24.1704 O.2     1  UNL1       -0.4492
     34 C          12.9824   80.1477   24.8155 C.ar    1  UNL1        0.1452
     35 C          14.3057   80.2967   25.2162 C.ar    1  UNL1        0.0375
     36 C          14.6600   81.4740   25.8983 C.ar    1  UNL1        0.0031
     37 C          13.6921   82.4793   26.1682 C.ar    1  UNL1        0.0002
     38 C          12.3554   82.2865   25.7441 C.ar    1  UNL1        0.0028
     39 C          12.0399   81.1063   25.0706 C.ar    1  UNL1        0.0337
     40 C          10.8499   80.6382   24.5503 C.ar    1  UNL1        0.0202
     41 C           9.5165   81.3210   24.6029 C.3     1  UNL1        0.0345
     42 C          14.0779   83.7192   26.8886 C.ar    1  UNL1        0.0000
     43 C          14.3798   83.6840   28.2633 C.ar    1  UNL1        0.0000
     44 C          14.7437   84.8531   28.9387 C.ar    1  UNL1        0.0000
     45 C          14.8098   86.0676   28.2523 C.ar    1  UNL1        0.0000
     46 C          14.5125   86.1157   26.8886 C.ar    1  UNL1        0.0000
     47 C          14.1489   84.9498   26.2079 C.ar    1  UNL1        0.0000
@<TRIPOS>BOND
     1    25    26    1
     2    26    27    2
     3    26    15    1
     4    15    16   ar
     5    16    17   ar
     6    17    14    1
     7    14    13    1
     8    13     7    1
     9     7     8    1
    10     8     9    1
    11     9    10    1
    12    10     1    1
    13     1     2   ar
    14     2     3   ar
    15     3     4   ar
    16     4    28    1
    17    28    29   am
    18    29    30    2
    19    29    32    1
    20    32    33   ar
    21    33    34   ar
    22    34    35   ar
    23    35    36   ar
    24    36    37   ar
    25    37    42    1
    26    42    43   ar
    27    43    44   ar
    28    44    45   ar
    29    45    46   ar
    30    46    47   ar
    31    37    38   ar
    32    38    39   ar
    33    39    40   ar
    34    40    41    1
    35     4     5   ar
    36     5     6   ar
    37    10    11    1
    38    11    12    1
    39    17    18   ar
    40    18    19   ar
    41    19    21    1
    42    21    22    2
    43    21    23    1
    44    19    20   ar
    45    20    15   ar
    46    12     7    1
    47     6     1   ar
    48    40    32   ar
    49    39    34   ar
    50    47    42   ar
    51    28    31    1
    52    23    24    1
@<TRIPOS>MOLECULE
*****
 47 52 0 0 0
SMALL
GASTEIGER

@<TRIPOS>ATOM
      1 C           6.7888   75.7442   20.3284 C.ar    1  UNL1        0.1318
      2 C           6.9029   77.1415   20.4253 C.ar    1  UNL1        0.0356
      3 C           8.0454   77.7025   20.9985 C.ar    1  UNL1        0.0191
      4 C           9.0835   76.8817   21.4549 C.ar    1  UNL1        0.0702
      5 C           8.9350   75.4908   21.3401 C.ar    1  UNL1        0.1149
      6 N           7.8084   74.9674   20.7910 N.ar    1  UNL1       -0.2279
      7 C           2.9199   74.6538   20.4825 C.3     1  UNL1        0.0472
      8 C           3.2151   75.2574   19.0884 C.3     1  UNL1        0.0252
      9 C           4.6080   75.9151   19.0372 C.3     1  UNL1        0.0923
     10 N           5.6081   75.1222   19.7733 N.pl3   1  UNL1       -0.2932
     11 C           5.2947   73.7192   20.0713 C.3     1  UNL1        0.0923
     12 C           4.0195   73.6393   20.9193 C.3     1  UNL1        0.0252
     13 C           2.6817   75.7748   21.5191 C.3     1  UNL1        0.2054
     14 O           3.9159   76.3580   21.9471 O.3     1  UNL1       -0.4755
     15 C           4.4306   76.6301   25.6063 C.ar    1  UNL1        0.0379
     16 C           3.8859   76.7463   24.3143 C.ar    1  UNL1        0.0397
     17 C           4.5321   76.1961   23.2027 C.ar    1  UNL1        0.1388
     18 C           5.7482   75.5073   23.3870 C.ar    1  UNL1        0.0433
     19 C           6.3244   75.4031   24.6628 C.ar    1  UNL1        0.0786
     20 C           5.6535   75.9548   25.7661 C.ar    1  UNL1        0.0095
     21 C           7.6208   74.7103   24.8559 C.2     1  UNL1        0.3381
     22 O           7.9179   73.7228   24.1325 O.2     1  UNL1       -0.2451
     23 O           8.5204   75.1090   25.8434 O.3     1  UNL1       -0.4771
     24 H           8.3052   75.8370   26.5129 H       1  UNL1        0.2954
     25 C           4.3699   77.2169   28.1521 C.3     1  UNL1        0.0773
     26 C           3.7405   77.2107   26.7909 C.2     1  UNL1        0.1736
     27 O           2.5922   77.7164   26.6613 O.2     1  UNL1       -0.2913
     28 N          10.2343   77.4701   22.0849 N.am    1  UNL1       -0.2766
     29 C          10.3501   77.6784   23.4996 C.2     1  UNL1        0.2839
     30 O           9.7650   76.9004   24.3002 O.2     1  UNL1       -0.2665
     31 H          11.0642   77.6907   21.4902 H       1  UNL1        0.1553
     32 C          11.2076   78.7451   24.0448 C.ar    1  UNL1        0.1946
     33 O          12.4858   78.5549   24.3213 O.2     1  UNL1       -0.4492
     34 C          12.9707   79.6830   24.7793 C.ar    1  UNL1        0.1452
     35 C          14.2759   79.9395   25.1850 C.ar    1  UNL1        0.0375
     36 C          14.5826   81.2330   25.6426 C.ar    1  UNL1        0.0031
     37 C          13.5860   82.2455   25.6876 C.ar    1  UNL1        0.0002
     38 C          12.2690   81.9414   25.2668 C.ar    1  UNL1        0.0028
     39 C          12.0010   80.6476   24.8194 C.ar    1  UNL1        0.0337
     40 C          10.8394   80.0588   24.3608 C.ar    1  UNL1        0.0202
     41 C           9.4917   80.7041   24.2423 C.3     1  UNL1        0.0345
     42 C          13.9215   83.6086   26.1718 C.ar    1  UNL1        0.0000
     43 C          14.0216   84.6845   25.2692 C.ar    1  UNL1        0.0000
     44 C          14.3367   85.9672   25.7282 C.ar    1  UNL1        0.0000
     45 C          14.5558   86.1905   27.0893 C.ar    1  UNL1        0.0000
     46 C          14.4598   85.1316   27.9947 C.ar    1  UNL1        0.0000
     47 C          14.1441   83.8470   27.5415 C.ar    1  UNL1        0.0000
@<TRIPOS>BOND
     1    25    26    1
     2    26    27    2
     3    26    15    1
     4    15    16   ar
     5    16    17   ar
     6    17    14    1
     7    14    13    1
     8    13     7    1
     9     7     8    1
    10     8     9    1
    11     9    10    1
    12    10     1    1
    13     1     2   ar
    14     2     3   ar
    15     3     4   ar
    16     4    28    1
    17    28    29   am
    18    29    30    2
    19    29    32    1
    20    32    33   ar
    21    33    34   ar
    22    34    35   ar
    23    35    36   ar
    24    36    37   ar
    25    37    42    1
    26    42    43   ar
    27    43    44   ar
    28    44    45   ar
    29    45    46   ar
    30    46    47   ar
    31    37    38   ar
    32    38    39   ar
    33    39    40   ar
    34    40    41    1
    35     4     5   ar
    36     5     6   ar
    37    10    11    1
    38    11    12    1
    39    17    18   ar
    40    18    19   ar
    41    19    21    1
    42    21    22    2
    43    21    23    1
    44    19    20   ar
    45    20    15   ar
    46    12     7    1
    47     6     1   ar
    48    40    32   ar
    49    39    34   ar
    50    47    42   ar
    51    28    31    1
    52    23    24    1
@<TRIPOS>MOLECULE
*****
 47 52 0 0 0
SMALL
GASTEIGER

@<TRIPOS>ATOM
      1 C           6.6213   75.5918   20.3354 C.ar    1  UNL1        0.1318
      2 C           7.6216   74.7978   20.9219 C.ar    1  UNL1        0.0356
      3 C           8.7363   75.4077   21.4999 C.ar    1  UNL1        0.0191
      4 C           8.8496   76.8029   21.5169 C.ar    1  UNL1        0.0702
      5 C           7.8302   77.5632   20.9231 C.ar    1  UNL1        0.1149
      6 N           6.7616   76.9471   20.3550 N.ar    1  UNL1       -0.2279
      7 C           2.6766   74.8530   20.0618 C.3     1  UNL1        0.0472
      8 C           3.2128   75.2359   18.6615 C.3     1  UNL1        0.0252
      9 C           4.6590   75.7642   18.7316 C.3     1  UNL1        0.0923
     10 N           5.4683   74.9991   19.6962 N.pl3   1  UNL1       -0.2932
     11 C           4.9795   73.6799   20.1158 C.3     1  UNL1        0.0923
     12 C           3.6016   73.8204   20.7741 C.3     1  UNL1        0.0252
     13 C           2.4164   76.1198   20.9075 C.3     1  UNL1        0.2054
     14 O           3.6221   76.5996   21.5099 O.3     1  UNL1       -0.4755
     15 C           5.5434   75.5678   24.5053 C.ar    1  UNL1        0.0379
     16 C           5.1100   75.7248   23.1760 C.ar    1  UNL1        0.0397
     17 C           3.9843   76.4948   22.8664 C.ar    1  UNL1        0.1388
     18 C           3.2784   77.1287   23.9090 C.ar    1  UNL1        0.0433
     19 C           3.6758   76.9633   25.2452 C.ar    1  UNL1        0.0786
     20 C           4.8147   76.1936   25.5322 C.ar    1  UNL1        0.0095
     21 C           2.9155   77.5992   26.3476 C.2     1  UNL1        0.3381
     22 O           3.3472   77.5290   27.5290 O.2     1  UNL1       -0.2451
     23 O           1.7095   78.2588   26.1157 O.3     1  UNL1       -0.4771
     24 H           1.2654   78.2757   25.2064 H       1  UNL1        0.2954
     25 C           7.0049   73.4246   24.1896 C.3     1  UNL1        0.0773
     26 C           6.7449   74.7529   24.8353 C.2     1  UNL1        0.1736
     27 O           7.5780   75.1794   25.6809 O.2     1  UNL1       -0.2913
     28 N          10.0244   77.4167   22.0743 N.am    1  UNL1       -0.2766
     29 C          10.2255   77.6247   23.4795 C.2     1  UNL1        0.2839
     30 O           9.7109   76.8316   24.3130 O.2     1  UNL1       -0.2665
     31 H          10.8093   77.6578   21.4287 H       1  UNL1        0.1553
     32 C          11.0911   78.7100   23.9726 C.ar    1  UNL1        0.1946
     33 O          12.3521   78.5109   24.3143 O.2     1  UNL1       -0.4492
     34 C          12.8506   79.6597   24.7008 C.ar    1  UNL1        0.1452
     35 C          14.1460   79.9153   25.1370 C.ar    1  UNL1        0.0375
     36 C          14.4712   81.2333   25.5029 C.ar    1  UNL1        0.0031
     37 C          13.5022   82.2705   25.4278 C.ar    1  UNL1        0.0002
     38 C          12.1942   81.9665   24.9800 C.ar    1  UNL1        0.0028
     39 C          11.9073   80.6481   24.6258 C.ar    1  UNL1        0.0337
     40 C          10.7480   80.0535   24.1689 C.ar    1  UNL1        0.0202
     41 C           9.4243   80.7205   23.9460 C.3     1  UNL1        0.0345
     42 C          13.8571   83.6593   25.8159 C.ar    1  UNL1        0.0000
     43 C          13.9790   84.6664   24.8397 C.ar    1  UNL1        0.0000
     44 C          14.3122   85.9735   25.2083 C.ar    1  UNL1        0.0000
     45 C          14.5279   86.2897   26.5514 C.ar    1  UNL1        0.0000
     46 C          14.4102   85.2996   27.5292 C.ar    1  UNL1        0.0000
     47 C          14.0763   83.9912   27.1666 C.ar    1  UNL1        0.0000
@<TRIPOS>BOND
     1    25    26    1
     2    26    27    2
     3    26    15    1
     4    15    16   ar
     5    16    17   ar
     6    17    14    1
     7    14    13    1
     8    13     7    1
     9     7     8    1
    10     8     9    1
    11     9    10    1
    12    10     1    1
    13     1     2   ar
    14     2     3   ar
    15     3     4   ar
    16     4    28    1
    17    28    29   am
    18    29    30    2
    19    29    32    1
    20    32    33   ar
    21    33    34   ar
    22    34    35   ar
    23    35    36   ar
    24    36    37   ar
    25    37    42    1
    26    42    43   ar
    27    43    44   ar
    28    44    45   ar
    29    45    46   ar
    30    46    47   ar
    31    37    38   ar
    32    38    39   ar
    33    39    40   ar
    34    40    41    1
    35     4     5   ar
    36     5     6   ar
    37    10    11    1
    38    11    12    1
    39    17    18   ar
    40    18    19   ar
    41    19    21    1
    42    21    22    2
    43    21    23    1
    44    19    20   ar
    45    20    15   ar
    46    12     7    1
    47     6     1   ar
    48    40    32   ar
    49    39    34   ar
    50    47    42   ar
    51    28    31    1
    52    23    24    1
@<TRIPOS>MOLECULE
*****
 47 52 0 0 0
SMALL
GASTEIGER

@<TRIPOS>ATOM
      1 C           4.7434   75.0903   22.1224 C.ar    1  UNL1        0.1318
      2 C           5.8503   74.3160   22.5102 C.ar    1  UNL1        0.0356
      3 C           6.5519   74.6477   23.6705 C.ar    1  UNL1        0.0191
      4 C           6.1446   75.7312   24.4578 C.ar    1  UNL1        0.0702
      5 C           5.0337   76.4804   24.0400 C.ar    1  UNL1        0.1149
      6 N           4.3748   76.1468   22.9002 N.ar    1  UNL1       -0.2279
      7 C           3.0174   76.1661   18.6519 C.3     1  UNL1        0.0472
      8 C           3.8346   74.8716   18.4247 C.3     1  UNL1        0.0252
      9 C           4.7147   74.5339   19.6441 C.3     1  UNL1        0.0923
     10 N           4.0107   74.8018   20.9103 N.pl3   1  UNL1       -0.2932
     11 C           2.5489   74.9318   20.8743 C.3     1  UNL1        0.0923
     12 C           2.1514   76.0852   19.9452 C.3     1  UNL1        0.0252
     13 C           3.9418   77.4038   18.6164 C.3     1  UNL1        0.2054
     14 O           4.6756   77.5399   19.8370 O.3     1  UNL1       -0.4755
     15 C           7.9973   77.9361   21.4299 C.ar    1  UNL1        0.0379
     16 C           6.6382   77.6446   21.2126 C.ar    1  UNL1        0.0397
     17 C           6.0403   77.8607   19.9668 C.ar    1  UNL1        0.1388
     18 C           6.8204   78.3740   18.9109 C.ar    1  UNL1        0.0433
     19 C           8.1713   78.6985   19.1123 C.ar    1  UNL1        0.0786
     20 C           8.7534   78.4644   20.3685 C.ar    1  UNL1        0.0095
     21 C           8.9862   79.2716   18.0145 C.2     1  UNL1        0.3381
     22 O           8.5946   80.3106   17.4195 O.2     1  UNL1       -0.2451
     23 O          10.1749   78.6729   17.5998 O.3     1  UNL1       -0.4771
     24 H          10.4995   77.7912   17.9762 H       1  UNL1        0.2954
     25 C           9.8736   76.8673   22.9017 C.3     1  UNL1        0.0773
     26 C           8.6359   77.7012   22.7541 C.2     1  UNL1        0.1736
     27 O           8.1327   78.2124   23.7916 O.2     1  UNL1       -0.2913
     28 N           6.9033   76.0901   25.6253 N.am    1  UNL1       -0.2766
     29 C           6.3142   76.5608   26.8459 C.2     1  UNL1        0.2839
     30 O           5.1604   76.1765   27.1769 O.2     1  UNL1       -0.2665
     31 H           7.9353   75.9294   25.6125 H       1  UNL1        0.1553
     32 C           7.0646   77.4311   27.7677 C.ar    1  UNL1        0.1946
     33 O           8.3551   77.2695   28.0022 O.2     1  UNL1       -0.4492
     34 C           8.7289   78.1948   28.8517 C.ar    1  UNL1        0.1452
     35 C          10.0031   78.4035   29.3681 C.ar    1  UNL1        0.0375
     36 C          10.1835   79.4666   30.2703 C.ar    1  UNL1        0.0031
     37 C           9.0939   80.3007   30.6411 C.ar    1  UNL1        0.0002
     38 C           7.8126   80.0521   30.0931 C.ar    1  UNL1        0.0028
     39 C           7.6707   78.9886   29.2016 C.ar    1  UNL1        0.0337
     40 C           6.5714   78.5034   28.5215 C.ar    1  UNL1        0.0202
     41 C           5.1679   79.0242   28.5955 C.3     1  UNL1        0.0345
     42 C           9.2963   81.4213   31.5942 C.ar    1  UNL1        0.0000
     43 C           9.7527   82.6735   31.1404 C.ar    1  UNL1        0.0000
     44 C           9.9413   83.7272   32.0401 C.ar    1  UNL1        0.0000
     45 C           9.6783   83.5439   33.3994 C.ar    1  UNL1        0.0000
     46 C           9.2253   82.3065   33.8621 C.ar    1  UNL1        0.0000
     47 C           9.0341   81.2497   32.9669 C.ar    1  UNL1        0.0000
@<TRIPOS>BOND
     1    25    26    1
     2    26    27    2
     3    26    15    1
     4    15    16   ar
     5    16    17   ar
     6    17    14    1
     7    14    13    1
     8    13     7    1
     9     7     8    1
    10     8     9    1
    11     9    10    1
    12    10     1    1
    13     1     2   ar
    14     2     3   ar
    15     3     4   ar
    16     4    28    1
    17    28    29   am
    18    29    30    2
    19    29    32    1
    20    32    33   ar
    21    33    34   ar
    22    34    35   ar
    23    35    36   ar
    24    36    37   ar
    25    37    42    1
    26    42    43   ar
    27    43    44   ar
    28    44    45   ar
    29    45    46   ar
    30    46    47   ar
    31    37    38   ar
    32    38    39   ar
    33    39    40   ar
    34    40    41    1
    35     4     5   ar
    36     5     6   ar
    37    10    11    1
    38    11    12    1
    39    17    18   ar
    40    18    19   ar
    41    19    21    1
    42    21    22    2
    43    21    23    1
    44    19    20   ar
    45    20    15   ar
    46    12     7    1
    47     6     1   ar
    48    40    32   ar
    49    39    34   ar
    50    47    42   ar
    51    28    31    1
    52    23    24    1
@<TRIPOS>MOLECULE
*****
 47 52 0 0 0
SMALL
GASTEIGER

@<TRIPOS>ATOM
      1 C          12.4353   76.7226   24.1612 C.ar    1  UNL1        0.1318
      2 C          12.0600   76.5869   22.8137 C.ar    1  UNL1        0.0356
      3 C          10.7874   76.1090   22.4967 C.ar    1  UNL1        0.0191
      4 C           9.8796   75.7869   23.5125 C.ar    1  UNL1        0.0702
      5 C          10.2890   75.9368   24.8466 C.ar    1  UNL1        0.1149
      6 N          11.5370   76.3910   25.1308 N.ar    1  UNL1       -0.2279
      7 C          15.1344   79.6119   24.9012 C.3     1  UNL1        0.0472
      8 C          15.2330   78.5382   26.0113 C.3     1  UNL1        0.0252
      9 C          14.0726   77.5272   25.9288 C.3     1  UNL1        0.0923
     10 N          13.7549   77.1810   24.5324 N.pl3   1  UNL1       -0.2932
     11 C          14.7604   77.4704   23.5026 C.3     1  UNL1        0.0923
     12 C          15.0664   78.9729   23.4813 C.3     1  UNL1        0.0252
     13 C          13.9658   80.5816   25.1874 C.3     1  UNL1        0.2054
     14 O          12.9633   80.5023   24.1698 O.3     1  UNL1       -0.4755
     15 C           9.8847   79.3513   25.8801 C.ar    1  UNL1        0.0379
     16 C          11.1961   79.7950   25.6298 C.ar    1  UNL1        0.0397
     17 C          11.6359   80.0608   24.3291 C.ar    1  UNL1        0.1388
     18 C          10.7422   79.8857   23.2531 C.ar    1  UNL1        0.0433
     19 C           9.4378   79.4172   23.4763 C.ar    1  UNL1        0.0786
     20 C           9.0145   79.1658   24.7913 C.ar    1  UNL1        0.0095
     21 C           8.5059   79.1979   22.3443 C.2     1  UNL1        0.3381
     22 O           8.3468   80.0998   21.4794 O.2     1  UNL1       -0.2451
     23 O           7.7729   78.0185   22.2215 O.3     1  UNL1       -0.4771
     24 H           7.7889   77.2927   22.9267 H       1  UNL1        0.2954
     25 C          10.1685   78.1693   28.1934 C.3     1  UNL1        0.0773
     26 C           9.4139   79.0734   27.2650 C.2     1  UNL1        0.1736
     27 O           8.3507   79.6073   27.6840 O.2     1  UNL1       -0.2913
     28 N           8.5886   75.2523   23.1730 N.am    1  UNL1       -0.2766
     29 C           8.1227   75.0872   21.8261 C.2     1  UNL1        0.2839
     30 O           8.9458   74.8613   20.8987 O.2     1  UNL1       -0.2665
     31 H           7.9837   74.8938   23.9454 H       1  UNL1        0.1553
     32 C           6.6836   75.0998   21.5111 C.ar    1  UNL1        0.1946
     33 O           5.8705   76.0448   21.9495 O.2     1  UNL1       -0.4492
     34 C           4.6684   75.7829   21.4979 C.ar    1  UNL1        0.1452
     35 C           3.5075   76.5193   21.7073 C.ar    1  UNL1        0.0375
     36 C           2.3169   76.0552   21.1211 C.ar    1  UNL1        0.0031
     37 C           2.3040   74.8686   20.3387 C.ar    1  UNL1        0.0002
     38 C           3.5081   74.1480   20.1522 C.ar    1  UNL1        0.0028
     39 C           4.6700   74.6378   20.7489 C.ar    1  UNL1        0.0337
     40 C           5.9670   74.1646   20.7541 C.ar    1  UNL1        0.0202
     41 C           6.4706   72.9177   20.0919 C.3     1  UNL1        0.0345
     42 C           1.0408   74.3883   19.7235 C.ar    1  UNL1        0.0000
     43 C           0.1457   75.2955   19.1251 C.ar    1  UNL1        0.0000
     44 C          -1.0427   74.8401   18.5457 C.ar    1  UNL1        0.0000
     45 C          -1.3512   73.4781   18.5572 C.ar    1  UNL1        0.0000
     46 C          -0.4717   72.5681   19.1478 C.ar    1  UNL1        0.0000
     47 C           0.7184   73.0176   19.7279 C.ar    1  UNL1        0.0000
@<TRIPOS>BOND
     1    25    26    1
     2    26    27    2
     3    26    15    1
     4    15    16   ar
     5    16    17   ar
     6    17    14    1
     7    14    13    1
     8    13     7    1
     9     7     8    1
    10     8     9    1
    11     9    10    1
    12    10     1    1
    13     1     2   ar
    14     2     3   ar
    15     3     4   ar
    16     4    28    1
    17    28    29   am
    18    29    30    2
    19    29    32    1
    20    32    33   ar
    21    33    34   ar
    22    34    35   ar
    23    35    36   ar
    24    36    37   ar
    25    37    42    1
    26    42    43   ar
    27    43    44   ar
    28    44    45   ar
    29    45    46   ar
    30    46    47   ar
    31    37    38   ar
    32    38    39   ar
    33    39    40   ar
    34    40    41    1
    35     4     5   ar
    36     5     6   ar
    37    10    11    1
    38    11    12    1
    39    17    18   ar
    40    18    19   ar
    41    19    21    1
    42    21    22    2
    43    21    23    1
    44    19    20   ar
    45    20    15   ar
    46    12     7    1
    47     6     1   ar
    48    40    32   ar
    49    39    34   ar
    50    47    42   ar
    51    28    31    1
    52    23    24    1
@<TRIPOS>MOLECULE
*****
 47 52 0 0 0
SMALL
GASTEIGER

@<TRIPOS>ATOM
      1 C          12.4372   76.7244   24.1829 C.ar    1  UNL1        0.1318
      2 C          12.1520   76.3885   22.8484 C.ar    1  UNL1        0.0356
      3 C          10.8836   75.9120   22.5128 C.ar    1  UNL1        0.0191
      4 C           9.8920   75.7893   23.4933 C.ar    1  UNL1        0.0702
      5 C          10.2128   76.1359   24.8150 C.ar    1  UNL1        0.1149
      6 N          11.4578   76.5846   25.1201 N.ar    1  UNL1       -0.2279
      7 C          15.1119   79.6256   24.9639 C.3     1  UNL1        0.0472
      8 C          15.1914   78.5571   26.0807 C.3     1  UNL1        0.0252
      9 C          14.0360   77.5422   25.9794 C.3     1  UNL1        0.0923
     10 N          13.7476   77.1887   24.5785 N.pl3   1  UNL1       -0.2932
     11 C          14.7728   77.4766   23.5679 C.3     1  UNL1        0.0923
     12 C          15.0745   78.9800   23.5458 C.3     1  UNL1        0.0252
     13 C          13.9348   80.5928   25.2221 C.3     1  UNL1        0.2054
     14 O          12.9706   80.5316   24.1670 O.3     1  UNL1       -0.4755
     15 C           9.6163   79.3766   23.0981 C.ar    1  UNL1        0.0379
     16 C          10.9533   79.8143   23.0848 C.ar    1  UNL1        0.0397
     17 C          11.6344   80.1006   24.2723 C.ar    1  UNL1        0.1388
     18 C          10.9660   79.9392   25.5029 C.ar    1  UNL1        0.0433
     19 C           9.6235   79.5306   25.5391 C.ar    1  UNL1        0.0786
     20 C           8.9621   79.2394   24.3352 C.ar    1  UNL1        0.0095
     21 C           8.9061   79.3937   26.8292 C.2     1  UNL1        0.3381
     22 O           7.9309   78.6020   26.9235 O.2     1  UNL1       -0.2451
     23 O           9.2679   80.1432   27.9476 O.3     1  UNL1       -0.4771
     24 H           9.9836   80.8580   27.9145 H       1  UNL1        0.2954
     25 C           7.5308   79.6232   21.5427 C.3     1  UNL1        0.0773
     26 C           8.8921   79.0663   21.8347 C.2     1  UNL1        0.1736
     27 O           9.4271   78.3143   20.9748 O.2     1  UNL1       -0.2913
     28 N           8.6042   75.2539   23.1430 N.am    1  UNL1       -0.2766
     29 C           8.1288   75.1374   21.7944 C.2     1  UNL1        0.2839
     30 O           8.9464   74.9582   20.8521 O.2     1  UNL1       -0.2665
     31 H           8.0099   74.8579   23.9053 H       1  UNL1        0.1553
     32 C           6.6870   75.1461   21.4917 C.ar    1  UNL1        0.1946
     33 O           5.8743   76.0864   21.9408 O.2     1  UNL1       -0.4492
     34 C           4.6693   75.8220   21.4984 C.ar    1  UNL1        0.1452
     35 C           3.5077   76.5534   21.7206 C.ar    1  UNL1        0.0375
     36 C           2.3137   76.0873   21.1427 C.ar    1  UNL1        0.0031
     37 C           2.2984   74.9038   20.3558 C.ar    1  UNL1        0.0002
     38 C           3.5034   74.1882   20.1562 C.ar    1  UNL1        0.0028
     39 C           4.6686   74.6798   20.7449 C.ar    1  UNL1        0.0337
     40 C           5.9673   74.2113   20.7372 C.ar    1  UNL1        0.0202
     41 C           6.4697   72.9688   20.0658 C.3     1  UNL1        0.0345
     42 C           1.0316   74.4213   19.7495 C.ar    1  UNL1        0.0000
     43 C           0.7245   73.0474   19.7311 C.ar    1  UNL1        0.0000
     44 C          -0.4696   72.5962   19.1603 C.ar    1  UNL1        0.0000
     45 C          -1.3682   73.5079   18.6021 C.ar    1  UNL1        0.0000
     46 C          -1.0751   74.8733   18.6139 C.ar    1  UNL1        0.0000
     47 C           0.1170   75.3303   19.1840 C.ar    1  UNL1        0.0000
@<TRIPOS>BOND
     1    25    26    1
     2    26    27    2
     3    26    15    1
     4    15    16   ar
     5    16    17   ar
     6    17    14    1
     7    14    13    1
     8    13     7    1
     9     7     8    1
    10     8     9    1
    11     9    10    1
    12    10     1    1
    13     1     2   ar
    14     2     3   ar
    15     3     4   ar
    16     4    28    1
    17    28    29   am
    18    29    30    2
    19    29    32    1
    20    32    33   ar
    21    33    34   ar
    22    34    35   ar
    23    35    36   ar
    24    36    37   ar
    25    37    42    1
    26    42    43   ar
    27    43    44   ar
    28    44    45   ar
    29    45    46   ar
    30    46    47   ar
    31    37    38   ar
    32    38    39   ar
    33    39    40   ar
    34    40    41    1
    35     4     5   ar
    36     5     6   ar
    37    10    11    1
    38    11    12    1
    39    17    18   ar
    40    18    19   ar
    41    19    21    1
    42    21    22    2
    43    21    23    1
    44    19    20   ar
    45    20    15   ar
    46    12     7    1
    47     6     1   ar
    48    40    32   ar
    49    39    34   ar
    50    47    42   ar
    51    28    31    1
    52    23    24    1
@<TRIPOS>MOLECULE
*****
 47 52 0 0 0
SMALL
GASTEIGER

@<TRIPOS>ATOM
      1 C           6.0540   76.8498   27.3638 C.ar    1  UNL1        0.1318
      2 C           6.7545   76.3255   26.2641 C.ar    1  UNL1        0.0356
      3 C           7.7797   77.0713   25.6798 C.ar    1  UNL1        0.0191
      4 C           8.1257   78.3250   26.1976 C.ar    1  UNL1        0.0702
      5 C           7.4052   78.8154   27.2977 C.ar    1  UNL1        0.1149
      6 N           6.4028   78.0777   27.8412 N.ar    1  UNL1       -0.2279
      7 C           4.5445   74.2921   30.0769 C.3     1  UNL1        0.0472
      8 C           3.6272   75.5359   29.9965 C.3     1  UNL1        0.0252
      9 C           4.2669   76.6606   29.1591 C.3     1  UNL1        0.0923
     10 N           4.9635   76.1253   27.9764 N.pl3   1  UNL1       -0.2932
     11 C           4.6332   74.7641   27.5369 C.3     1  UNL1        0.0923
     12 C           4.9334   73.7664   28.6621 C.3     1  UNL1        0.0252
     13 C           5.7683   74.5785   30.9758 C.3     1  UNL1        0.2054
     14 O           6.1977   75.9375   30.8521 O.3     1  UNL1       -0.4755
     15 C           9.1002   78.1883   30.3644 C.ar    1  UNL1        0.0379
     16 C           7.8634   77.6625   30.7807 C.ar    1  UNL1        0.0397
     17 C           7.4494   76.3855   30.3884 C.ar    1  UNL1        0.1388
     18 C           8.2941   75.6124   29.5662 C.ar    1  UNL1        0.0433
     19 C           9.5199   76.1274   29.1159 C.ar    1  UNL1        0.0786
     20 C           9.9199   77.4081   29.5298 C.ar    1  UNL1        0.0095
     21 C          10.3952   75.3317   28.2223 C.2     1  UNL1        0.3381
     22 O          10.2171   75.3673   26.9758 O.2     1  UNL1       -0.2451
     23 O          11.4056   74.5158   28.7291 O.3     1  UNL1       -0.4771
     24 H          11.5441   74.3753   29.7218 H       1  UNL1        0.2954
     25 C           9.9115   80.6053   29.7907 C.3     1  UNL1        0.0773
     26 C           9.5442   79.5454   30.7860 C.2     1  UNL1        0.1736
     27 O           9.6182   79.8270   32.0133 O.2     1  UNL1       -0.2913
     28 N           9.1524   79.1027   25.5582 N.am    1  UNL1       -0.2766
     29 C          10.4722   79.2753   26.0934 C.2     1  UNL1        0.2839
     30 O          10.9887   78.3678   26.7994 O.2     1  UNL1       -0.2665
     31 H           8.9527   79.5038   24.6147 H       1  UNL1        0.1553
     32 C          11.2752   80.4674   25.7704 C.ar    1  UNL1        0.1946
     33 O          12.0194   81.0858   26.6705 O.2     1  UNL1       -0.4492
     34 C          12.6112   82.0946   26.0792 C.ar    1  UNL1        0.1452
     35 C          13.4920   83.0089   26.6467 C.ar    1  UNL1        0.0375
     36 C          14.0174   84.0187   25.8215 C.ar    1  UNL1        0.0031
     37 C          13.6567   84.0994   24.4490 C.ar    1  UNL1        0.0002
     38 C          12.7553   83.1492   23.9119 C.ar    1  UNL1        0.0028
     39 C          12.2538   82.1618   24.7601 C.ar    1  UNL1        0.0337
     40 C          11.3725   81.1227   24.5365 C.ar    1  UNL1        0.0202
     41 C          10.6810   80.7933   23.2481 C.3     1  UNL1        0.0345
     42 C          14.2186   85.1696   23.5865 C.ar    1  UNL1        0.0000
     43 C          14.8611   84.8495   22.3754 C.ar    1  UNL1        0.0000
     44 C          15.3884   85.8596   21.5647 C.ar    1  UNL1        0.0000
     45 C          15.2816   87.1970   21.9524 C.ar    1  UNL1        0.0000
     46 C          14.6467   87.5275   23.1516 C.ar    1  UNL1        0.0000
     47 C          14.1169   86.5218   23.9658 C.ar    1  UNL1        0.0000
@<TRIPOS>BOND
     1    25    26    1
     2    26    27    2
     3    26    15    1
     4    15    16   ar
     5    16    17   ar
     6    17    14    1
     7    14    13    1
     8    13     7    1
     9     7     8    1
    10     8     9    1
    11     9    10    1
    12    10     1    1
    13     1     2   ar
    14     2     3   ar
    15     3     4   ar
    16     4    28    1
    17    28    29   am
    18    29    30    2
    19    29    32    1
    20    32    33   ar
    21    33    34   ar
    22    34    35   ar
    23    35    36   ar
    24    36    37   ar
    25    37    42    1
    26    42    43   ar
    27    43    44   ar
    28    44    45   ar
    29    45    46   ar
    30    46    47   ar
    31    37    38   ar
    32    38    39   ar
    33    39    40   ar
    34    40    41    1
    35     4     5   ar
    36     5     6   ar
    37    10    11    1
    38    11    12    1
    39    17    18   ar
    40    18    19   ar
    41    19    21    1
    42    21    22    2
    43    21    23    1
    44    19    20   ar
    45    20    15   ar
    46    12     7    1
    47     6     1   ar
    48    40    32   ar
    49    39    34   ar
    50    47    42   ar
    51    28    31    1
    52    23    24    1
@<TRIPOS>MOLECULE
*****
 47 52 0 0 0
SMALL
GASTEIGER

@<TRIPOS>ATOM
      1 C          10.4778   78.2384   25.2183 C.ar    1  UNL1        0.1318
      2 C           9.5348   79.0345   24.5460 C.ar    1  UNL1        0.0356
      3 C           8.2888   78.4984   24.2164 C.ar    1  UNL1        0.0191
      4 C           7.9687   77.1827   24.5718 C.ar    1  UNL1        0.0702
      5 C           8.9349   76.4184   25.2441 C.ar    1  UNL1        0.1149
      6 N          10.1454   76.9572   25.5424 N.ar    1  UNL1       -0.2279
      7 C          14.4824   78.2866   24.8419 C.3     1  UNL1        0.0472
      8 C          13.9612   79.7438   24.8363 C.3     1  UNL1        0.0252
      9 C          12.4243   79.7972   24.7348 C.3     1  UNL1        0.0923
     10 N          11.7914   78.7438   25.5474 N.pl3   1  UNL1       -0.2932
     11 C          12.5940   78.1051   26.5977 C.3     1  UNL1        0.0923
     12 C          13.8301   77.4422   25.9779 C.3     1  UNL1        0.0252
     13 C          14.3235   77.6489   23.4434 C.3     1  UNL1        0.2054
     14 O          13.7630   76.3355   23.5314 O.3     1  UNL1       -0.4755
     15 C          11.0011   74.0417   22.6158 C.ar    1  UNL1        0.0379
     16 C          12.2129   74.5524   23.1161 C.ar    1  UNL1        0.0397
     17 C          12.5299   75.9098   23.0018 C.ar    1  UNL1        0.1388
     18 C          11.6116   76.7791   22.3789 C.ar    1  UNL1        0.0433
     19 C          10.4090   76.2870   21.8474 C.ar    1  UNL1        0.0786
     20 C          10.1068   74.9224   21.9818 C.ar    1  UNL1        0.0095
     21 C           9.4565   77.1915   21.1602 C.2     1  UNL1        0.3381
     22 O           9.6777   78.4313   21.1327 O.2     1  UNL1       -0.2451
     23 O           8.2964   76.7070   20.5579 O.3     1  UNL1       -0.4771
     24 H           8.0167   75.7363   20.6196 H       1  UNL1        0.2954
     25 C           9.3818   72.0336   22.1980 C.3     1  UNL1        0.0773
     26 C          10.6603   72.5979   22.7419 C.2     1  UNL1        0.1736
     27 O          11.4610   71.8137   23.3207 O.2     1  UNL1       -0.2913
     28 N           6.6994   76.6279   24.1860 N.am    1  UNL1       -0.2766
     29 C           6.5146   75.7751   23.0472 C.2     1  UNL1        0.2839
     30 O           7.4527   75.0260   22.6632 O.2     1  UNL1       -0.2665
     31 H           5.8782   76.7924   24.8102 H       1  UNL1        0.1553
     32 C           5.2158   75.6978   22.3564 C.ar    1  UNL1        0.1946
     33 O           4.3932   76.7291   22.2764 O.2     1  UNL1       -0.4492
     34 C           3.3365   76.3496   21.6004 C.ar    1  UNL1        0.1452
     35 C           2.2237   77.1157   21.2707 C.ar    1  UNL1        0.0375
     36 C           1.1976   76.5040   20.5295 C.ar    1  UNL1        0.0031
     37 C           1.2980   75.1434   20.1309 C.ar    1  UNL1        0.0002
     38 C           2.4475   74.3989   20.4892 C.ar    1  UNL1        0.0028
     39 C           3.4453   75.0382   21.2252 C.ar    1  UNL1        0.0337
     40 C           4.6530   74.5856   21.7179 C.ar    1  UNL1        0.0202
     41 C           5.2133   73.2013   21.5892 C.3     1  UNL1        0.0345
     42 C           0.2084   74.5079   19.3473 C.ar    1  UNL1        0.0000
     43 C          -0.8973   75.2644   18.9146 C.ar    1  UNL1        0.0000
     44 C          -1.9213   74.6634   18.1760 C.ar    1  UNL1        0.0000
     45 C          -1.8545   73.3042   17.8621 C.ar    1  UNL1        0.0000
     46 C          -0.7631   72.5429   18.2857 C.ar    1  UNL1        0.0000
     47 C           0.2642   73.1386   19.0238 C.ar    1  UNL1        0.0000
@<TRIPOS>BOND
     1    25    26    1
     2    26    27    2
     3    26    15    1
     4    15    16   ar
     5    16    17   ar
     6    17    14    1
     7    14    13    1
     8    13     7    1
     9     7     8    1
    10     8     9    1
    11     9    10    1
    12    10     1    1
    13     1     2   ar
    14     2     3   ar
    15     3     4   ar
    16     4    28    1
    17    28    29   am
    18    29    30    2
    19    29    32    1
    20    32    33   ar
    21    33    34   ar
    22    34    35   ar
    23    35    36   ar
    24    36    37   ar
    25    37    42    1
    26    42    43   ar
    27    43    44   ar
    28    44    45   ar
    29    45    46   ar
    30    46    47   ar
    31    37    38   ar
    32    38    39   ar
    33    39    40   ar
    34    40    41    1
    35     4     5   ar
    36     5     6   ar
    37    10    11    1
    38    11    12    1
    39    17    18   ar
    40    18    19   ar
    41    19    21    1
    42    21    22    2
    43    21    23    1
    44    19    20   ar
    45    20    15   ar
    46    12     7    1
    47     6     1   ar
    48    40    32   ar
    49    39    34   ar
    50    47    42   ar
    51    28    31    1
    52    23    24    1
