@<TRIPOS>MOLECULE
*****
 45 49 0 0 0
SMALL
GASTEIGER

@<TRIPOS>ATOM
      1 C          -7.5796  -10.3813   30.4805 C.3     1  UNL1        0.1562
      2 C          -8.2581   -9.2010   29.7801 C.3     1  UNL1        0.0622
      3 C          -9.7149   -9.1548   30.2910 C.3     1  UNL1        0.1294
      4 O         -10.5161   -9.8975   29.4030 O.3     1  UNL1       -0.3808
      5 C          -9.6290   -9.8815   31.6559 C.3     1  UNL1        0.1264
      6 N          -8.4357  -10.7129   31.6084 N.am    1  UNL1       -0.2544
      7 C          -7.9699  -11.4772   32.7379 C.2     1  UNL1        0.3081
      8 O          -6.7455  -11.7556   32.8454 O.2     1  UNL1       -0.2522
      9 N          -8.8679  -11.8858   33.7776 N.am    1  UNL1       -0.2680
     10 H         -11.4440   -9.8978   29.7581 H       1  UNL1        0.2107
     11 H          -8.5521  -11.7764   34.7677 H       1  UNL1        0.1564
     12 C         -10.1255  -12.5313   33.5260 C.ar    1  UNL1        0.0546
     13 C         -10.8037  -12.2801   32.3265 C.ar    1  UNL1        0.0158
     14 C         -12.0269  -12.9017   32.0639 C.ar    1  UNL1        0.0157
     15 C         -12.5948  -13.7704   33.0025 C.ar    1  UNL1        0.0913
     16 CL        -14.1347  -14.5303   32.6248 Cl      1  UNL1       -0.0791
     17 C         -11.9332  -14.0100   34.2225 C.ar    1  UNL1        0.1453
     18 O         -12.4695  -14.8543   35.1953 O.3     1  UNL1       -0.5046
     19 C         -10.7070  -13.3860   34.4780 C.ar    1  UNL1        0.0522
     20 H         -13.3509  -15.3368   35.0758 H       1  UNL1        0.2922
     21 C         -10.2756   -7.7238   30.3839 C.ar    1  UNL1        0.0310
     22 C          -9.4801   -6.6157   30.0111 C.ar    1  UNL1        0.0026
     23 C          -9.9592   -5.3099   30.1427 C.ar    1  UNL1        0.0295
     24 C         -11.2213   -5.0781   30.6864 C.ar    1  UNL1        0.1424
     25 F         -11.6812   -3.8095   30.8186 F       1  UNL1       -0.2041
     26 C         -11.9965   -6.1512   31.1241 C.ar    1  UNL1        0.0590
     27 C         -11.5259   -7.4624   30.9979 C.ar    1  UNL1        0.1406
     28 F         -12.2853   -8.4630   31.5091 F       1  UNL1       -0.2044
     29 O          -8.3803  -12.3514   29.3998 O.2     1  UNL1       -0.2730
     30 C          -7.4060  -11.5689   29.5664 C.2     1  UNL1        0.2454
     31 N          -6.1416  -11.8339   28.9336 N.am    1  UNL1       -0.2680
     32 H          -5.3250  -11.2417   29.1995 H       1  UNL1        0.1563
     33 C          -5.9349  -12.8377   27.9258 C.ar    1  UNL1        0.1346
     34 C          -6.7061  -14.0075   27.9405 C.ar    1  UNL1        0.0406
     35 C          -6.4893  -14.9886   26.9723 C.ar    1  UNL1        0.0736
     36 C          -5.5077  -14.8015   25.9888 C.ar    1  UNL1        0.2466
     37 C          -4.7519  -13.6197   26.0119 C.ar    1  UNL1        0.1691
     38 N          -4.9798  -12.6800   26.9675 N.ar    1  UNL1       -0.2228
     39 N          -5.2670  -15.8127   24.9890 N.am    1  UNL1       -0.0841
     40 C          -4.3328  -16.7812   25.2412 C.2     1  UNL1        0.2905
     41 C          -4.0618  -17.7733   24.2971 C.2     1  UNL1        0.0758
     42 C          -4.7530  -17.7751   23.0883 C.2     1  UNL1        0.0161
     43 C          -5.7076  -16.7919   22.8370 C.2     1  UNL1        0.1156
     44 C          -5.9609  -15.8117   23.8030 C.2     1  UNL1        0.4230
     45 O          -6.8445  -14.9408   23.5730 O.2     1  UNL1       -0.2135
@<TRIPOS>BOND
     1    29    30    2
     2    30    31   am
     3    31    33    1
     4    33    34   ar
     5    34    35   ar
     6    35    36   ar
     7    36    39    1
     8    39    40    1
     9    40    41    2
    10    41    42    1
    11    42    43    2
    12    43    44    1
    13    44    45    2
    14    36    37   ar
    15    37    38   ar
    16    30     1    1
    17     1     2    1
    18     2     3    1
    19     3     4    1
    20     3    21    1
    21    21    22   ar
    22    22    23   ar
    23    23    24   ar
    24    24    25    1
    25    24    26   ar
    26    26    27   ar
    27    27    28    1
    28     3     5    1
    29     5     6    1
    30     6     7   am
    31     7     8    2
    32     7     9   am
    33     9    12    1
    34    12    13   ar
    35    13    14   ar
    36    14    15   ar
    37    15    16    1
    38    15    17   ar
    39    17    18    1
    40    17    19   ar
    41    38    33   ar
    42     6     1    1
    43    19    12   ar
    44    44    39    1
    45    27    21   ar
    46    31    32    1
    47     4    10    1
    48     9    11    1
    49    18    20    1
@<TRIPOS>MOLECULE
*****
 45 49 0 0 0
SMALL
GASTEIGER

@<TRIPOS>ATOM
      1 C          -7.5781  -10.3453   30.4363 C.3     1  UNL1        0.1562
      2 C          -8.2185   -9.1620   29.7056 C.3     1  UNL1        0.0622
      3 C          -9.6834   -9.0781   30.1878 C.3     1  UNL1        0.1294
      4 O         -10.4830   -9.8174   29.2956 O.3     1  UNL1       -0.3808
      5 C          -9.6385   -9.7856   31.5646 C.3     1  UNL1        0.1264
      6 N          -8.4621  -10.6421   31.5523 N.am    1  UNL1       -0.2544
      7 C          -8.0338  -11.3985   32.7017 C.2     1  UNL1        0.3081
      8 O          -6.8177  -11.7005   32.8368 O.2     1  UNL1       -0.2522
      9 N          -8.9597  -11.7727   33.7299 N.am    1  UNL1       -0.2680
     10 H         -11.4172   -9.7932   29.6327 H       1  UNL1        0.2107
     11 H          -8.6604  -11.6549   34.7242 H       1  UNL1        0.1564
     12 C         -10.2256  -12.3958   33.4638 C.ar    1  UNL1        0.0546
     13 C         -10.6681  -13.4403   34.2854 C.ar    1  UNL1        0.0158
     14 C         -11.8984  -14.0560   34.0431 C.ar    1  UNL1        0.0157
     15 C         -12.6950  -13.6460   32.9681 C.ar    1  UNL1        0.0913
     16 CL        -14.2363  -14.4502   32.7057 Cl      1  UNL1       -0.0791
     17 C         -12.2475  -12.6137   32.1209 C.ar    1  UNL1        0.1453
     18 O         -12.9994  -12.1837   31.0271 O.3     1  UNL1       -0.5046
     19 C         -11.0153  -11.9995   32.3710 C.ar    1  UNL1        0.0522
     20 H         -13.8979  -12.5836   30.7890 H       1  UNL1        0.2922
     21 C         -10.2156   -7.6345   30.2487 C.ar    1  UNL1        0.0310
     22 C          -9.4164   -6.5555   29.8052 C.ar    1  UNL1        0.0026
     23 C          -9.8678   -5.2372   29.9063 C.ar    1  UNL1        0.0295
     24 C         -11.1039   -4.9627   30.4885 C.ar    1  UNL1        0.1424
     25 F         -11.5367   -3.6818   30.5909 F       1  UNL1       -0.2041
     26 C         -11.8797   -6.0046   30.9948 C.ar    1  UNL1        0.0590
     27 C         -11.4367   -7.3279   30.8995 C.ar    1  UNL1        0.1406
     28 F         -12.1926   -8.2951   31.4759 F       1  UNL1       -0.2044
     29 O          -8.3858  -12.3388   29.4047 O.2     1  UNL1       -0.2730
     30 C          -7.4121  -11.5500   29.5433 C.2     1  UNL1        0.2454
     31 N          -6.1552  -11.8231   28.8994 N.am    1  UNL1       -0.2680
     32 H          -5.3373  -11.2232   29.1432 H       1  UNL1        0.1563
     33 C          -5.9579  -12.8458   27.9088 C.ar    1  UNL1        0.1346
     34 C          -6.7396  -14.0082   27.9436 C.ar    1  UNL1        0.0406
     35 C          -6.5321  -15.0075   26.9923 C.ar    1  UNL1        0.0736
     36 C          -5.5494  -14.8460   26.0053 C.ar    1  UNL1        0.2466
     37 C          -4.7829  -13.6709   26.0081 C.ar    1  UNL1        0.1691
     38 N          -5.0019  -12.7130   26.9476 N.ar    1  UNL1       -0.2228
     39 N          -5.3182  -15.8762   25.0229 N.am    1  UNL1       -0.0841
     40 C          -4.2707  -16.7388   25.2047 C.2     1  UNL1        0.2905
     41 C          -4.0055  -17.7446   24.2734 C.2     1  UNL1        0.0758
     42 C          -4.8191  -17.8691   23.1502 C.2     1  UNL1        0.0161
     43 C          -5.8881  -16.9939   22.9710 C.2     1  UNL1        0.1156
     44 C          -6.1322  -15.9973   23.9225 C.2     1  UNL1        0.4230
     45 O          -7.1175  -15.2259   23.7606 O.2     1  UNL1       -0.2135
@<TRIPOS>BOND
     1    29    30    2
     2    30    31   am
     3    31    33    1
     4    33    34   ar
     5    34    35   ar
     6    35    36   ar
     7    36    39    1
     8    39    40    1
     9    40    41    2
    10    41    42    1
    11    42    43    2
    12    43    44    1
    13    44    45    2
    14    36    37   ar
    15    37    38   ar
    16    30     1    1
    17     1     2    1
    18     2     3    1
    19     3     4    1
    20     3    21    1
    21    21    22   ar
    22    22    23   ar
    23    23    24   ar
    24    24    25    1
    25    24    26   ar
    26    26    27   ar
    27    27    28    1
    28     3     5    1
    29     5     6    1
    30     6     7   am
    31     7     8    2
    32     7     9   am
    33     9    12    1
    34    12    13   ar
    35    13    14   ar
    36    14    15   ar
    37    15    16    1
    38    15    17   ar
    39    17    18    1
    40    17    19   ar
    41    38    33   ar
    42     6     1    1
    43    19    12   ar
    44    44    39    1
    45    27    21   ar
    46    31    32    1
    47     4    10    1
    48     9    11    1
    49    18    20    1
@<TRIPOS>MOLECULE
*****
 45 49 0 0 0
SMALL
GASTEIGER

@<TRIPOS>ATOM
      1 C          -8.7322  -11.1444   29.7890 C.3     1  UNL1        0.1562
      2 C          -9.5383   -9.9490   29.2737 C.3     1  UNL1        0.0622
      3 C         -10.6023   -9.6307   30.3471 C.3     1  UNL1        0.1294
      4 O         -11.7812  -10.3260   30.0174 O.3     1  UNL1       -0.3808
      5 C          -9.9845  -10.2240   31.6373 C.3     1  UNL1        0.1264
      6 N          -9.0216  -11.2286   31.2117 N.am    1  UNL1       -0.2544
      7 C          -8.1743  -11.9401   32.1352 C.2     1  UNL1        0.3081
      8 O          -7.0627  -12.3904   31.7480 O.2     1  UNL1       -0.2522
      9 N          -8.5475  -12.1022   33.5096 N.am    1  UNL1       -0.2680
     10 H         -12.4484  -10.1495   30.7320 H       1  UNL1        0.2107
     11 H          -7.8142  -11.9454   34.2373 H       1  UNL1        0.1564
     12 C          -9.8394  -12.5695   33.9270 C.ar    1  UNL1        0.0546
     13 C          -9.9349  -13.4904   34.9779 C.ar    1  UNL1        0.0158
     14 C         -11.1837  -13.9535   35.3992 C.ar    1  UNL1        0.0157
     15 C         -12.3516  -13.5137   34.7660 C.ar    1  UNL1        0.0913
     16 CL        -13.8997  -14.1237   35.3340 Cl      1  UNL1       -0.0791
     17 C         -12.2648  -12.6072   33.6916 C.ar    1  UNL1        0.1453
     18 O         -13.4003  -12.1547   33.0190 O.3     1  UNL1       -0.5046
     19 C         -11.0107  -12.1454   33.2765 C.ar    1  UNL1        0.0522
     20 H         -14.3366  -12.4478   33.2669 H       1  UNL1        0.2922
     21 C         -10.9258   -8.1287   30.4476 C.ar    1  UNL1        0.0310
     22 C         -10.1123   -7.1740   29.7945 C.ar    1  UNL1        0.0026
     23 C         -10.3645   -5.8059   29.9235 C.ar    1  UNL1        0.0295
     24 C         -11.4036   -5.3587   30.7373 C.ar    1  UNL1        0.1424
     25 F         -11.6421   -4.0301   30.8655 F       1  UNL1       -0.2041
     26 C         -12.1764   -6.2784   31.4450 C.ar    1  UNL1        0.0590
     27 C         -11.9318   -7.6503   31.3238 C.ar    1  UNL1        0.1406
     28 F         -12.6610   -8.4971   32.0921 F       1  UNL1       -0.2044
     29 O         -10.3002  -12.8048   29.0999 O.2     1  UNL1       -0.2730
     30 C          -9.0970  -12.4288   29.0865 C.2     1  UNL1        0.2454
     31 N          -8.0879  -13.2358   28.4543 N.am    1  UNL1       -0.2680
     32 H          -7.0893  -12.9609   28.5784 H       1  UNL1        0.1563
     33 C          -8.3652  -14.3778   27.6266 C.ar    1  UNL1        0.1346
     34 C          -7.9821  -15.6561   28.0536 C.ar    1  UNL1        0.0406
     35 C          -8.2352  -16.7601   27.2387 C.ar    1  UNL1        0.0736
     36 C          -8.8732  -16.5898   26.0018 C.ar    1  UNL1        0.2466
     37 C          -9.2353  -15.2932   25.6068 C.ar    1  UNL1        0.1691
     38 N          -8.9749  -14.2330   26.4171 N.ar    1  UNL1       -0.2228
     39 N          -9.1310  -17.7216   25.1460 N.am    1  UNL1       -0.0841
     40 C          -9.9343  -18.7294   25.6082 C.2     1  UNL1        0.2905
     41 C         -10.2021  -19.8476   24.8162 C.2     1  UNL1        0.0758
     42 C          -9.6460  -19.9334   23.5426 C.2     1  UNL1        0.0161
     43 C          -8.8340  -18.9035   23.0725 C.2     1  UNL1        0.1156
     44 C          -8.5853  -17.7931   23.8869 C.2     1  UNL1        0.4230
     45 O          -7.8675  -16.8563   23.4406 O.2     1  UNL1       -0.2135
@<TRIPOS>BOND
     1    29    30    2
     2    30    31   am
     3    31    33    1
     4    33    34   ar
     5    34    35   ar
     6    35    36   ar
     7    36    39    1
     8    39    40    1
     9    40    41    2
    10    41    42    1
    11    42    43    2
    12    43    44    1
    13    44    45    2
    14    36    37   ar
    15    37    38   ar
    16    30     1    1
    17     1     2    1
    18     2     3    1
    19     3     4    1
    20     3    21    1
    21    21    22   ar
    22    22    23   ar
    23    23    24   ar
    24    24    25    1
    25    24    26   ar
    26    26    27   ar
    27    27    28    1
    28     3     5    1
    29     5     6    1
    30     6     7   am
    31     7     8    2
    32     7     9   am
    33     9    12    1
    34    12    13   ar
    35    13    14   ar
    36    14    15   ar
    37    15    16    1
    38    15    17   ar
    39    17    18    1
    40    17    19   ar
    41    38    33   ar
    42     6     1    1
    43    19    12   ar
    44    44    39    1
    45    27    21   ar
    46    31    32    1
    47     4    10    1
    48     9    11    1
    49    18    20    1
@<TRIPOS>MOLECULE
*****
 45 49 0 0 0
SMALL
GASTEIGER

@<TRIPOS>ATOM
      1 C          -6.8957  -10.9651   30.1355 C.3     1  UNL1        0.1562
      2 C          -6.9830   -9.6283   29.3941 C.3     1  UNL1        0.0622
      3 C          -8.1729   -8.8553   30.0040 C.3     1  UNL1        0.1294
      4 O          -9.3200   -9.1386   29.2386 O.3     1  UNL1       -0.3808
      5 C          -8.3117   -9.4835   31.4127 C.3     1  UNL1        0.1264
      6 N          -7.6845  -10.7949   31.3453 N.am    1  UNL1       -0.2544
      7 C          -7.5358  -11.6504   32.4955 C.2     1  UNL1        0.3081
      8 O          -6.5972  -12.4904   32.5358 O.2     1  UNL1       -0.2522
      9 N          -8.4075  -11.5296   33.6268 N.am    1  UNL1       -0.2680
     10 H         -10.0893   -8.6711   29.6589 H       1  UNL1        0.2107
     11 H          -7.9789  -11.5558   34.5796 H       1  UNL1        0.1564
     12 C          -9.8385  -11.4824   33.5195 C.ar    1  UNL1        0.0546
     13 C         -10.5818  -12.6607   33.6644 C.ar    1  UNL1        0.0158
     14 C         -11.9750  -12.6328   33.5660 C.ar    1  UNL1        0.0157
     15 C         -12.6419  -11.4302   33.3068 C.ar    1  UNL1        0.0913
     16 CL        -14.3965  -11.4462   33.1944 Cl      1  UNL1       -0.0791
     17 C         -11.9020  -10.2442   33.1345 C.ar    1  UNL1        0.1453
     18 O         -12.5223   -9.0256   32.8574 O.3     1  UNL1       -0.5046
     19 C         -10.5069  -10.2789   33.2369 C.ar    1  UNL1        0.0522
     20 H         -13.5258   -8.9293   32.7701 H       1  UNL1        0.2922
     21 C          -7.9550   -7.3312   30.0228 C.ar    1  UNL1        0.0310
     22 C          -6.6621   -6.7934   30.2200 C.ar    1  UNL1        0.0026
     23 C          -6.4611   -5.4128   30.2932 C.ar    1  UNL1        0.0295
     24 C          -7.5460   -4.5416   30.2140 C.ar    1  UNL1        0.1424
     25 F          -7.3487   -3.2025   30.2915 F       1  UNL1       -0.2041
     26 C          -8.8378   -5.0510   30.0879 C.ar    1  UNL1        0.0590
     27 C          -9.0502   -6.4317   30.0147 C.ar    1  UNL1        0.1406
     28 F         -10.3303   -6.8771   29.9702 F       1  UNL1       -0.2044
     29 O          -8.6562  -12.3375   29.2946 O.2     1  UNL1       -0.2730
     30 C          -7.4154  -12.1153   29.3089 C.2     1  UNL1        0.2454
     31 N          -6.5126  -12.9730   28.5888 N.am    1  UNL1       -0.2680
     32 H          -5.4880  -12.8389   28.7314 H       1  UNL1        0.1563
     33 C          -6.9273  -13.9806   27.6514 C.ar    1  UNL1        0.1346
     34 C          -6.0581  -14.3772   26.6263 C.ar    1  UNL1        0.0406
     35 C          -6.4712  -15.3414   25.7064 C.ar    1  UNL1        0.0736
     36 C          -7.7476  -15.9122   25.8110 C.ar    1  UNL1        0.2466
     37 C          -8.5910  -15.4838   26.8472 C.ar    1  UNL1        0.1691
     38 N          -8.1667  -14.5405   27.7294 N.ar    1  UNL1       -0.2228
     39 N          -8.1901  -16.9022   24.8602 N.am    1  UNL1       -0.0841
     40 C          -7.7086  -16.8492   23.5796 C.2     1  UNL1        0.2905
     41 C          -8.1180  -17.7821   22.6249 C.2     1  UNL1        0.0758
     42 C          -9.0241  -18.7764   22.9841 C.2     1  UNL1        0.0161
     43 C          -9.5076  -18.8317   24.2896 C.2     1  UNL1        0.1156
     44 C          -9.0774  -17.8855   25.2264 C.2     1  UNL1        0.4230
     45 O          -9.5046  -17.9605   26.4113 O.2     1  UNL1       -0.2135
@<TRIPOS>BOND
     1    29    30    2
     2    30    31   am
     3    31    33    1
     4    33    34   ar
     5    34    35   ar
     6    35    36   ar
     7    36    39    1
     8    39    40    1
     9    40    41    2
    10    41    42    1
    11    42    43    2
    12    43    44    1
    13    44    45    2
    14    36    37   ar
    15    37    38   ar
    16    30     1    1
    17     1     2    1
    18     2     3    1
    19     3     4    1
    20     3    21    1
    21    21    22   ar
    22    22    23   ar
    23    23    24   ar
    24    24    25    1
    25    24    26   ar
    26    26    27   ar
    27    27    28    1
    28     3     5    1
    29     5     6    1
    30     6     7   am
    31     7     8    2
    32     7     9   am
    33     9    12    1
    34    12    13   ar
    35    13    14   ar
    36    14    15   ar
    37    15    16    1
    38    15    17   ar
    39    17    18    1
    40    17    19   ar
    41    38    33   ar
    42     6     1    1
    43    19    12   ar
    44    44    39    1
    45    27    21   ar
    46    31    32    1
    47     4    10    1
    48     9    11    1
    49    18    20    1
@<TRIPOS>MOLECULE
*****
 45 49 0 0 0
SMALL
GASTEIGER

@<TRIPOS>ATOM
      1 C          -5.3288  -15.2320   23.5833 C.3     1  UNL1        0.1562
      2 C          -3.9727  -15.9426   23.5891 C.3     1  UNL1        0.0622
      3 C          -4.2580  -17.4527   23.4349 C.3     1  UNL1        0.1294
      4 O          -4.3462  -18.0171   24.7216 O.3     1  UNL1       -0.3808
      5 C          -5.6482  -17.4770   22.7529 C.3     1  UNL1        0.1264
      6 N          -6.2741  -16.1955   23.0419 N.am    1  UNL1       -0.2544
      7 C          -7.5503  -15.8080   22.4959 C.2     1  UNL1        0.3081
      8 O          -7.8205  -14.5874   22.3370 O.2     1  UNL1       -0.2522
      9 N          -8.5064  -16.7903   22.0770 N.am    1  UNL1       -0.2680
     10 H          -4.5694  -18.9795   24.6170 H       1  UNL1        0.2107
     11 H          -8.9971  -16.6383   21.1669 H       1  UNL1        0.1564
     12 C          -8.8980  -17.9076   22.8892 C.ar    1  UNL1        0.0546
     13 C          -8.9730  -19.1844   22.3184 C.ar    1  UNL1        0.0158
     14 C          -9.3493  -20.2834   23.0945 C.ar    1  UNL1        0.0157
     15 C          -9.6697  -20.1180   24.4465 C.ar    1  UNL1        0.0913
     16 CL        -10.1353  -21.5321   25.3820 Cl      1  UNL1       -0.0791
     17 C          -9.6219  -18.8342   25.0238 C.ar    1  UNL1        0.1453
     18 O          -9.9495  -18.6185   26.3628 O.3     1  UNL1       -0.5046
     19 C          -9.2416  -17.7382   24.2413 C.ar    1  UNL1        0.0522
     20 H         -10.2323  -19.3652   26.9844 H       1  UNL1        0.2922
     21 C          -3.1653  -18.1944   22.6434 C.ar    1  UNL1        0.0310
     22 C          -1.9415  -17.5552   22.3377 C.ar    1  UNL1        0.0026
     23 C          -0.9651  -18.1992   21.5737 C.ar    1  UNL1        0.0295
     24 C          -1.2027  -19.4741   21.0635 C.ar    1  UNL1        0.1424
     25 F          -0.2557  -20.0943   20.3172 F       1  UNL1       -0.2041
     26 C          -2.4285  -20.0971   21.2945 C.ar    1  UNL1        0.0590
     27 C          -3.4133  -19.4607   22.0572 C.ar    1  UNL1        0.1406
     28 F          -4.6146  -20.0764   22.1870 F       1  UNL1       -0.2044
     29 O          -4.8916  -14.2212   25.6992 O.2     1  UNL1       -0.2730
     30 C          -5.7467  -14.7806   24.9609 C.2     1  UNL1        0.2454
     31 N          -7.0793  -15.0248   25.4443 N.am    1  UNL1       -0.2680
     32 H          -7.7164  -15.6062   24.8575 H       1  UNL1        0.1563
     33 C          -7.6083  -14.4868   26.6677 C.ar    1  UNL1        0.1346
     34 C          -8.9549  -14.6951   26.9945 C.ar    1  UNL1        0.0406
     35 C          -9.4700  -14.1549   28.1733 C.ar    1  UNL1        0.0736
     36 C          -8.6425  -13.4115   29.0268 C.ar    1  UNL1        0.2466
     37 C          -7.3016  -13.2195   28.6612 C.ar    1  UNL1        0.1691
     38 N          -6.8239  -13.7534   27.5058 N.ar    1  UNL1       -0.2228
     39 N          -9.1656  -12.8391   30.2428 N.am    1  UNL1       -0.0841
     40 C         -10.3777  -13.2731   30.7086 C.2     1  UNL1        0.2905
     41 C         -10.9253  -12.7391   31.8766 C.2     1  UNL1        0.0758
     42 C         -10.2267  -11.7563   32.5729 C.2     1  UNL1        0.0161
     43 C          -8.9907  -11.3210   32.0999 C.2     1  UNL1        0.1156
     44 C          -8.4646  -11.8764   30.9283 C.2     1  UNL1        0.4230
     45 O          -7.3336  -11.4905   30.5232 O.2     1  UNL1       -0.2135
@<TRIPOS>BOND
     1    29    30    2
     2    30    31   am
     3    31    33    1
     4    33    34   ar
     5    34    35   ar
     6    35    36   ar
     7    36    39    1
     8    39    40    1
     9    40    41    2
    10    41    42    1
    11    42    43    2
    12    43    44    1
    13    44    45    2
    14    36    37   ar
    15    37    38   ar
    16    30     1    1
    17     1     2    1
    18     2     3    1
    19     3     4    1
    20     3    21    1
    21    21    22   ar
    22    22    23   ar
    23    23    24   ar
    24    24    25    1
    25    24    26   ar
    26    26    27   ar
    27    27    28    1
    28     3     5    1
    29     5     6    1
    30     6     7   am
    31     7     8    2
    32     7     9   am
    33     9    12    1
    34    12    13   ar
    35    13    14   ar
    36    14    15   ar
    37    15    16    1
    38    15    17   ar
    39    17    18    1
    40    17    19   ar
    41    38    33   ar
    42     6     1    1
    43    19    12   ar
    44    44    39    1
    45    27    21   ar
    46    31    32    1
    47     4    10    1
    48     9    11    1
    49    18    20    1
@<TRIPOS>MOLECULE
*****
 45 49 0 0 0
SMALL
GASTEIGER

@<TRIPOS>ATOM
      1 C          -6.7853  -11.5832   31.1304 C.3     1  UNL1        0.1562
      2 C          -5.6667  -10.5655   30.8912 C.3     1  UNL1        0.0622
      3 C          -6.2820   -9.1654   31.1071 C.3     1  UNL1        0.1294
      4 O          -6.7278   -8.6841   29.8615 O.3     1  UNL1       -0.3808
      5 C          -7.4955   -9.4554   32.0244 C.3     1  UNL1        0.1264
      6 N          -7.8289  -10.8597   31.8392 N.am    1  UNL1       -0.2544
      7 C          -8.8566  -11.5260   32.5987 C.2     1  UNL1        0.3081
      8 O          -8.7878  -12.7695   32.7918 O.2     1  UNL1       -0.2522
      9 N          -9.9363  -10.7911   33.1890 N.am    1  UNL1       -0.2680
     10 H          -7.1582   -7.8016   30.0127 H       1  UNL1        0.2107
     11 H         -10.2090  -11.0260   34.1701 H       1  UNL1        0.1564
     12 C         -10.7245   -9.8310   32.4691 C.ar    1  UNL1        0.0546
     13 C         -12.0700   -9.6455   32.8111 C.ar    1  UNL1        0.0158
     14 C         -12.8510   -8.7136   32.1232 C.ar    1  UNL1        0.0157
     15 C         -12.3016   -7.9661   31.0756 C.ar    1  UNL1        0.0913
     16 CL        -13.3243   -6.8039   30.2420 Cl      1  UNL1       -0.0791
     17 C         -10.9565   -8.1632   30.7073 C.ar    1  UNL1        0.1453
     18 O         -10.3709   -7.4537   29.6583 O.3     1  UNL1       -0.5046
     19 C         -10.1792   -9.0965   31.4022 C.ar    1  UNL1        0.0522
     20 H         -10.8747   -6.7648   29.1147 H       1  UNL1        0.2922
     21 C          -5.2838   -8.1537   31.6995 C.ar    1  UNL1        0.0310
     22 C          -4.8130   -8.3018   33.0247 C.ar    1  UNL1        0.0026
     23 C          -3.9498   -7.3603   33.5906 C.ar    1  UNL1        0.0295
     24 C          -3.5713   -6.2319   32.8655 C.ar    1  UNL1        0.1424
     25 F          -2.7384   -5.3166   33.4194 F       1  UNL1       -0.2041
     26 C          -4.0767   -6.0296   31.5819 C.ar    1  UNL1        0.0590
     27 C          -4.9424   -6.9656   31.0064 C.ar    1  UNL1        0.1406
     28 F          -5.4655   -6.6834   29.7874 F       1  UNL1       -0.2044
     29 O          -8.0577  -11.4599   29.1164 O.2     1  UNL1       -0.2730
     30 C          -7.3127  -12.1700   29.8443 C.2     1  UNL1        0.2454
     31 N          -7.0132  -13.5278   29.4759 N.am    1  UNL1       -0.2680
     32 H          -6.5057  -14.1239   30.1655 H       1  UNL1        0.1563
     33 C          -7.3319  -14.1103   28.2011 C.ar    1  UNL1        0.1346
     34 C          -8.6441  -14.5221   27.9328 C.ar    1  UNL1        0.0406
     35 C          -8.9458  -15.1050   26.7016 C.ar    1  UNL1        0.0736
     36 C          -7.9413  -15.2732   25.7379 C.ar    1  UNL1        0.2466
     37 C          -6.6385  -14.8540   26.0470 C.ar    1  UNL1        0.1691
     38 N          -6.3688  -14.2916   27.2549 N.ar    1  UNL1       -0.2228
     39 N          -8.2384  -15.8838   24.4656 N.am    1  UNL1       -0.0841
     40 C          -9.1503  -16.9040   24.4198 C.2     1  UNL1        0.2905
     41 C          -9.4602  -17.5294   23.2107 C.2     1  UNL1        0.0758
     42 C          -8.8344  -17.1061   22.0410 C.2     1  UNL1        0.0161
     43 C          -7.9116  -16.0635   22.0897 C.2     1  UNL1        0.1156
     44 C          -7.6228  -15.4529   23.3151 C.2     1  UNL1        0.4230
     45 O          -6.8028  -14.4943   23.3422 O.2     1  UNL1       -0.2135
@<TRIPOS>BOND
     1    29    30    2
     2    30    31   am
     3    31    33    1
     4    33    34   ar
     5    34    35   ar
     6    35    36   ar
     7    36    39    1
     8    39    40    1
     9    40    41    2
    10    41    42    1
    11    42    43    2
    12    43    44    1
    13    44    45    2
    14    36    37   ar
    15    37    38   ar
    16    30     1    1
    17     1     2    1
    18     2     3    1
    19     3     4    1
    20     3    21    1
    21    21    22   ar
    22    22    23   ar
    23    23    24   ar
    24    24    25    1
    25    24    26   ar
    26    26    27   ar
    27    27    28    1
    28     3     5    1
    29     5     6    1
    30     6     7   am
    31     7     8    2
    32     7     9   am
    33     9    12    1
    34    12    13   ar
    35    13    14   ar
    36    14    15   ar
    37    15    16    1
    38    15    17   ar
    39    17    18    1
    40    17    19   ar
    41    38    33   ar
    42     6     1    1
    43    19    12   ar
    44    44    39    1
    45    27    21   ar
    46    31    32    1
    47     4    10    1
    48     9    11    1
    49    18    20    1
