@<TRIPOS>MOLECULE
*****
 51 57 0 0 0
SMALL
GASTEIGER

@<TRIPOS>ATOM
      1 C           8.9402   78.7004   25.9044 C.ar    1  UNL1        0.0360
      2 C           9.6353   78.4019   24.7180 C.ar    1  UNL1        0.0043
      3 C          10.8131   79.0810   24.3933 C.ar    1  UNL1        0.0148
      4 C          11.3138   80.0829   25.2416 C.ar    1  UNL1        0.0516
      5 C          10.6371   80.3648   26.4358 C.ar    1  UNL1        0.0148
      6 C           9.4586   79.6879   26.7621 C.ar    1  UNL1        0.0043
      7 N           4.5224   76.8765   24.8822 N.ar    1  UNL1       -0.2357
      8 N           3.6829   76.1212   25.5865 N.ar    1  UNL1       -0.1663
      9 C           4.1919   75.9653   26.8350 C.ar    1  UNL1        0.1260
     10 C           5.3964   76.6382   26.8980 C.ar    1  UNL1        0.0880
     11 C           6.3888   76.7741   27.8636 C.ar    1  UNL1        0.1380
     12 N           7.5250   77.4448   27.5044 N.ar    1  UNL1       -0.2117
     13 C           7.6897   77.9807   26.2493 C.ar    1  UNL1        0.1653
     14 N           6.6981   77.8383   25.3150 N.ar    1  UNL1       -0.2079
     15 C           5.5705   77.1755   25.6662 C.ar    1  UNL1        0.1652
     16 C           3.0820   77.3939   19.4562 C.2     1  UNL1        0.4050
     17 O           3.0266   78.5436   18.9374 O.2     1  UNL1       -0.2262
     18 N           3.1751   77.2546   20.8869 N.am    1  UNL1       -0.2459
     19 C           3.0648   78.4544   21.7322 C.3     1  UNL1        0.0987
     20 C           3.1764   78.1122   23.2222 C.3     1  UNL1        0.0461
     21 C           4.3762   77.1811   23.4557 C.3     1  UNL1        0.1102
     22 C           4.2740   75.8711   22.6349 C.3     1  UNL1        0.0461
     23 C           3.2287   75.9215   21.5067 C.3     1  UNL1        0.0987
     24 C           4.1958   75.4453   18.4098 C.3     1  UNL1        0.2573
     25 O           3.0513   76.2584   18.6387 O.3     1  UNL1       -0.4304
     26 N           6.2594   76.2070   29.1762 N.pl3   1  UNL1       -0.2879
     27 C           6.4288   74.7639   29.3657 C.3     1  UNL1        0.1242
     28 C           6.8295   74.4834   30.8166 C.3     1  UNL1        0.1636
     29 O           5.9129   75.0821   31.7142 O.3     1  UNL1       -0.3501
     30 C           5.9693   76.4914   31.5903 C.3     1  UNL1        0.1636
     31 C           5.5075   76.9368   30.1986 C.3     1  UNL1        0.1242
     32 N          12.5360   80.7790   24.9423 N.am    1  UNL1       -0.2681
     33 C          12.6168   82.1859   24.6677 C.2     1  UNL1        0.3082
     34 O          11.6216   82.9327   24.8736 O.2     1  UNL1       -0.2522
     35 N          13.8411   82.7347   24.1564 N.am    1  UNL1       -0.2681
     36 H          13.4343   80.2502   25.0180 H       1  UNL1        0.1564
     37 H          14.5376   82.0676   23.7537 H       1  UNL1        0.1564
     38 C          14.1103   84.1428   24.0445 C.ar    1  UNL1        0.0516
     39 C          14.4887   84.6737   22.8027 C.ar    1  UNL1        0.0144
     40 C          14.7732   86.0354   22.6703 C.ar    1  UNL1       -0.0029
     41 C          14.7063   86.8846   23.7858 C.ar    1  UNL1       -0.0207
     42 C          14.3417   86.3540   25.0323 C.ar    1  UNL1       -0.0029
     43 C          14.0565   84.9919   25.1642 C.ar    1  UNL1        0.0144
     44 C          14.9671   88.3610   23.6355 C.3     1  UNL1        0.0437
     45 C          15.6142   88.6788   22.2803 C.3     1  UNL1        0.0769
     46 N          17.0873   88.5643   22.3497 N.3     1  UNL1       -0.2681
     47 C          17.7101   89.0736   21.1112 C.3     1  UNL1        0.1046
     48 C          19.2382   89.2025   21.2713 C.3     1  UNL1        0.1595
     49 O          19.6871   88.4903   22.4063 O.3     1  UNL1       -0.3508
     50 C          19.1660   89.0848   23.5827 C.3     1  UNL1        0.1595
     51 C          17.6360   89.2805   23.5165 C.3     1  UNL1        0.1046
@<TRIPOS>BOND
     1    24    25    1
     2    25    16    1
     3    16    17    2
     4    16    18   am
     5    18    19    1
     6    19    20    1
     7    20    21    1
     8    21     7    1
     9     7     8   ar
    10     8     9   ar
    11     9    10   ar
    12    10    11   ar
    13    11    26    1
    14    26    27    1
    15    27    28    1
    16    28    29    1
    17    29    30    1
    18    30    31    1
    19    11    12   ar
    20    12    13   ar
    21    13     1    1
    22     1     2   ar
    23     2     3   ar
    24     3     4   ar
    25     4    32    1
    26    32    33   am
    27    33    34    2
    28    33    35   am
    29    35    38    1
    30    38    39   ar
    31    39    40   ar
    32    40    41   ar
    33    41    44    1
    34    44    45    1
    35    45    46    1
    36    46    47    1
    37    47    48    1
    38    48    49    1
    39    49    50    1
    40    50    51    1
    41    41    42   ar
    42    42    43   ar
    43     4     5   ar
    44     5     6   ar
    45    13    14   ar
    46    14    15   ar
    47    21    22    1
    48    22    23    1
    49    23    18    1
    50    15     7   ar
    51    15    10   ar
    52    31    26    1
    53     6     1   ar
    54    43    38   ar
    55    51    46    1
    56    32    36    1
    57    35    37    1
@<TRIPOS>MOLECULE
*****
 51 57 0 0 0
SMALL
GASTEIGER

@<TRIPOS>ATOM
      1 C          13.3260   82.2886   24.6321 C.ar    1  UNL1        0.0360
      2 C          11.9712   81.9097   24.6097 C.ar    1  UNL1        0.0043
      3 C          11.6010   80.5787   24.8225 C.ar    1  UNL1        0.0148
      4 C          12.5788   79.5956   25.0487 C.ar    1  UNL1        0.0516
      5 C          13.9270   79.9745   25.0961 C.ar    1  UNL1        0.0148
      6 C          14.2998   81.3046   24.8827 C.ar    1  UNL1        0.0043
      7 N          14.4540   86.1127   21.8049 N.ar    1  UNL1       -0.2357
      8 N          14.6894   87.3923   22.0851 N.ar    1  UNL1       -0.1663
      9 C          14.6898   87.5420   23.4341 C.ar    1  UNL1        0.1260
     10 C          14.4316   86.3116   24.0058 C.ar    1  UNL1        0.0880
     11 C          14.2382   85.8622   25.3081 C.ar    1  UNL1        0.1380
     12 N          13.8764   84.5538   25.4724 N.ar    1  UNL1       -0.2117
     13 C          13.7198   83.7009   24.4057 C.ar    1  UNL1        0.1653
     14 N          13.9189   84.1637   23.1319 N.ar    1  UNL1       -0.2079
     15 C          14.2781   85.4586   22.9642 C.ar    1  UNL1        0.1652
     16 C          14.5678   84.7156   16.3442 C.2     1  UNL1        0.4050
     17 O          14.5740   83.4961   16.0173 O.2     1  UNL1       -0.2262
     18 N          14.8151   85.0945   17.7118 N.am    1  UNL1       -0.2459
     19 C          15.2086   84.0598   18.6819 C.3     1  UNL1        0.0987
     20 C          15.4384   84.6482   20.0785 C.3     1  UNL1        0.0461
     21 C          14.2704   85.5731   20.4542 C.3     1  UNL1        0.1102
     22 C          14.0810   86.7261   19.4369 C.3     1  UNL1        0.0461
     23 C          14.8226   86.5118   18.1056 C.3     1  UNL1        0.0987
     24 C          14.6853   85.5336   14.0098 C.3     1  UNL1        0.2573
     25 O          14.3220   85.6953   15.3756 O.3     1  UNL1       -0.4304
     26 N          14.3705   86.7314   26.4432 N.pl3   1  UNL1       -0.2879
     27 C          15.0639   88.0144   26.3007 C.3     1  UNL1        0.1242
     28 C          14.5866   88.9762   27.3922 C.3     1  UNL1        0.1636
     29 O          14.7173   88.3860   28.6724 O.3     1  UNL1       -0.3501
     30 C          13.8562   87.2668   28.7759 C.3     1  UNL1        0.1636
     31 C          14.2673   86.1677   27.7904 C.3     1  UNL1        0.1242
     32 N          12.2226   78.2242   25.2941 N.am    1  UNL1       -0.2681
     33 C          11.1733   77.8096   26.1820 C.2     1  UNL1        0.3082
     34 O          10.3648   78.6563   26.6511 O.2     1  UNL1       -0.2522
     35 N          11.0529   76.4221   26.5311 N.am    1  UNL1       -0.2681
     36 H          12.6925   77.4846   24.7245 H       1  UNL1        0.1564
     37 H          11.8763   75.8053   26.3470 H       1  UNL1        0.1564
     38 C           9.9304   75.8601   27.2322 C.ar    1  UNL1        0.0516
     39 C          10.1091   75.3673   28.5331 C.ar    1  UNL1        0.0144
     40 C           9.0390   74.7999   29.2301 C.ar    1  UNL1       -0.0029
     41 C           7.7764   74.6953   28.6263 C.ar    1  UNL1       -0.0207
     42 C           7.5977   75.1747   27.3199 C.ar    1  UNL1       -0.0029
     43 C           8.6682   75.7427   26.6232 C.ar    1  UNL1        0.0144
     44 C           6.6104   74.1268   29.3929 C.3     1  UNL1        0.0437
     45 C           6.5816   74.6509   30.8354 C.3     1  UNL1        0.0769
     46 N           5.6096   75.7560   30.9848 N.3     1  UNL1       -0.2681
     47 C           6.2520   77.0575   30.7125 C.3     1  UNL1        0.1046
     48 C           5.2031   78.1828   30.6087 C.3     1  UNL1        0.1595
     49 O           3.9602   77.7622   31.1335 O.3     1  UNL1       -0.3508
     50 C           3.4289   76.7207   30.3323 C.3     1  UNL1        0.1595
     51 C           4.4425   75.5795   30.1005 C.3     1  UNL1        0.1046
@<TRIPOS>BOND
     1    24    25    1
     2    25    16    1
     3    16    17    2
     4    16    18   am
     5    18    19    1
     6    19    20    1
     7    20    21    1
     8    21     7    1
     9     7     8   ar
    10     8     9   ar
    11     9    10   ar
    12    10    11   ar
    13    11    26    1
    14    26    27    1
    15    27    28    1
    16    28    29    1
    17    29    30    1
    18    30    31    1
    19    11    12   ar
    20    12    13   ar
    21    13     1    1
    22     1     2   ar
    23     2     3   ar
    24     3     4   ar
    25     4    32    1
    26    32    33   am
    27    33    34    2
    28    33    35   am
    29    35    38    1
    30    38    39   ar
    31    39    40   ar
    32    40    41   ar
    33    41    44    1
    34    44    45    1
    35    45    46    1
    36    46    47    1
    37    47    48    1
    38    48    49    1
    39    49    50    1
    40    50    51    1
    41    41    42   ar
    42    42    43   ar
    43     4     5   ar
    44     5     6   ar
    45    13    14   ar
    46    14    15   ar
    47    21    22    1
    48    22    23    1
    49    23    18    1
    50    15     7   ar
    51    15    10   ar
    52    31    26    1
    53     6     1   ar
    54    43    38   ar
    55    51    46    1
    56    32    36    1
    57    35    37    1
@<TRIPOS>MOLECULE
*****
 51 57 0 0 0
SMALL
GASTEIGER

@<TRIPOS>ATOM
      1 C          11.7344   79.6158   25.1905 C.ar    1  UNL1        0.0360
      2 C          13.1174   79.8121   25.0213 C.ar    1  UNL1        0.0043
      3 C          13.6701   81.0930   25.1085 C.ar    1  UNL1        0.0148
      4 C          12.8496   82.2069   25.3534 C.ar    1  UNL1        0.0516
      5 C          11.4757   82.0111   25.5470 C.ar    1  UNL1        0.0148
      6 C          10.9205   80.7314   25.4592 C.ar    1  UNL1        0.0043
      7 N           8.7176   76.0496   26.6292 N.ar    1  UNL1       -0.2357
      8 N           8.4350   74.8559   26.1128 N.ar    1  UNL1       -0.1663
      9 C           9.2553   74.6430   25.0527 C.ar    1  UNL1        0.1260
     10 C          10.0639   75.7524   24.9021 C.ar    1  UNL1        0.0880
     11 C          11.0237   76.1414   23.9729 C.ar    1  UNL1        0.1380
     12 N          11.5396   77.4018   24.0950 N.ar    1  UNL1       -0.2117
     13 C          11.1469   78.2567   25.0974 C.ar    1  UNL1        0.1653
     14 N          10.2031   77.8517   26.0038 N.ar    1  UNL1       -0.2079
     15 C           9.6897   76.6040   25.8875 C.ar    1  UNL1        0.1652
     16 C           5.8171   77.4816   31.2466 C.2     1  UNL1        0.4050
     17 O           6.1915   78.4755   31.9292 O.2     1  UNL1       -0.2262
     18 N           6.6862   76.9352   30.2361 N.am    1  UNL1       -0.2459
     19 C           8.0558   77.4593   30.1094 C.3     1  UNL1        0.0987
     20 C           8.8331   76.7538   28.9924 C.3     1  UNL1        0.0461
     21 C           7.9735   76.6852   27.7207 C.3     1  UNL1        0.1102
     22 C           6.6313   75.9480   27.9558 C.3     1  UNL1        0.0461
     23 C           6.2688   75.7702   29.4408 C.3     1  UNL1        0.0987
     24 C           3.4453   77.1424   30.6208 C.3     1  UNL1        0.2573
     25 O           4.5590   76.9131   31.4756 O.3     1  UNL1       -0.4304
     26 N          11.4396   75.2826   22.9001 N.pl3   1  UNL1       -0.2879
     27 C          11.8782   73.9150   23.1905 C.3     1  UNL1        0.1242
     28 C          11.7014   73.0466   21.9419 C.3     1  UNL1        0.1636
     29 O          12.3434   73.6364   20.8264 O.3     1  UNL1       -0.3501
     30 C          11.7157   74.8639   20.5040 C.3     1  UNL1        0.1636
     31 C          11.8846   75.8791   21.6393 C.3     1  UNL1        0.1242
     32 N          13.3969   83.5315   25.4716 N.am    1  UNL1       -0.2681
     33 C          13.8952   84.3004   24.3663 C.2     1  UNL1        0.3082
     34 O          13.6917   83.9179   23.1819 O.2     1  UNL1       -0.2522
     35 N          14.6275   85.5086   24.6218 N.am    1  UNL1       -0.2681
     36 H          13.3468   84.0028   26.4031 H       1  UNL1        0.1564
     37 H          15.0010   85.6511   25.5874 H       1  UNL1        0.1564
     38 C          14.9889   86.4634   23.6092 C.ar    1  UNL1        0.0516
     39 C          14.3745   87.7241   23.6026 C.ar    1  UNL1        0.0144
     40 C          14.6945   88.6641   22.6193 C.ar    1  UNL1       -0.0029
     41 C          15.6187   88.3481   21.6115 C.ar    1  UNL1       -0.0207
     42 C          16.2246   87.0827   21.6072 C.ar    1  UNL1       -0.0029
     43 C          15.9048   86.1429   22.5913 C.ar    1  UNL1        0.0144
     44 C          15.9998   89.3763   20.5780 C.3     1  UNL1        0.0437
     45 C          15.0441   89.3421   19.3773 C.3     1  UNL1        0.0769
     46 N          13.8477   88.5220   19.6676 N.3     1  UNL1       -0.2681
     47 C          12.6167   89.3258   19.5282 C.3     1  UNL1        0.1046
     48 C          11.3620   88.4307   19.5707 C.3     1  UNL1        0.1595
     49 O          11.6766   87.1468   20.0706 O.3     1  UNL1       -0.3508
     50 C          12.5449   86.4808   19.1698 C.3     1  UNL1        0.1595
     51 C          13.7730   87.3369   18.7928 C.3     1  UNL1        0.1046
@<TRIPOS>BOND
     1    24    25    1
     2    25    16    1
     3    16    17    2
     4    16    18   am
     5    18    19    1
     6    19    20    1
     7    20    21    1
     8    21     7    1
     9     7     8   ar
    10     8     9   ar
    11     9    10   ar
    12    10    11   ar
    13    11    26    1
    14    26    27    1
    15    27    28    1
    16    28    29    1
    17    29    30    1
    18    30    31    1
    19    11    12   ar
    20    12    13   ar
    21    13     1    1
    22     1     2   ar
    23     2     3   ar
    24     3     4   ar
    25     4    32    1
    26    32    33   am
    27    33    34    2
    28    33    35   am
    29    35    38    1
    30    38    39   ar
    31    39    40   ar
    32    40    41   ar
    33    41    44    1
    34    44    45    1
    35    45    46    1
    36    46    47    1
    37    47    48    1
    38    48    49    1
    39    49    50    1
    40    50    51    1
    41    41    42   ar
    42    42    43   ar
    43     4     5   ar
    44     5     6   ar
    45    13    14   ar
    46    14    15   ar
    47    21    22    1
    48    22    23    1
    49    23    18    1
    50    15     7   ar
    51    15    10   ar
    52    31    26    1
    53     6     1   ar
    54    43    38   ar
    55    51    46    1
    56    32    36    1
    57    35    37    1
@<TRIPOS>MOLECULE
*****
 51 57 0 0 0
SMALL
GASTEIGER

@<TRIPOS>ATOM
      1 C           8.9489   78.6785   25.9346 C.ar    1  UNL1        0.0360
      2 C           9.6346   78.4432   24.7287 C.ar    1  UNL1        0.0043
      3 C          10.8047   79.1457   24.4267 C.ar    1  UNL1        0.0148
      4 C          11.3066   80.1086   25.3182 C.ar    1  UNL1        0.0516
      5 C          10.6394   80.3272   26.5309 C.ar    1  UNL1        0.0148
      6 C           9.4687   79.6267   26.8346 C.ar    1  UNL1        0.0043
      7 N           4.5574   76.8282   24.8483 N.ar    1  UNL1       -0.2357
      8 N           3.7254   76.0433   25.5288 N.ar    1  UNL1       -0.1663
      9 C           4.2329   75.8593   26.7741 C.ar    1  UNL1        0.1260
     10 C           5.4285   76.5452   26.8594 C.ar    1  UNL1        0.0880
     11 C           6.4164   76.6668   27.8316 C.ar    1  UNL1        0.1380
     12 N           7.5451   77.3613   27.4947 N.ar    1  UNL1       -0.2117
     13 C           7.7065   77.9338   26.2554 C.ar    1  UNL1        0.1653
     14 N           6.7194   77.8049   25.3144 N.ar    1  UNL1       -0.2079
     15 C           5.5994   77.1186   25.6436 C.ar    1  UNL1        0.1652
     16 C           3.1096   77.5000   19.4411 C.2     1  UNL1        0.4050
     17 O           3.0676   78.6630   18.9515 O.2     1  UNL1       -0.2262
     18 N           3.2046   77.3236   20.8677 N.am    1  UNL1       -0.2459
     19 C           3.1119   78.5033   21.7431 C.3     1  UNL1        0.0987
     20 C           3.2231   78.1223   23.2237 C.3     1  UNL1        0.0461
     21 C           4.4114   77.1704   23.4302 C.3     1  UNL1        0.1102
     22 C           4.2902   75.8828   22.5772 C.3     1  UNL1        0.0461
     23 C           3.2426   75.9749   21.4537 C.3     1  UNL1        0.0987
     24 C           4.2095   75.6014   18.2932 C.3     1  UNL1        0.2573
     25 O           3.0621   76.3859   18.5956 O.3     1  UNL1       -0.4304
     26 N           6.2905   76.0619   29.1276 N.pl3   1  UNL1       -0.2879
     27 C           6.6056   74.6415   29.3018 C.3     1  UNL1        0.1242
     28 C           6.9691   74.3753   30.7652 C.3     1  UNL1        0.1636
     29 O           5.9544   74.8540   31.6286 O.3     1  UNL1       -0.3501
     30 C           5.8644   76.2635   31.5298 C.3     1  UNL1        0.1636
     31 C           5.4197   76.6859   30.1255 C.3     1  UNL1        0.1242
     32 N          12.5212   80.8273   25.0419 N.am    1  UNL1       -0.2681
     33 C          12.5698   82.2028   24.6334 C.2     1  UNL1        0.3082
     34 O          11.5338   82.9199   24.6881 O.2     1  UNL1       -0.2522
     35 N          13.8087   82.7544   24.1620 N.am    1  UNL1       -0.2681
     36 H          13.4302   80.3500   25.2374 H       1  UNL1        0.1564
     37 H          14.5596   82.0836   23.8817 H       1  UNL1        0.1564
     38 C          14.0321   84.1556   23.9287 C.ar    1  UNL1        0.0516
     39 C          14.5040   84.5774   22.6772 C.ar    1  UNL1        0.0144
     40 C          14.7464   85.9312   22.4299 C.ar    1  UNL1       -0.0029
     41 C          14.5423   86.8834   23.4405 C.ar    1  UNL1       -0.0207
     42 C          14.0835   86.4630   24.6979 C.ar    1  UNL1       -0.0029
     43 C          13.8406   85.1087   24.9448 C.ar    1  UNL1        0.0144
     44 C          14.7582   88.3483   23.1615 C.3     1  UNL1        0.0437
     45 C          13.4235   89.0977   23.0473 C.3     1  UNL1        0.0769
     46 N          13.0292   89.2779   21.6330 N.3     1  UNL1       -0.2681
     47 C          14.2209   89.3658   20.7653 C.3     1  UNL1        0.1046
     48 C          13.8292   89.2915   19.2759 C.3     1  UNL1        0.1595
     49 O          12.4425   89.5064   19.1089 O.3     1  UNL1       -0.3508
     50 C          11.7171   88.4471   19.7094 C.3     1  UNL1        0.1595
     51 C          12.1513   88.1877   21.1681 C.3     1  UNL1        0.1046
@<TRIPOS>BOND
     1    24    25    1
     2    25    16    1
     3    16    17    2
     4    16    18   am
     5    18    19    1
     6    19    20    1
     7    20    21    1
     8    21     7    1
     9     7     8   ar
    10     8     9   ar
    11     9    10   ar
    12    10    11   ar
    13    11    26    1
    14    26    27    1
    15    27    28    1
    16    28    29    1
    17    29    30    1
    18    30    31    1
    19    11    12   ar
    20    12    13   ar
    21    13     1    1
    22     1     2   ar
    23     2     3   ar
    24     3     4   ar
    25     4    32    1
    26    32    33   am
    27    33    34    2
    28    33    35   am
    29    35    38    1
    30    38    39   ar
    31    39    40   ar
    32    40    41   ar
    33    41    44    1
    34    44    45    1
    35    45    46    1
    36    46    47    1
    37    47    48    1
    38    48    49    1
    39    49    50    1
    40    50    51    1
    41    41    42   ar
    42    42    43   ar
    43     4     5   ar
    44     5     6   ar
    45    13    14   ar
    46    14    15   ar
    47    21    22    1
    48    22    23    1
    49    23    18    1
    50    15     7   ar
    51    15    10   ar
    52    31    26    1
    53     6     1   ar
    54    43    38   ar
    55    51    46    1
    56    32    36    1
    57    35    37    1
@<TRIPOS>MOLECULE
*****
 51 57 0 0 0
SMALL
GASTEIGER

@<TRIPOS>ATOM
      1 C          12.9548   82.3311   24.6977 C.ar    1  UNL1        0.0360
      2 C          13.7811   81.1939   24.7599 C.ar    1  UNL1        0.0043
      3 C          13.2356   79.9306   25.0054 C.ar    1  UNL1        0.0148
      4 C          11.8535   79.7793   25.2075 C.ar    1  UNL1        0.0516
      5 C          11.0254   80.9064   25.1214 C.ar    1  UNL1        0.0148
      6 C          11.5686   82.1708   24.8771 C.ar    1  UNL1        0.0043
      7 N          14.6538   85.8695   21.7853 N.ar    1  UNL1       -0.2357
      8 N          15.0416   87.1188   22.0302 N.ar    1  UNL1       -0.1663
      9 C          15.0174   87.3193   23.3723 C.ar    1  UNL1        0.1260
     10 C          14.5856   86.1545   23.9757 C.ar    1  UNL1        0.0880
     11 C          14.2941   85.7837   25.2846 C.ar    1  UNL1        0.1380
     12 N          13.7628   84.5390   25.4799 N.ar    1  UNL1       -0.2117
     13 C          13.5331   83.6723   24.4379 C.ar    1  UNL1        0.1653
     14 N          13.8310   84.0566   23.1573 N.ar    1  UNL1       -0.2079
     15 C          14.3581   85.2881   22.9589 C.ar    1  UNL1        0.1652
     16 C          14.6289   84.4186   16.3375 C.2     1  UNL1        0.4050
     17 O          14.6870   83.1975   16.0219 O.2     1  UNL1       -0.2262
     18 N          14.9088   84.8254   17.6907 N.am    1  UNL1       -0.2459
     19 C          15.3939   83.8238   18.6541 C.3     1  UNL1        0.0987
     20 C          15.6464   84.4392   20.0350 C.3     1  UNL1        0.0461
     21 C          14.4466   85.3057   20.4479 C.3     1  UNL1        0.1102
     22 C          14.1571   86.4357   19.4282 C.3     1  UNL1        0.0461
     23 C          14.8567   86.2455   18.0708 C.3     1  UNL1        0.0987
     24 C          14.6571   85.2395   14.0014 C.3     1  UNL1        0.2573
     25 O          14.2942   85.3730   15.3703 O.3     1  UNL1       -0.4304
     26 N          14.4996   86.6724   26.3935 N.pl3   1  UNL1       -0.2879
     27 C          15.3930   87.8246   26.2471 C.3     1  UNL1        0.1242
     28 C          15.0143   88.8972   27.2721 C.3     1  UNL1        0.1636
     29 O          14.9805   88.3523   28.5783 O.3     1  UNL1       -0.3501
     30 C          13.9498   87.3859   28.6697 C.3     1  UNL1        0.1636
     31 C          14.2358   86.1930   27.7514 C.3     1  UNL1        0.1242
     32 N          11.2650   78.4876   25.4377 N.am    1  UNL1       -0.2681
     33 C          10.1582   77.9604   24.6903 C.2     1  UNL1        0.3082
     34 O           9.7657   78.5391   23.6408 O.2     1  UNL1       -0.2522
     35 N           9.5025   76.7683   25.1489 N.am    1  UNL1       -0.2681
     36 H          11.7258   77.8533   26.1288 H       1  UNL1        0.1564
     37 H           9.6724   76.4742   26.1374 H       1  UNL1        0.1564
     38 C           8.5326   76.0341   24.3822 C.ar    1  UNL1        0.0516
     39 C           8.9028   74.8185   23.7887 C.ar    1  UNL1        0.0144
     40 C           7.9849   74.0939   23.0238 C.ar    1  UNL1       -0.0029
     41 C           6.6866   74.5870   22.8209 C.ar    1  UNL1       -0.0207
     42 C           6.3174   75.8095   23.4016 C.ar    1  UNL1       -0.0029
     43 C           7.2357   76.5339   24.1673 C.ar    1  UNL1        0.0144
     44 C           5.6814   73.7847   22.0356 C.3     1  UNL1        0.0437
     45 C           6.0020   73.8033   20.5346 C.3     1  UNL1        0.0769
     46 N           4.8692   74.3427   19.7512 N.3     1  UNL1       -0.2681
     47 C           3.6114   74.2508   20.5197 C.3     1  UNL1        0.1046
     48 C           2.4805   75.0389   19.8289 C.3     1  UNL1        0.1595
     49 O           2.8261   75.3494   18.4942 O.3     1  UNL1       -0.3508
     50 C           3.9272   76.2417   18.4789 C.3     1  UNL1        0.1595
     51 C           5.1046   75.7402   19.3425 C.3     1  UNL1        0.1046
@<TRIPOS>BOND
     1    24    25    1
     2    25    16    1
     3    16    17    2
     4    16    18   am
     5    18    19    1
     6    19    20    1
     7    20    21    1
     8    21     7    1
     9     7     8   ar
    10     8     9   ar
    11     9    10   ar
    12    10    11   ar
    13    11    26    1
    14    26    27    1
    15    27    28    1
    16    28    29    1
    17    29    30    1
    18    30    31    1
    19    11    12   ar
    20    12    13   ar
    21    13     1    1
    22     1     2   ar
    23     2     3   ar
    24     3     4   ar
    25     4    32    1
    26    32    33   am
    27    33    34    2
    28    33    35   am
    29    35    38    1
    30    38    39   ar
    31    39    40   ar
    32    40    41   ar
    33    41    44    1
    34    44    45    1
    35    45    46    1
    36    46    47    1
    37    47    48    1
    38    48    49    1
    39    49    50    1
    40    50    51    1
    41    41    42   ar
    42    42    43   ar
    43     4     5   ar
    44     5     6   ar
    45    13    14   ar
    46    14    15   ar
    47    21    22    1
    48    22    23    1
    49    23    18    1
    50    15     7   ar
    51    15    10   ar
    52    31    26    1
    53     6     1   ar
    54    43    38   ar
    55    51    46    1
    56    32    36    1
    57    35    37    1
@<TRIPOS>MOLECULE
*****
 51 57 0 0 0
SMALL
GASTEIGER

@<TRIPOS>ATOM
      1 C           8.8411   78.6344   25.8131 C.ar    1  UNL1        0.0360
      2 C           9.5402   79.3493   26.8030 C.ar    1  UNL1        0.0043
      3 C          10.7196   80.0308   26.4893 C.ar    1  UNL1        0.0148
      4 C          11.2324   80.0007   25.1816 C.ar    1  UNL1        0.0516
      5 C          10.5250   79.3102   24.1885 C.ar    1  UNL1        0.0148
      6 C           9.3461   78.6271   24.5000 C.ar    1  UNL1        0.0043
      7 N           4.4269   76.8217   24.7556 N.ar    1  UNL1       -0.2357
      8 N           3.5855   76.0578   25.4483 N.ar    1  UNL1       -0.1663
      9 C           4.0908   75.8871   26.6964 C.ar    1  UNL1        0.1260
     10 C           5.2948   76.5594   26.7710 C.ar    1  UNL1        0.0880
     11 C           6.2842   76.6840   27.7412 C.ar    1  UNL1        0.1380
     12 N           7.4213   77.3592   27.3936 N.ar    1  UNL1       -0.2117
     13 C           7.5897   77.9102   26.1455 C.ar    1  UNL1        0.1653
     14 N           6.6010   77.7787   25.2066 N.ar    1  UNL1       -0.2079
     15 C           5.4726   77.1116   25.5464 C.ar    1  UNL1        0.1652
     16 C           2.9797   77.4371   19.3417 C.2     1  UNL1        0.4050
     17 O           2.9643   78.5924   18.8326 O.2     1  UNL1       -0.2262
     18 N           3.0746   77.2825   20.7707 N.am    1  UNL1       -0.2459
     19 C           3.0131   78.4786   21.6263 C.3     1  UNL1        0.0987
     20 C           3.1194   78.1201   23.1128 C.3     1  UNL1        0.0461
     21 C           4.2850   77.1434   23.3324 C.3     1  UNL1        0.1102
     22 C           4.1303   75.8449   22.5016 C.3     1  UNL1        0.0461
     23 C           3.0819   75.9434   21.3793 C.3     1  UNL1        0.0987
     24 C           3.9470   75.3483   18.4287 C.3     1  UNL1        0.2573
     25 O           2.9028   76.3104   18.5152 O.3     1  UNL1       -0.4304
     26 N           6.1510   76.1012   29.0466 N.pl3   1  UNL1       -0.2879
     27 C           6.3923   74.6677   29.2319 C.3     1  UNL1        0.1242
     28 C           6.7692   74.3984   30.6913 C.3     1  UNL1        0.1636
     29 O           5.7987   74.9407   31.5677 O.3     1  UNL1       -0.3501
     30 C           5.7830   76.3519   31.4537 C.3     1  UNL1        0.1636
     31 C           5.3347   76.7823   30.0530 C.3     1  UNL1        0.1242
     32 N          12.4304   80.7132   24.8280 N.am    1  UNL1       -0.2681
     33 C          12.5178   82.1424   24.7223 C.2     1  UNL1        0.3082
     34 O          11.5744   82.8700   25.1359 O.2     1  UNL1       -0.2522
     35 N          13.6891   82.7355   24.1413 N.am    1  UNL1       -0.2681
     36 H          13.3164   80.1675   24.7303 H       1  UNL1        0.1564
     37 H          14.3154   82.1158   23.5792 H       1  UNL1        0.1564
     38 C          13.9825   84.1429   24.1737 C.ar    1  UNL1        0.0516
     39 C          14.0274   84.8075   25.4078 C.ar    1  UNL1        0.0144
     40 C          14.2927   86.1783   25.4662 C.ar    1  UNL1       -0.0029
     41 C          14.4944   86.9114   24.2865 C.ar    1  UNL1       -0.0207
     42 C          14.4364   86.2521   23.0495 C.ar    1  UNL1       -0.0029
     43 C          14.1715   84.8808   22.9915 C.ar    1  UNL1        0.0144
     44 C          14.8269   88.3797   24.3499 C.3     1  UNL1        0.0437
     45 C          15.4167   88.7604   25.7150 C.3     1  UNL1        0.0769
     46 N          16.8955   88.7418   25.6840 N.3     1  UNL1       -0.2681
     47 C          17.3982   89.2777   24.4030 C.3     1  UNL1        0.1046
     48 C          18.9220   89.5064   24.4573 C.3     1  UNL1        0.1595
     49 O          19.4924   88.8360   25.5629 O.3     1  UNL1       -0.3508
     50 C          19.0149   89.4074   26.7688 C.3     1  UNL1        0.1595
     51 C          17.4745   89.5035   26.8065 C.3     1  UNL1        0.1046
@<TRIPOS>BOND
     1    24    25    1
     2    25    16    1
     3    16    17    2
     4    16    18   am
     5    18    19    1
     6    19    20    1
     7    20    21    1
     8    21     7    1
     9     7     8   ar
    10     8     9   ar
    11     9    10   ar
    12    10    11   ar
    13    11    26    1
    14    26    27    1
    15    27    28    1
    16    28    29    1
    17    29    30    1
    18    30    31    1
    19    11    12   ar
    20    12    13   ar
    21    13     1    1
    22     1     2   ar
    23     2     3   ar
    24     3     4   ar
    25     4    32    1
    26    32    33   am
    27    33    34    2
    28    33    35   am
    29    35    38    1
    30    38    39   ar
    31    39    40   ar
    32    40    41   ar
    33    41    44    1
    34    44    45    1
    35    45    46    1
    36    46    47    1
    37    47    48    1
    38    48    49    1
    39    49    50    1
    40    50    51    1
    41    41    42   ar
    42    42    43   ar
    43     4     5   ar
    44     5     6   ar
    45    13    14   ar
    46    14    15   ar
    47    21    22    1
    48    22    23    1
    49    23    18    1
    50    15     7   ar
    51    15    10   ar
    52    31    26    1
    53     6     1   ar
    54    43    38   ar
    55    51    46    1
    56    32    36    1
    57    35    37    1
@<TRIPOS>MOLECULE
*****
 51 57 0 0 0
SMALL
GASTEIGER

@<TRIPOS>ATOM
      1 C           9.4129   78.3587   24.2058 C.ar    1  UNL1        0.0360
      2 C           9.5089   79.4152   23.2815 C.ar    1  UNL1        0.0043
      3 C          10.6091   80.2773   23.2980 C.ar    1  UNL1        0.0148
      4 C          11.6303   80.1095   24.2481 C.ar    1  UNL1        0.0516
      5 C          11.5494   79.0433   25.1537 C.ar    1  UNL1        0.0148
      6 C          10.4498   78.1806   25.1399 C.ar    1  UNL1        0.0043
      7 N           5.8161   75.8231   26.3325 N.ar    1  UNL1       -0.2357
      8 N           4.8122   75.1062   25.8330 N.ar    1  UNL1       -0.1663
      9 C           4.9569   75.0481   24.4848 C.ar    1  UNL1        0.1260
     10 C           6.0843   75.7674   24.1396 C.ar    1  UNL1        0.0880
     11 C           6.6847   76.1220   22.9357 C.ar    1  UNL1        0.1380
     12 N           7.7583   76.9668   22.9957 N.ar    1  UNL1       -0.2117
     13 C           8.2451   77.4438   24.1894 C.ar    1  UNL1        0.1653
     14 N           7.6409   77.0788   25.3633 N.ar    1  UNL1       -0.2079
     15 C           6.5778   76.2416   25.3091 C.ar    1  UNL1        0.1652
     16 C           6.9131   78.1278   31.3594 C.2     1  UNL1        0.4050
     17 O           5.9726   78.2845   32.1869 O.2     1  UNL1       -0.2262
     18 N           6.6169   77.8030   29.9876 N.am    1  UNL1       -0.2459
     19 C           5.2147   77.7947   29.5401 C.3     1  UNL1        0.0987
     20 C           5.0946   77.4387   28.0540 C.3     1  UNL1        0.0461
     21 C           5.9518   76.2023   27.7421 C.3     1  UNL1        0.1102
     22 C           7.4443   76.4146   28.0995 C.3     1  UNL1        0.0461
     23 C           7.7015   77.6289   29.0092 C.3     1  UNL1        0.0987
     24 C           9.0778   79.3301   31.3273 C.3     1  UNL1        0.2573
     25 O           8.2407   78.2719   31.7779 O.3     1  UNL1       -0.4304
     26 N           6.1879   75.6609   21.6699 N.pl3   1  UNL1       -0.2879
     27 C           6.5376   74.3193   21.1956 C.3     1  UNL1        0.1242
     28 C           5.4824   73.8410   20.1946 C.3     1  UNL1        0.1636
     29 O           5.3039   74.7926   19.1617 O.3     1  UNL1       -0.3501
     30 C           4.7750   75.9913   19.6984 C.3     1  UNL1        0.1636
     31 C           5.7683   76.6416   20.6672 C.3     1  UNL1        0.1242
     32 N          12.7839   80.9678   24.2705 N.am    1  UNL1       -0.2681
     33 C          12.7375   82.3749   24.5523 C.2     1  UNL1        0.3082
     34 O          11.6808   82.9003   24.9971 O.2     1  UNL1       -0.2522
     35 N          13.9051   83.1782   24.3229 N.am    1  UNL1       -0.2681
     36 H          13.7262   80.5279   24.1660 H       1  UNL1        0.1564
     37 H          14.6562   82.7758   23.7176 H       1  UNL1        0.1564
     38 C          14.0471   84.5404   24.7610 C.ar    1  UNL1        0.0516
     39 C          14.2500   84.8069   26.1229 C.ar    1  UNL1        0.0144
     40 C          14.3734   86.1225   26.5776 C.ar    1  UNL1       -0.0029
     41 C          14.2720   87.1951   25.6782 C.ar    1  UNL1       -0.0207
     42 C          14.0551   86.9325   24.3173 C.ar    1  UNL1       -0.0029
     43 C          13.9323   85.6163   23.8626 C.ar    1  UNL1        0.0144
     44 C          14.4514   88.6118   26.1593 C.3     1  UNL1        0.0437
     45 C          15.1123   89.4868   25.0851 C.3     1  UNL1        0.0769
     46 N          16.5831   89.5076   25.2409 N.3     1  UNL1       -0.2681
     47 C          16.9747   89.0062   26.5737 C.3     1  UNL1        0.1046
     48 C          18.4974   88.7775   26.6549 C.3     1  UNL1        0.1595
     49 O          19.1603   89.4189   25.5842 O.3     1  UNL1       -0.3508
     50 C          18.7860   88.8153   24.3577 C.3     1  UNL1        0.1595
     51 C          17.2542   88.7170   24.1921 C.3     1  UNL1        0.1046
@<TRIPOS>BOND
     1    24    25    1
     2    25    16    1
     3    16    17    2
     4    16    18   am
     5    18    19    1
     6    19    20    1
     7    20    21    1
     8    21     7    1
     9     7     8   ar
    10     8     9   ar
    11     9    10   ar
    12    10    11   ar
    13    11    26    1
    14    26    27    1
    15    27    28    1
    16    28    29    1
    17    29    30    1
    18    30    31    1
    19    11    12   ar
    20    12    13   ar
    21    13     1    1
    22     1     2   ar
    23     2     3   ar
    24     3     4   ar
    25     4    32    1
    26    32    33   am
    27    33    34    2
    28    33    35   am
    29    35    38    1
    30    38    39   ar
    31    39    40   ar
    32    40    41   ar
    33    41    44    1
    34    44    45    1
    35    45    46    1
    36    46    47    1
    37    47    48    1
    38    48    49    1
    39    49    50    1
    40    50    51    1
    41    41    42   ar
    42    42    43   ar
    43     4     5   ar
    44     5     6   ar
    45    13    14   ar
    46    14    15   ar
    47    21    22    1
    48    22    23    1
    49    23    18    1
    50    15     7   ar
    51    15    10   ar
    52    31    26    1
    53     6     1   ar
    54    43    38   ar
    55    51    46    1
    56    32    36    1
    57    35    37    1
@<TRIPOS>MOLECULE
*****
 51 57 0 0 0
SMALL
GASTEIGER

@<TRIPOS>ATOM
      1 C           8.3546   78.2348   23.8626 C.ar    1  UNL1        0.0360
      2 C           8.8372   78.2328   25.1842 C.ar    1  UNL1        0.0043
      3 C          10.0524   78.8477   25.4990 C.ar    1  UNL1        0.0148
      4 C          10.8177   79.4660   24.4960 C.ar    1  UNL1        0.0516
      5 C          10.3275   79.4911   23.1836 C.ar    1  UNL1        0.0148
      6 C           9.1132   78.8760   22.8662 C.ar    1  UNL1        0.0043
      7 N           4.1554   76.0093   25.0041 N.ar    1  UNL1       -0.2357
      8 N           3.1193   75.6224   24.2637 N.ar    1  UNL1       -0.1663
      9 C           3.4212   75.8395   22.9583 C.ar    1  UNL1        0.1260
     10 C           4.6847   76.3933   22.8931 C.ar    1  UNL1        0.0880
     11 C           5.4813   76.8879   21.8652 C.ar    1  UNL1        0.1380
     12 N           6.6615   77.4819   22.2174 N.ar    1  UNL1       -0.2117
     13 C           7.0653   77.5817   23.5277 C.ar    1  UNL1        0.1653
     14 N           6.2670   77.0845   24.5236 N.ar    1  UNL1       -0.2079
     15 C           5.0976   76.4947   24.1797 C.ar    1  UNL1        0.1652
     16 C           5.2266   76.5204   30.5155 C.2     1  UNL1        0.4050
     17 O           4.3656   77.0584   31.2661 O.2     1  UNL1       -0.2262
     18 N           5.0991   76.6259   29.0845 N.am    1  UNL1       -0.2459
     19 C           4.0400   77.4784   28.5205 C.3     1  UNL1        0.0987
     20 C           4.0642   77.4757   26.9879 C.3     1  UNL1        0.0461
     21 C           4.1725   76.0332   26.4698 C.3     1  UNL1        0.1102
     22 C           5.4333   75.3084   27.0037 C.3     1  UNL1        0.0461
     23 C           6.1005   76.0144   28.1973 C.3     1  UNL1        0.0987
     24 C           6.6003   74.4731   30.7472 C.3     1  UNL1        0.2573
     25 O           6.3031   75.8245   31.0770 O.3     1  UNL1       -0.4304
     26 N           5.0795   76.8213   20.4885 N.pl3   1  UNL1       -0.2879
     27 C           5.0698   75.5306   19.7946 C.3     1  UNL1        0.1242
     28 C           4.0962   75.5932   18.6145 C.3     1  UNL1        0.1636
     29 O           4.3914   76.6978   17.7796 O.3     1  UNL1       -0.3501
     30 C           4.1788   77.9056   18.4871 C.3     1  UNL1        0.1636
     31 C           5.1527   78.0286   19.6638 C.3     1  UNL1        0.1242
     32 N          12.0590   80.1263   24.7980 N.am    1  UNL1       -0.2681
     33 C          12.2385   81.5507   24.7882 C.2     1  UNL1        0.3082
     34 O          11.2407   82.3174   24.7030 O.2     1  UNL1       -0.2522
     35 N          13.5645   82.0943   24.8760 N.am    1  UNL1       -0.2681
     36 H          12.8575   79.5420   25.1346 H       1  UNL1        0.1564
     37 H          14.3638   81.4505   24.6786 H       1  UNL1        0.1564
     38 C          13.8542   83.4869   25.0870 C.ar    1  UNL1        0.0516
     39 C          14.0433   83.9593   26.3939 C.ar    1  UNL1        0.0144
     40 C          14.3084   85.3112   26.6282 C.ar    1  UNL1       -0.0029
     41 C          14.3652   86.2175   25.5581 C.ar    1  UNL1       -0.0207
     42 C          14.1627   85.7506   24.2508 C.ar    1  UNL1       -0.0029
     43 C          13.8981   84.3980   24.0167 C.ar    1  UNL1        0.0144
     44 C          14.6972   87.6666   25.8043 C.3     1  UNL1        0.0437
     45 C          15.2862   87.8741   27.2066 C.3     1  UNL1        0.0769
     46 N          14.2279   88.1873   28.1915 N.3     1  UNL1       -0.2681
     47 C          14.7814   88.9495   29.3289 C.3     1  UNL1        0.1046
     48 C          13.6559   89.5037   30.2253 C.3     1  UNL1        0.1595
     49 O          12.4267   88.8672   29.9410 O.3     1  UNL1       -0.3508
     50 C          12.0111   89.1921   28.6255 C.3     1  UNL1        0.1595
     51 C          13.1172   88.9396   27.5785 C.3     1  UNL1        0.1046
@<TRIPOS>BOND
     1    24    25    1
     2    25    16    1
     3    16    17    2
     4    16    18   am
     5    18    19    1
     6    19    20    1
     7    20    21    1
     8    21     7    1
     9     7     8   ar
    10     8     9   ar
    11     9    10   ar
    12    10    11   ar
    13    11    26    1
    14    26    27    1
    15    27    28    1
    16    28    29    1
    17    29    30    1
    18    30    31    1
    19    11    12   ar
    20    12    13   ar
    21    13     1    1
    22     1     2   ar
    23     2     3   ar
    24     3     4   ar
    25     4    32    1
    26    32    33   am
    27    33    34    2
    28    33    35   am
    29    35    38    1
    30    38    39   ar
    31    39    40   ar
    32    40    41   ar
    33    41    44    1
    34    44    45    1
    35    45    46    1
    36    46    47    1
    37    47    48    1
    38    48    49    1
    39    49    50    1
    40    50    51    1
    41    41    42   ar
    42    42    43   ar
    43     4     5   ar
    44     5     6   ar
    45    13    14   ar
    46    14    15   ar
    47    21    22    1
    48    22    23    1
    49    23    18    1
    50    15     7   ar
    51    15    10   ar
    52    31    26    1
    53     6     1   ar
    54    43    38   ar
    55    51    46    1
    56    32    36    1
    57    35    37    1
@<TRIPOS>MOLECULE
*****
 51 57 0 0 0
SMALL
GASTEIGER

@<TRIPOS>ATOM
      1 C          10.5333   78.7765   24.2666 C.ar    1  UNL1        0.0360
      2 C          11.8629   78.8844   24.7140 C.ar    1  UNL1        0.0043
      3 C          12.3935   80.1259   25.0757 C.ar    1  UNL1        0.0148
      4 C          11.6097   81.2884   24.9847 C.ar    1  UNL1        0.0516
      5 C          10.2778   81.1803   24.5632 C.ar    1  UNL1        0.0148
      6 C           9.7454   79.9401   24.1999 C.ar    1  UNL1        0.0043
      7 N           6.8537   75.6551   23.4881 N.ar    1  UNL1       -0.2357
      8 N           6.8190   74.4212   22.9904 N.ar    1  UNL1       -0.1663
      9 C           8.0949   74.0070   22.7837 C.ar    1  UNL1        0.1260
     10 C           8.9467   75.0287   23.1551 C.ar    1  UNL1        0.0880
     11 C          10.3240   75.2184   23.1026 C.ar    1  UNL1        0.1380
     12 N          10.8017   76.4469   23.4660 N.ar    1  UNL1       -0.2117
     13 C           9.9697   77.4592   23.8817 C.ar    1  UNL1        0.1653
     14 N           8.6169   77.2495   23.9294 N.ar    1  UNL1       -0.2079
     15 C           8.1390   76.0341   23.5712 C.ar    1  UNL1        0.1652
     16 C           1.7552   77.9317   24.2672 C.2     1  UNL1        0.4050
     17 O           1.5404   78.6313   25.2961 O.2     1  UNL1       -0.2262
     18 N           2.9444   77.1231   24.1832 N.am    1  UNL1       -0.2459
     19 C           3.8239   77.0182   25.3588 C.3     1  UNL1        0.0987
     20 C           5.0294   76.1111   25.0875 C.3     1  UNL1        0.0461
     21 C           5.6736   76.4864   23.7440 C.3     1  UNL1        0.1102
     22 C           4.6767   76.3812   22.5627 C.3     1  UNL1        0.0461
     23 C           3.2027   76.2937   22.9961 C.3     1  UNL1        0.0987
     24 C           0.9788   78.7893   22.0777 C.3     1  UNL1        0.2573
     25 O           0.8357   77.9433   23.2123 O.3     1  UNL1       -0.4304
     26 N          11.2194   74.1908   22.6512 N.pl3   1  UNL1       -0.2879
     27 C          11.6516   73.1425   23.5793 C.3     1  UNL1        0.1242
     28 C          12.0767   71.9032   22.7870 C.3     1  UNL1        0.1636
     29 O          13.0397   72.2417   21.8060 O.3     1  UNL1       -0.3501
     30 C          12.4626   73.1049   20.8435 C.3     1  UNL1        0.1636
     31 C          12.0594   74.4400   21.4783 C.3     1  UNL1        0.1242
     32 N          12.1243   82.5737   25.3737 N.am    1  UNL1       -0.2681
     33 C          13.0419   83.3475   24.5860 C.2     1  UNL1        0.3082
     34 O          13.2946   83.0168   23.3954 O.2     1  UNL1       -0.2522
     35 N          13.6694   84.5012   25.1662 N.am    1  UNL1       -0.2681
     36 H          11.7391   83.0163   26.2385 H       1  UNL1        0.1564
     37 H          13.6476   84.5896   26.2074 H       1  UNL1        0.1564
     38 C          14.4328   85.4656   24.4215 C.ar    1  UNL1        0.0516
     39 C          14.9672   85.1056   23.1758 C.ar    1  UNL1        0.0144
     40 C          15.7279   86.0179   22.4396 C.ar    1  UNL1       -0.0029
     41 C          15.9859   87.2995   22.9502 C.ar    1  UNL1       -0.0207
     42 C          15.4644   87.6580   24.2023 C.ar    1  UNL1       -0.0029
     43 C          14.7031   86.7454   24.9382 C.ar    1  UNL1        0.0144
     44 C          16.7661   88.3001   22.1374 C.3     1  UNL1        0.0437
     45 C          16.2054   88.4219   20.7137 C.3     1  UNL1        0.0769
     46 N          14.7403   88.2189   20.6954 N.3     1  UNL1       -0.2681
     47 C          14.0323   89.5063   20.8444 C.3     1  UNL1        0.1046
     48 C          12.5241   89.3452   20.5676 C.3     1  UNL1        0.1595
     49 O          12.1520   87.9820   20.5859 O.3     1  UNL1       -0.3508
     50 C          12.7745   87.3003   19.5105 C.3     1  UNL1        0.1595
     51 C          14.2980   87.5449   19.4603 C.3     1  UNL1        0.1046
@<TRIPOS>BOND
     1    24    25    1
     2    25    16    1
     3    16    17    2
     4    16    18   am
     5    18    19    1
     6    19    20    1
     7    20    21    1
     8    21     7    1
     9     7     8   ar
    10     8     9   ar
    11     9    10   ar
    12    10    11   ar
    13    11    26    1
    14    26    27    1
    15    27    28    1
    16    28    29    1
    17    29    30    1
    18    30    31    1
    19    11    12   ar
    20    12    13   ar
    21    13     1    1
    22     1     2   ar
    23     2     3   ar
    24     3     4   ar
    25     4    32    1
    26    32    33   am
    27    33    34    2
    28    33    35   am
    29    35    38    1
    30    38    39   ar
    31    39    40   ar
    32    40    41   ar
    33    41    44    1
    34    44    45    1
    35    45    46    1
    36    46    47    1
    37    47    48    1
    38    48    49    1
    39    49    50    1
    40    50    51    1
    41    41    42   ar
    42    42    43   ar
    43     4     5   ar
    44     5     6   ar
    45    13    14   ar
    46    14    15   ar
    47    21    22    1
    48    22    23    1
    49    23    18    1
    50    15     7   ar
    51    15    10   ar
    52    31    26    1
    53     6     1   ar
    54    43    38   ar
    55    51    46    1
    56    32    36    1
    57    35    37    1
