@<TRIPOS>MOLECULE
*****
 37 41 0 0 0
SMALL
GASTEIGER

@<TRIPOS>ATOM
      1 C          46.4806   12.1312  -22.8049 C.2     1  UNL1        0.3045
      2 O          45.6351   12.3924  -21.9064 O.2     1  UNL1       -0.2647
      3 N          47.5961   11.2659  -22.5047 N.am    1  UNL1       -0.2720
      4 C          48.8616   11.3803  -23.2483 C.3     1  UNL1        0.0976
      5 C          50.0416   10.8710  -22.4136 C.3     1  UNL1        0.0651
      6 C          49.8312    9.4202  -21.9169 C.3     1  UNL1        0.1693
      7 C          48.3470    9.0899  -21.6388 C.3     1  UNL1        0.0651
      8 C          47.5058   10.3400  -21.3661 C.3     1  UNL1        0.0976
      9 C          46.1467   12.9388  -26.2112 C.ar    1  UNL1        0.2501
     10 N          45.8365   14.1365  -25.6770 N.ar    1  UNL1       -0.1068
     11 N          45.9222   13.9922  -24.3636 N.ar    1  UNL1       -0.1021
     12 C          46.2836   12.7132  -24.1450 C.ar    1  UNL1        0.3042
     13 O          46.4192   12.0622  -25.2748 O.2     1  UNL1       -0.4122
     14 C          46.2444   12.0812  -30.4183 C.ar    1  UNL1        0.1387
     15 C          46.5188   11.0710  -29.4772 C.ar    1  UNL1        0.0371
     16 C          46.4854   11.3543  -28.1084 C.ar    1  UNL1        0.0078
     17 C          46.1783   12.6478  -27.6574 C.ar    1  UNL1        0.0553
     18 C          45.9050   13.6541  -28.5976 C.ar    1  UNL1        0.0078
     19 C          45.9385   13.3696  -29.9659 C.ar    1  UNL1        0.0371
     20 C          45.8824   12.8042  -32.7839 C.3     1  UNL1        0.2525
     21 O          46.2653   11.8474  -31.8014 O.3     1  UNL1       -0.4714
     22 O          50.3321    8.4862  -22.8785 O.3     1  UNL1       -0.4791
     23 C          50.7034    8.7851  -24.2002 C.ar    1  UNL1        0.1384
     24 C          49.8472    8.3830  -25.2311 C.ar    1  UNL1        0.0366
     25 C          50.1588    8.6608  -26.5643 C.ar    1  UNL1        0.0002
     26 C          51.3308    9.3630  -26.8892 C.ar    1  UNL1       -0.0059
     27 C          52.2066    9.7402  -25.8589 C.ar    1  UNL1        0.0002
     28 C          51.8951    9.4615  -24.5250 C.ar    1  UNL1        0.0366
     29 C          51.6723    9.6548  -28.3366 C.3     1  UNL1        0.0991
     30 N          52.1158    8.4800  -29.1249 N.3     1  UNL1       -0.2703
     31 C          53.5537    8.4317  -29.3830 C.3     1  UNL1        0.0724
     32 C          53.7394    7.4166  -30.4920 C.3     1  UNL1        0.0187
     33 C          52.4428    7.4608  -31.2859 C.3     1  UNL1        0.0174
     34 C          51.4498    8.2591  -30.4195 C.3     1  UNL1        0.0578
     35 C          50.0677    7.5732  -30.2277 C.3     1  UNL1        0.0147
     36 C          49.6383    6.7236  -31.4356 C.3     1  UNL1        0.0014
     37 C          48.9757    8.5868  -29.8568 C.3     1  UNL1        0.0014
@<TRIPOS>BOND
     1    20    21    1
     2    21    14    1
     3    14    15   ar
     4    15    16   ar
     5    16    17   ar
     6    17     9    1
     7     9    10   ar
     8    10    11   ar
     9    11    12   ar
    10    12     1    1
    11     1     2    2
    12     1     3   am
    13     3     4    1
    14     4     5    1
    15     5     6    1
    16     6    22    1
    17    22    23    1
    18    23    24   ar
    19    24    25   ar
    20    25    26   ar
    21    26    29    1
    22    29    30    1
    23    30    31    1
    24    31    32    1
    25    32    33    1
    26    33    34    1
    27    34    35    1
    28    35    36    1
    29    35    37    1
    30    26    27   ar
    31    27    28   ar
    32     6     7    1
    33     7     8    1
    34    12    13   ar
    35    17    18   ar
    36    18    19   ar
    37    19    14   ar
    38    13     9   ar
    39     8     3    1
    40    28    23   ar
    41    34    30    1
@<TRIPOS>MOLECULE
*****
 37 41 0 0 0
SMALL
GASTEIGER

@<TRIPOS>ATOM
      1 C          52.3397   10.9161  -24.6326 C.2     1  UNL1        0.3045
      2 O          53.4276   11.1630  -24.0443 O.2     1  UNL1       -0.2647
      3 N          51.1099   10.8933  -23.8775 N.am    1  UNL1       -0.2720
      4 C          49.9650   10.0824  -24.3240 C.3     1  UNL1        0.0976
      5 C          49.0637    9.7012  -23.1446 C.3     1  UNL1        0.0651
      6 C          48.5783   10.9367  -22.3486 C.3     1  UNL1        0.1693
      7 C          49.6129   12.0850  -22.3323 C.3     1  UNL1        0.0651
      8 C          51.0412   11.5956  -22.5875 C.3     1  UNL1        0.0976
      9 C          52.0339    9.8463  -27.9685 C.ar    1  UNL1        0.2501
     10 N          52.7976   10.9393  -28.1644 N.ar    1  UNL1       -0.1068
     11 N          53.0076   11.4666  -26.9682 N.ar    1  UNL1       -0.1021
     12 C          52.3667   10.6751  -26.0867 C.ar    1  UNL1        0.3042
     13 O          51.7652    9.6821  -26.6955 O.2     1  UNL1       -0.4122
     14 C          50.6488    7.2328  -31.0823 C.ar    1  UNL1        0.1387
     15 C          49.7962    7.5953  -30.0225 C.ar    1  UNL1        0.0371
     16 C          50.2510    8.4468  -29.0111 C.ar    1  UNL1        0.0078
     17 C          51.5614    8.9495  -29.0407 C.ar    1  UNL1        0.0553
     18 C          52.4104    8.5867  -30.0985 C.ar    1  UNL1        0.0078
     19 C          51.9546    7.7355  -31.1093 C.ar    1  UNL1        0.0371
     20 C          48.8817    6.0944  -32.4354 C.3     1  UNL1        0.2525
     21 O          50.2401    6.3821  -32.1201 O.3     1  UNL1       -0.4714
     22 O          47.3548   11.4352  -22.8986 O.3     1  UNL1       -0.4791
     23 C          47.2246   12.5589  -23.7318 C.ar    1  UNL1        0.1384
     24 C          46.9654   13.7962  -23.1323 C.ar    1  UNL1        0.0366
     25 C          46.8356   14.9502  -23.9088 C.ar    1  UNL1        0.0002
     26 C          46.9791   14.8882  -25.3044 C.ar    1  UNL1       -0.0059
     27 C          47.2084   13.6429  -25.9108 C.ar    1  UNL1        0.0002
     28 C          47.3374   12.4881  -25.1338 C.ar    1  UNL1        0.0366
     29 C          46.8280   16.1393  -26.1462 C.3     1  UNL1        0.0991
     30 N          47.5247   17.3371  -25.6189 N.3     1  UNL1       -0.2703
     31 C          46.6481   18.4721  -25.3360 C.3     1  UNL1        0.0724
     32 C          47.5611   19.6724  -25.1935 C.3     1  UNL1        0.0187
     33 C          48.7649   19.3560  -26.0677 C.3     1  UNL1        0.0174
     34 C          48.6436   17.8611  -26.4202 C.3     1  UNL1        0.0578
     35 C          49.9390   17.0361  -26.1788 C.3     1  UNL1        0.0147
     36 C          50.1030   16.5755  -24.7206 C.3     1  UNL1        0.0014
     37 C          51.1897   17.7863  -26.6586 C.3     1  UNL1        0.0014
@<TRIPOS>BOND
     1    20    21    1
     2    21    14    1
     3    14    15   ar
     4    15    16   ar
     5    16    17   ar
     6    17     9    1
     7     9    10   ar
     8    10    11   ar
     9    11    12   ar
    10    12     1    1
    11     1     2    2
    12     1     3   am
    13     3     4    1
    14     4     5    1
    15     5     6    1
    16     6    22    1
    17    22    23    1
    18    23    24   ar
    19    24    25   ar
    20    25    26   ar
    21    26    29    1
    22    29    30    1
    23    30    31    1
    24    31    32    1
    25    32    33    1
    26    33    34    1
    27    34    35    1
    28    35    36    1
    29    35    37    1
    30    26    27   ar
    31    27    28   ar
    32     6     7    1
    33     7     8    1
    34    12    13   ar
    35    17    18   ar
    36    18    19   ar
    37    19    14   ar
    38    13     9   ar
    39     8     3    1
    40    28    23   ar
    41    34    30    1
@<TRIPOS>MOLECULE
*****
 37 41 0 0 0
SMALL
GASTEIGER

@<TRIPOS>ATOM
      1 C          47.2590   13.0987  -23.3490 C.2     1  UNL1        0.3045
      2 O          46.5915   13.5520  -22.3799 O.2     1  UNL1       -0.2647
      3 N          48.6965   13.0163  -23.2482 N.am    1  UNL1       -0.2720
      4 C          49.5418   13.0676  -24.4526 C.3     1  UNL1        0.0976
      5 C          50.9450   13.5872  -24.1218 C.3     1  UNL1        0.0651
      6 C          51.6334   12.7613  -23.0084 C.3     1  UNL1        0.1693
      7 C          50.6337   12.2008  -21.9712 C.3     1  UNL1        0.0651
      8 C          49.3275   12.9984  -21.9204 C.3     1  UNL1        0.0976
      9 C          46.0327   12.2507  -26.5339 C.ar    1  UNL1        0.2501
     10 N          45.0193   11.7771  -25.7824 N.ar    1  UNL1       -0.1068
     11 N          45.3395   12.0301  -24.5228 N.ar    1  UNL1       -0.1021
     12 C          46.5346   12.6507  -24.5522 C.ar    1  UNL1        0.3042
     13 O          46.9655   12.7851  -25.7830 O.2     1  UNL1       -0.4122
     14 C          46.1908   12.0578  -30.8214 C.ar    1  UNL1        0.1387
     15 C          45.8320   13.2548  -30.1733 C.ar    1  UNL1        0.0371
     16 C          45.7823   13.3134  -28.7772 C.ar    1  UNL1        0.0078
     17 C          46.0892   12.1808  -28.0067 C.ar    1  UNL1        0.0553
     18 C          46.4467   10.9877  -28.6549 C.ar    1  UNL1        0.0078
     19 C          46.4962   10.9303  -30.0508 C.ar    1  UNL1        0.0371
     20 C          45.6993   12.8950  -33.1252 C.3     1  UNL1        0.2525
     21 O          46.2550   11.9482  -32.2184 O.3     1  UNL1       -0.4714
     22 O          52.3605   11.6672  -23.5760 O.3     1  UNL1       -0.4791
     23 C          52.4318   11.3468  -24.9421 C.ar    1  UNL1        0.1384
     24 C          51.6252   10.3069  -25.4170 C.ar    1  UNL1        0.0366
     25 C          51.6460    9.9498  -26.7674 C.ar    1  UNL1        0.0002
     26 C          52.4669   10.6409  -27.6732 C.ar    1  UNL1       -0.0059
     27 C          53.3000   11.6641  -27.1935 C.ar    1  UNL1        0.0002
     28 C          53.2797   12.0209  -25.8420 C.ar    1  UNL1        0.0366
     29 C          52.4957   10.2457  -29.1360 C.3     1  UNL1        0.0991
     30 N          52.7943    8.8164  -29.3930 N.3     1  UNL1       -0.2703
     31 C          54.1967    8.4478  -29.2080 C.3     1  UNL1        0.0724
     32 C          54.3600    7.0988  -29.8775 C.3     1  UNL1        0.0187
     33 C          53.3162    7.0805  -30.9836 C.3     1  UNL1        0.0174
     34 C          52.3886    8.2782  -30.7023 C.3     1  UNL1        0.0578
     35 C          50.8722    7.9356  -30.7207 C.3     1  UNL1        0.0147
     36 C          50.3161    7.5660  -29.3352 C.3     1  UNL1        0.0014
     37 C          50.5478    6.8426  -31.7490 C.3     1  UNL1        0.0014
@<TRIPOS>BOND
     1    20    21    1
     2    21    14    1
     3    14    15   ar
     4    15    16   ar
     5    16    17   ar
     6    17     9    1
     7     9    10   ar
     8    10    11   ar
     9    11    12   ar
    10    12     1    1
    11     1     2    2
    12     1     3   am
    13     3     4    1
    14     4     5    1
    15     5     6    1
    16     6    22    1
    17    22    23    1
    18    23    24   ar
    19    24    25   ar
    20    25    26   ar
    21    26    29    1
    22    29    30    1
    23    30    31    1
    24    31    32    1
    25    32    33    1
    26    33    34    1
    27    34    35    1
    28    35    36    1
    29    35    37    1
    30    26    27   ar
    31    27    28   ar
    32     6     7    1
    33     7     8    1
    34    12    13   ar
    35    17    18   ar
    36    18    19   ar
    37    19    14   ar
    38    13     9   ar
    39     8     3    1
    40    28    23   ar
    41    34    30    1
@<TRIPOS>MOLECULE
*****
 37 41 0 0 0
SMALL
GASTEIGER

@<TRIPOS>ATOM
      1 C          52.3261   10.9982  -24.6133 C.2     1  UNL1        0.3045
      2 O          53.3869   11.3617  -24.0363 O.2     1  UNL1       -0.2647
      3 N          51.1084   10.8661  -23.8498 N.am    1  UNL1       -0.2720
      4 C          50.0475    9.9381  -24.2754 C.3     1  UNL1        0.0976
      5 C          49.1945    9.4892  -23.0841 C.3     1  UNL1        0.0651
      6 C          48.5927   10.6836  -22.3050 C.3     1  UNL1        0.1693
      7 C          49.5082   11.9290  -22.3142 C.3     1  UNL1        0.0651
      8 C          50.9767   11.5796  -22.5709 C.3     1  UNL1        0.0976
      9 C          52.0509    9.8866  -27.9382 C.ar    1  UNL1        0.2501
     10 N          52.8327   10.9659  -28.1384 N.ar    1  UNL1       -0.1068
     11 N          53.0338   11.5067  -26.9467 N.ar    1  UNL1       -0.1021
     12 C          52.3696   10.7367  -26.0634 C.ar    1  UNL1        0.3042
     13 O          51.7624    9.7439  -26.6670 O.2     1  UNL1       -0.4122
     14 C          50.6716    7.2499  -31.0349 C.ar    1  UNL1        0.1387
     15 C          49.8120    7.6329  -29.9881 C.ar    1  UNL1        0.0371
     16 C          50.2650    8.4919  -28.9821 C.ar    1  UNL1        0.0078
     17 C          51.5804    8.9818  -29.0045 C.ar    1  UNL1        0.0553
     18 C          52.4363    8.5985  -30.0494 C.ar    1  UNL1        0.0078
     19 C          51.9823    7.7397  -31.0548 C.ar    1  UNL1        0.0371
     20 C          48.9070    6.1128  -32.3926 C.3     1  UNL1        0.2525
     21 O          50.2649    6.3909  -32.0668 O.3     1  UNL1       -0.4714
     22 O          47.3230   11.0488  -22.8548 O.3     1  UNL1       -0.4791
     23 C          47.0873   12.1046  -23.7514 C.ar    1  UNL1        0.1384
     24 C          46.7234   13.3478  -23.2228 C.ar    1  UNL1        0.0366
     25 C          46.4859   14.4372  -24.0645 C.ar    1  UNL1        0.0002
     26 C          46.6243   14.3045  -25.4557 C.ar    1  UNL1       -0.0059
     27 C          46.9591   13.0502  -25.9902 C.ar    1  UNL1        0.0002
     28 C          47.1960   11.9600  -25.1479 C.ar    1  UNL1        0.0366
     29 C          46.3565   15.4846  -26.3680 C.3     1  UNL1        0.0991
     30 N          47.4787   16.4450  -26.4957 N.3     1  UNL1       -0.2703
     31 C          48.6675   15.9037  -27.1518 C.3     1  UNL1        0.0724
     32 C          49.7886   16.8729  -26.8382 C.3     1  UNL1        0.0187
     33 C          49.4105   17.4913  -25.5011 C.3     1  UNL1        0.0174
     34 C          47.9420   17.0935  -25.2575 C.3     1  UNL1        0.0578
     35 C          47.0122   18.2757  -24.8635 C.3     1  UNL1        0.0147
     36 C          47.6346   19.6553  -25.1369 C.3     1  UNL1        0.0014
     37 C          46.5407   18.1681  -23.4064 C.3     1  UNL1        0.0014
@<TRIPOS>BOND
     1    20    21    1
     2    21    14    1
     3    14    15   ar
     4    15    16   ar
     5    16    17   ar
     6    17     9    1
     7     9    10   ar
     8    10    11   ar
     9    11    12   ar
    10    12     1    1
    11     1     2    2
    12     1     3   am
    13     3     4    1
    14     4     5    1
    15     5     6    1
    16     6    22    1
    17    22    23    1
    18    23    24   ar
    19    24    25   ar
    20    25    26   ar
    21    26    29    1
    22    29    30    1
    23    30    31    1
    24    31    32    1
    25    32    33    1
    26    33    34    1
    27    34    35    1
    28    35    36    1
    29    35    37    1
    30    26    27   ar
    31    27    28   ar
    32     6     7    1
    33     7     8    1
    34    12    13   ar
    35    17    18   ar
    36    18    19   ar
    37    19    14   ar
    38    13     9   ar
    39     8     3    1
    40    28    23   ar
    41    34    30    1
@<TRIPOS>MOLECULE
*****
 37 41 0 0 0
SMALL
GASTEIGER

@<TRIPOS>ATOM
      1 C          50.4225    9.1426  -23.7966 C.2     1  UNL1        0.3045
      2 O          51.1077    8.2258  -23.2671 O.2     1  UNL1       -0.2647
      3 N          49.5439    9.9410  -22.9757 N.am    1  UNL1       -0.2720
      4 C          48.3473   10.5787  -23.5494 C.3     1  UNL1        0.0976
      5 C          47.2781   10.8141  -22.4770 C.3     1  UNL1        0.0651
      6 C          47.8128   11.6374  -21.2804 C.3     1  UNL1        0.1693
      7 C          49.3084   11.3748  -20.9914 C.3     1  UNL1        0.0651
      8 C          49.7839   10.0215  -21.5273 C.3     1  UNL1        0.0976
      9 C          50.5382    9.1061  -27.3111 C.ar    1  UNL1        0.2501
     10 N          50.9587   10.3685  -27.0972 N.ar    1  UNL1       -0.1068
     11 N          50.9717   10.5396  -25.7843 N.ar    1  UNL1       -0.1021
     12 C          50.5611    9.3753  -25.2457 C.ar    1  UNL1        0.3042
     13 O          50.2907    8.4942  -26.1779 O.2     1  UNL1       -0.4122
     14 C          50.0813    7.3133  -31.1869 C.ar    1  UNL1        0.1387
     15 C          51.3635    7.5717  -30.6664 C.ar    1  UNL1        0.0371
     16 C          51.5077    8.1551  -29.4039 C.ar    1  UNL1        0.0078
     17 C          50.3771    8.4893  -28.6418 C.ar    1  UNL1        0.0553
     18 C          49.0991    8.2310  -29.1627 C.ar    1  UNL1        0.0078
     19 C          48.9561    7.6475  -30.4250 C.ar    1  UNL1        0.0371
     20 C          48.6724    6.1097  -32.8650 C.3     1  UNL1        0.2525
     21 O          49.8840    6.7302  -32.4474 O.3     1  UNL1       -0.4714
     22 O          47.6350   13.0372  -21.5188 O.3     1  UNL1       -0.4791
     23 C          47.7105   13.6754  -22.7682 C.ar    1  UNL1        0.1384
     24 C          48.9777   13.9889  -23.2715 C.ar    1  UNL1        0.0366
     25 C          49.1158   14.6148  -24.5127 C.ar    1  UNL1        0.0002
     26 C          47.9831   14.9252  -25.2826 C.ar    1  UNL1       -0.0059
     27 C          46.7092   14.6396  -24.7660 C.ar    1  UNL1        0.0002
     28 C          46.5712   14.0141  -23.5235 C.ar    1  UNL1        0.0366
     29 C          48.1341   15.6132  -26.6245 C.3     1  UNL1        0.0991
     30 N          48.9064   16.8785  -26.5964 N.3     1  UNL1       -0.2703
     31 C          50.3258   16.7288  -26.9124 C.3     1  UNL1        0.0724
     32 C          50.9869   18.0136  -26.4575 C.3     1  UNL1        0.0187
     33 C          50.1246   18.5135  -25.3086 C.3     1  UNL1        0.0174
     34 C          48.8340   17.6734  -25.3590 C.3     1  UNL1        0.0578
     35 C          47.5221   18.5060  -25.3050 C.3     1  UNL1        0.0147
     36 C          47.7471   20.0099  -25.5348 C.3     1  UNL1        0.0014
     37 C          46.7463   18.2624  -24.0027 C.3     1  UNL1        0.0014
@<TRIPOS>BOND
     1    20    21    1
     2    21    14    1
     3    14    15   ar
     4    15    16   ar
     5    16    17   ar
     6    17     9    1
     7     9    10   ar
     8    10    11   ar
     9    11    12   ar
    10    12     1    1
    11     1     2    2
    12     1     3   am
    13     3     4    1
    14     4     5    1
    15     5     6    1
    16     6    22    1
    17    22    23    1
    18    23    24   ar
    19    24    25   ar
    20    25    26   ar
    21    26    29    1
    22    29    30    1
    23    30    31    1
    24    31    32    1
    25    32    33    1
    26    33    34    1
    27    34    35    1
    28    35    36    1
    29    35    37    1
    30    26    27   ar
    31    27    28   ar
    32     6     7    1
    33     7     8    1
    34    12    13   ar
    35    17    18   ar
    36    18    19   ar
    37    19    14   ar
    38    13     9   ar
    39     8     3    1
    40    28    23   ar
    41    34    30    1
@<TRIPOS>MOLECULE
*****
 37 41 0 0 0
SMALL
GASTEIGER

@<TRIPOS>ATOM
      1 C          46.0213   14.6747  -27.9598 C.2     1  UNL1        0.3045
      2 O          45.1646   15.1244  -28.7686 O.2     1  UNL1       -0.2647
      3 N          46.7494   15.5876  -27.1115 N.am    1  UNL1       -0.2720
      4 C          48.0909   15.2455  -26.6105 C.3     1  UNL1        0.0976
      5 C          48.9032   16.5071  -26.2987 C.3     1  UNL1        0.0651
      6 C          48.1759   17.4482  -25.3083 C.3     1  UNL1        0.1693
      7 C          46.6380   17.4045  -25.4576 C.3     1  UNL1        0.0651
      8 C          46.1933   16.9216  -26.8410 C.3     1  UNL1        0.0976
      9 C          46.8533   11.2810  -28.3558 C.ar    1  UNL1        0.2501
     10 N          46.1742   11.1997  -27.1946 N.ar    1  UNL1       -0.1068
     11 N          45.7823   12.4308  -26.9051 N.ar    1  UNL1       -0.1021
     12 C          46.2343   13.2172  -27.9010 C.ar    1  UNL1        0.3042
     13 O          46.8946   12.5172  -28.7912 O.2     1  UNL1       -0.4122
     14 C          48.6366    7.9415  -30.3836 C.ar    1  UNL1        0.1387
     15 C          47.5837    8.6600  -30.9808 C.ar    1  UNL1        0.0371
     16 C          47.0063    9.7469  -30.3173 C.ar    1  UNL1        0.0078
     17 C          47.4693   10.1338  -29.0497 C.ar    1  UNL1        0.0553
     18 C          48.5195    9.4157  -28.4556 C.ar    1  UNL1        0.0078
     19 C          49.0962    8.3293  -29.1200 C.ar    1  UNL1        0.0371
     20 C          48.7701    6.2278  -32.1990 C.3     1  UNL1        0.2525
     21 O          49.2485    6.8444  -31.0080 O.3     1  UNL1       -0.4714
     22 O          48.5113   17.1081  -23.9593 O.3     1  UNL1       -0.4791
     23 C          48.9563   15.8522  -23.5135 C.ar    1  UNL1        0.1384
     24 C          50.3310   15.5938  -23.5399 C.ar    1  UNL1        0.0366
     25 C          50.8333   14.3668  -23.0999 C.ar    1  UNL1        0.0002
     26 C          49.9653   13.3780  -22.6089 C.ar    1  UNL1       -0.0059
     27 C          48.5829   13.6233  -22.6103 C.ar    1  UNL1        0.0002
     28 C          48.0805   14.8509  -23.0514 C.ar    1  UNL1        0.0366
     29 C          50.5108   12.0436  -22.1412 C.3     1  UNL1        0.0991
     30 N          50.1182   10.8803  -22.9723 N.3     1  UNL1       -0.2703
     31 C          49.8353    9.6626  -22.2147 C.3     1  UNL1        0.0724
     32 C          49.8434    8.5361  -23.2273 C.3     1  UNL1        0.0187
     33 C          50.7922    8.9990  -24.3222 C.3     1  UNL1        0.0174
     34 C          51.0399   10.4960  -24.0546 C.3     1  UNL1        0.0578
     35 C          50.8549   11.4109  -25.2979 C.3     1  UNL1        0.0147
     36 C          49.3818   11.6078  -25.6936 C.3     1  UNL1        0.0014
     37 C          51.6810   10.9187  -26.4949 C.3     1  UNL1        0.0014
@<TRIPOS>BOND
     1    20    21    1
     2    21    14    1
     3    14    15   ar
     4    15    16   ar
     5    16    17   ar
     6    17     9    1
     7     9    10   ar
     8    10    11   ar
     9    11    12   ar
    10    12     1    1
    11     1     2    2
    12     1     3   am
    13     3     4    1
    14     4     5    1
    15     5     6    1
    16     6    22    1
    17    22    23    1
    18    23    24   ar
    19    24    25   ar
    20    25    26   ar
    21    26    29    1
    22    29    30    1
    23    30    31    1
    24    31    32    1
    25    32    33    1
    26    33    34    1
    27    34    35    1
    28    35    36    1
    29    35    37    1
    30    26    27   ar
    31    27    28   ar
    32     6     7    1
    33     7     8    1
    34    12    13   ar
    35    17    18   ar
    36    18    19   ar
    37    19    14   ar
    38    13     9   ar
    39     8     3    1
    40    28    23   ar
    41    34    30    1
@<TRIPOS>MOLECULE
*****
 37 41 0 0 0
SMALL
GASTEIGER

@<TRIPOS>ATOM
      1 C          47.1201   11.3302  -22.4835 C.2     1  UNL1        0.3045
      2 O          46.7397   10.2940  -21.8735 O.2     1  UNL1       -0.2647
      3 N          48.2228   12.1009  -21.9609 N.am    1  UNL1       -0.2720
      4 C          48.3376   13.5414  -22.2430 C.3     1  UNL1        0.0976
      5 C          49.1411   14.2564  -21.1514 C.3     1  UNL1        0.0651
      6 C          50.5407   13.6296  -20.9416 C.3     1  UNL1        0.1693
      7 C          50.5597   12.1047  -21.1943 C.3     1  UNL1        0.0651
      8 C          49.1773   11.4643  -21.0413 C.3     1  UNL1        0.0976
      9 C          45.9801   12.0025  -25.7416 C.ar    1  UNL1        0.2501
     10 N          44.9076   12.4320  -25.0477 N.ar    1  UNL1       -0.1068
     11 N          45.1909   12.2423  -23.7684 N.ar    1  UNL1       -0.1021
     12 C          46.4262   11.7066  -23.7285 C.ar    1  UNL1        0.3042
     13 O          46.9130   11.5544  -24.9362 O.2     1  UNL1       -0.4122
     14 C          46.3196   12.0765  -30.0222 C.ar    1  UNL1        0.1387
     15 C          46.5146   10.8774  -29.3112 C.ar    1  UNL1        0.0371
     16 C          46.4027   10.8576  -27.9176 C.ar    1  UNL1        0.0078
     17 C          46.0949   12.0317  -27.2123 C.ar    1  UNL1        0.0553
     18 C          45.9009   13.2269  -27.9233 C.ar    1  UNL1        0.0078
     19 C          46.0128   13.2455  -29.3166 C.ar    1  UNL1        0.0371
     20 C          45.5475   12.9055  -32.2508 C.3     1  UNL1        0.2525
     21 O          46.4210   12.1482  -31.4195 O.3     1  UNL1       -0.4714
     22 O          51.4982   14.2458  -21.8082 O.3     1  UNL1       -0.4791
     23 C          51.2194   14.8503  -23.0455 C.ar    1  UNL1        0.1384
     24 C          50.8961   14.0210  -24.1250 C.ar    1  UNL1        0.0366
     25 C          50.5998   14.5652  -25.3770 C.ar    1  UNL1        0.0002
     26 C          50.6069   15.9566  -25.5673 C.ar    1  UNL1       -0.0059
     27 C          50.9612   16.7891  -24.4938 C.ar    1  UNL1        0.0002
     28 C          51.2584   16.2443  -23.2412 C.ar    1  UNL1        0.0366
     29 C          50.2950   16.5449  -26.9287 C.3     1  UNL1        0.0991
     30 N          49.1632   17.5023  -26.9531 N.3     1  UNL1       -0.2703
     31 C          49.5598   18.9071  -27.0304 C.3     1  UNL1        0.0724
     32 C          48.3275   19.7044  -26.6558 C.3     1  UNL1        0.0187
     33 C          47.5394   18.7953  -25.7254 C.3     1  UNL1        0.0174
     34 C          48.1852   17.4026  -25.8567 C.3     1  UNL1        0.0578
     35 C          47.1764   16.2471  -26.1104 C.3     1  UNL1        0.0147
     36 C          46.0115   16.6488  -27.0307 C.3     1  UNL1        0.0014
     37 C          46.6535   15.6490  -24.7966 C.3     1  UNL1        0.0014
@<TRIPOS>BOND
     1    20    21    1
     2    21    14    1
     3    14    15   ar
     4    15    16   ar
     5    16    17   ar
     6    17     9    1
     7     9    10   ar
     8    10    11   ar
     9    11    12   ar
    10    12     1    1
    11     1     2    2
    12     1     3   am
    13     3     4    1
    14     4     5    1
    15     5     6    1
    16     6    22    1
    17    22    23    1
    18    23    24   ar
    19    24    25   ar
    20    25    26   ar
    21    26    29    1
    22    29    30    1
    23    30    31    1
    24    31    32    1
    25    32    33    1
    26    33    34    1
    27    34    35    1
    28    35    36    1
    29    35    37    1
    30    26    27   ar
    31    27    28   ar
    32     6     7    1
    33     7     8    1
    34    12    13   ar
    35    17    18   ar
    36    18    19   ar
    37    19    14   ar
    38    13     9   ar
    39     8     3    1
    40    28    23   ar
    41    34    30    1
@<TRIPOS>MOLECULE
*****
 37 41 0 0 0
SMALL
GASTEIGER

@<TRIPOS>ATOM
      1 C          46.8125   11.9482  -22.3889 C.2     1  UNL1        0.3045
      2 O          46.3391   11.0638  -21.6247 O.2     1  UNL1       -0.2647
      3 N          47.9721   12.7016  -21.9754 N.am    1  UNL1       -0.2720
      4 C          48.2125   14.0600  -22.4897 C.3     1  UNL1        0.0976
      5 C          49.0636   14.8787  -21.5130 C.3     1  UNL1        0.0651
      6 C          50.4023   14.1821  -21.1689 C.3     1  UNL1        0.1693
      7 C          50.2932   12.6402  -21.1647 C.3     1  UNL1        0.0651
      8 C          48.8597   12.1511  -20.9405 C.3     1  UNL1        0.0976
      9 C          45.8140   12.2602  -25.7463 C.ar    1  UNL1        0.2501
     10 N          44.6769   12.6657  -25.1473 N.ar    1  UNL1       -0.1068
     11 N          44.9002   12.6049  -23.8437 N.ar    1  UNL1       -0.1021
     12 C          46.1654   12.1672  -23.6952 C.ar    1  UNL1        0.3042
     13 O          46.7288   11.9511  -24.8591 O.2     1  UNL1       -0.4122
     14 C          46.3877   12.0015  -29.9946 C.ar    1  UNL1        0.1387
     15 C          46.5932   10.8745  -29.1765 C.ar    1  UNL1        0.0371
     16 C          46.4047   10.9630  -27.7939 C.ar    1  UNL1        0.0078
     17 C          46.0091   12.1751  -27.2063 C.ar    1  UNL1        0.0553
     18 C          45.8049   13.2981  -28.0240 C.ar    1  UNL1        0.0078
     19 C          45.9933   13.2084  -29.4063 C.ar    1  UNL1        0.0371
     20 C          45.9178   12.8426  -32.3015 C.3     1  UNL1        0.2525
     21 O          46.5636   11.9639  -31.3859 O.3     1  UNL1       -0.4714
     22 O          51.4174   14.5633  -22.1028 O.3     1  UNL1       -0.4791
     23 C          51.7492   13.8775  -23.2833 C.ar    1  UNL1        0.1384
     24 C          52.8394   13.0012  -23.2509 C.ar    1  UNL1        0.0366
     25 C          53.2105   12.2844  -24.3911 C.ar    1  UNL1        0.0002
     26 C          52.4839   12.4212  -25.5850 C.ar    1  UNL1       -0.0059
     27 C          51.4088   13.3230  -25.6285 C.ar    1  UNL1        0.0002
     28 C          51.0379   14.0408  -24.4877 C.ar    1  UNL1        0.0366
     29 C          52.8939   11.6504  -26.8237 C.3     1  UNL1        0.0991
     30 N          52.2079   10.3489  -27.0075 N.3     1  UNL1       -0.2703
     31 C          52.1985    9.8584  -28.3845 C.3     1  UNL1        0.0724
     32 C          51.1505    8.7654  -28.4253 C.3     1  UNL1        0.0187
     33 C          50.1473    9.1427  -27.3461 C.3     1  UNL1        0.0174
     34 C          50.8219   10.2540  -26.5192 C.3     1  UNL1        0.0578
     35 C          50.7849   10.0244  -24.9820 C.3     1  UNL1        0.0147
     36 C          51.3402    8.6540  -24.5589 C.3     1  UNL1        0.0014
     37 C          49.3786   10.2452  -24.4069 C.3     1  UNL1        0.0014
@<TRIPOS>BOND
     1    20    21    1
     2    21    14    1
     3    14    15   ar
     4    15    16   ar
     5    16    17   ar
     6    17     9    1
     7     9    10   ar
     8    10    11   ar
     9    11    12   ar
    10    12     1    1
    11     1     2    2
    12     1     3   am
    13     3     4    1
    14     4     5    1
    15     5     6    1
    16     6    22    1
    17    22    23    1
    18    23    24   ar
    19    24    25   ar
    20    25    26   ar
    21    26    29    1
    22    29    30    1
    23    30    31    1
    24    31    32    1
    25    32    33    1
    26    33    34    1
    27    34    35    1
    28    35    36    1
    29    35    37    1
    30    26    27   ar
    31    27    28   ar
    32     6     7    1
    33     7     8    1
    34    12    13   ar
    35    17    18   ar
    36    18    19   ar
    37    19    14   ar
    38    13     9   ar
    39     8     3    1
    40    28    23   ar
    41    34    30    1
@<TRIPOS>MOLECULE
*****
 37 41 0 0 0
SMALL
GASTEIGER

@<TRIPOS>ATOM
      1 C          46.8325   11.9291  -22.7290 C.2     1  UNL1        0.3045
      2 O          46.3554   11.1321  -21.8760 O.2     1  UNL1       -0.2647
      3 N          48.0264   12.6775  -22.4163 N.am    1  UNL1       -0.2720
      4 C          48.2925   13.9763  -23.0566 C.3     1  UNL1        0.0976
      5 C          49.1971   14.8498  -22.1807 C.3     1  UNL1        0.0651
      6 C          50.5237   14.1427  -21.8121 C.3     1  UNL1        0.1693
      7 C          50.3679   12.6117  -21.6667 C.3     1  UNL1        0.0651
      8 C          48.9274   12.1920  -21.3607 C.3     1  UNL1        0.0976
      9 C          45.7825   12.1005  -26.0808 C.ar    1  UNL1        0.2501
     10 N          44.5995   12.3242  -25.4752 N.ar    1  UNL1       -0.1068
     11 N          44.8355   12.2922  -24.1728 N.ar    1  UNL1       -0.1021
     12 C          46.1535   12.0526  -24.0316 C.ar    1  UNL1        0.3042
     13 O          46.7379   11.9309  -25.1987 O.2     1  UNL1       -0.4122
     14 C          46.3673   11.9515  -30.3328 C.ar    1  UNL1        0.1387
     15 C          46.5202   10.7915  -29.5501 C.ar    1  UNL1        0.0371
     16 C          46.3284   10.8444  -28.1661 C.ar    1  UNL1        0.0078
     17 C          45.9815   12.0531  -27.5420 C.ar    1  UNL1        0.0553
     18 C          45.8296   13.2090  -28.3244 C.ar    1  UNL1        0.0078
     19 C          46.0215   13.1550  -29.7081 C.ar    1  UNL1        0.0371
     20 C          45.9646   12.8982  -32.6113 C.3     1  UNL1        0.2525
     21 O          46.5489   11.9502  -31.7239 O.3     1  UNL1       -0.4714
     22 O          51.5215   14.4057  -22.8036 O.3     1  UNL1       -0.4791
     23 C          51.8995   13.5375  -23.8414 C.ar    1  UNL1        0.1384
     24 C          51.1641   13.5746  -25.0311 C.ar    1  UNL1        0.0366
     25 C          51.4991   12.7416  -26.1013 C.ar    1  UNL1        0.0002
     26 C          52.5911   11.8639  -26.0046 C.ar    1  UNL1       -0.0059
     27 C          53.3113   11.8027  -24.8010 C.ar    1  UNL1        0.0002
     28 C          52.9754   12.6357  -23.7298 C.ar    1  UNL1        0.0366
     29 C          52.9471   10.9538  -27.1629 C.3     1  UNL1        0.0991
     30 N          51.7883   10.3674  -27.8781 N.3     1  UNL1       -0.2703
     31 C          50.5726   10.2578  -27.0739 C.3     1  UNL1        0.0724
     32 C          49.6635    9.3096  -27.8283 C.3     1  UNL1        0.0187
     33 C          50.6031    8.3948  -28.5989 C.3     1  UNL1        0.0174
     34 C          51.9933    9.0528  -28.5092 C.3     1  UNL1        0.0578
     35 C          52.7267    9.1952  -29.8726 C.3     1  UNL1        0.0147
     36 C          52.0667    8.3899  -31.0046 C.3     1  UNL1        0.0014
     37 C          54.2184    8.8512  -29.7555 C.3     1  UNL1        0.0014
@<TRIPOS>BOND
     1    20    21    1
     2    21    14    1
     3    14    15   ar
     4    15    16   ar
     5    16    17   ar
     6    17     9    1
     7     9    10   ar
     8    10    11   ar
     9    11    12   ar
    10    12     1    1
    11     1     2    2
    12     1     3   am
    13     3     4    1
    14     4     5    1
    15     5     6    1
    16     6    22    1
    17    22    23    1
    18    23    24   ar
    19    24    25   ar
    20    25    26   ar
    21    26    29    1
    22    29    30    1
    23    30    31    1
    24    31    32    1
    25    32    33    1
    26    33    34    1
    27    34    35    1
    28    35    36    1
    29    35    37    1
    30    26    27   ar
    31    27    28   ar
    32     6     7    1
    33     7     8    1
    34    12    13   ar
    35    17    18   ar
    36    18    19   ar
    37    19    14   ar
    38    13     9   ar
    39     8     3    1
    40    28    23   ar
    41    34    30    1
