@<TRIPOS>MOLECULE
*****
 47 52 0 0 0
SMALL
GASTEIGER

@<TRIPOS>ATOM
      1 C          60.7024   87.7495    8.9794 C.ar    1  UNL1        0.0702
      2 C          61.3292   86.4966    9.0567 C.ar    1  UNL1        0.0191
      3 C          61.1477   85.6891   10.1807 C.ar    1  UNL1        0.0356
      4 C          60.3446   86.1424   11.2427 C.ar    1  UNL1        0.1318
      5 N          59.7656   87.3727   11.1493 N.ar    1  UNL1       -0.2279
      6 C          59.9282   88.1755   10.0649 C.ar    1  UNL1        0.1149
      7 N          60.1411   85.3399   12.4286 N.pl3   1  UNL1       -0.2932
      8 C          58.9260   85.4969   13.2418 C.3     1  UNL1        0.0923
      9 C          59.2879   85.8613   14.6903 C.3     1  UNL1        0.0252
     10 C          60.5598   85.1365   15.2175 C.3     1  UNL1        0.0472
     11 C          60.9479   83.9369   14.3227 C.3     1  UNL1        0.0252
     12 C          61.1584   84.3667   12.8620 C.3     1  UNL1        0.0923
     13 C          61.7284   86.1270   15.3877 C.3     1  UNL1        0.2054
     14 O          61.6071   87.1987   14.4546 O.3     1  UNL1       -0.4755
     15 C          62.6709   88.0112   14.0360 C.ar    1  UNL1        0.1388
     16 C          63.6982   88.4172   14.9078 C.ar    1  UNL1        0.0369
     17 C          64.7344   89.2284   14.4411 C.ar    1  UNL1        0.0033
     18 C          64.7591   89.6418   13.1073 C.ar    1  UNL1        0.0066
     19 C          63.7424   89.2459   12.2219 C.ar    1  UNL1        0.0785
     20 C          62.7013   88.4283   12.6995 C.ar    1  UNL1        0.0433
     21 C          63.7702   89.6850   10.8092 C.2     1  UNL1        0.3381
     22 O          63.1778   89.0152    9.9202 O.2     1  UNL1       -0.2451
     23 O          64.4521   90.8441   10.4477 O.3     1  UNL1       -0.4771
     24 H          64.4774   91.1537    9.4834 H       1  UNL1        0.2954
     25 C          60.0202   88.6438    6.7036 C.2     1  UNL1        0.2839
     26 O          58.8898   88.0887    6.7538 O.2     1  UNL1       -0.2665
     27 N          60.8859   88.6208    7.8503 N.am    1  UNL1       -0.2766
     28 H          61.6514   89.3306    7.9034 H       1  UNL1        0.1553
     29 C          58.1026   90.0833    4.5867 C.3     1  UNL1        0.0345
     30 C          59.6050   90.0849    4.6009 C.ar    1  UNL1        0.0200
     31 C          60.4273   89.3851    5.4930 C.ar    1  UNL1        0.1946
     32 O          61.6829   89.4693    5.1066 O.2     1  UNL1       -0.4492
     33 C          61.7278   90.2034    4.0245 C.ar    1  UNL1        0.1450
     34 C          62.8617   90.5020    3.2846 C.ar    1  UNL1        0.0375
     35 C          62.7077   91.2565    2.1175 C.ar    1  UNL1        0.0029
     36 C          61.4373   91.7438    1.7260 C.ar    1  UNL1       -0.0014
     37 C          60.2938   91.5088    2.5552 C.ar    1  UNL1        0.0097
     38 C          60.4768   90.6539    3.6697 C.ar    1  UNL1        0.0320
     39 C          61.3431   92.4638    0.4342 C.ar    1  UNL1       -0.0002
     40 C          62.4351   92.4829   -0.4504 C.ar    1  UNL1       -0.0000
     41 C          62.3457   93.1697   -1.6650 C.ar    1  UNL1       -0.0000
     42 C          61.1711   93.8479   -2.0017 C.ar    1  UNL1       -0.0000
     43 C          60.0851   93.8439   -1.1222 C.ar    1  UNL1       -0.0000
     44 C          60.1699   93.1585    0.0935 C.ar    1  UNL1       -0.0000
     45 C          58.9624   92.1839    2.2856 C.3     1  UNL1        0.1637
     46 O          58.2552   91.5129    1.2784 O.3     1  UNL1       -0.3772
     47 H          57.3620   91.9430    1.2318 H       1  UNL1        0.2109
@<TRIPOS>BOND
     1    29    30    1
     2    30    31   ar
     3    31    25    1
     4    25    26    2
     5    25    27   am
     6    27     1    1
     7     1     2   ar
     8     2     3   ar
     9     3     4   ar
    10     4     7    1
    11     7     8    1
    12     8     9    1
    13     9    10    1
    14    10    13    1
    15    13    14    1
    16    14    15    1
    17    15    16   ar
    18    16    17   ar
    19    17    18   ar
    20    18    19   ar
    21    19    21    1
    22    21    22    2
    23    21    23    1
    24    19    20   ar
    25    10    11    1
    26    11    12    1
    27     4     5   ar
    28     5     6   ar
    29    31    32   ar
    30    32    33   ar
    31    33    34   ar
    32    34    35   ar
    33    35    36   ar
    34    36    39    1
    35    39    40   ar
    36    40    41   ar
    37    41    42   ar
    38    42    43   ar
    39    43    44   ar
    40    36    37   ar
    41    37    45    1
    42    45    46    1
    43    37    38   ar
    44    38    30   ar
    45     6     1   ar
    46    38    33   ar
    47    12     7    1
    48    44    39   ar
    49    20    15   ar
    50    27    28    1
    51    23    24    1
    52    46    47    1
@<TRIPOS>MOLECULE
*****
 47 52 0 0 0
SMALL
GASTEIGER

@<TRIPOS>ATOM
      1 C          60.8313   87.9327    9.0954 C.ar    1  UNL1        0.0702
      2 C          61.6170   86.7830    9.2674 C.ar    1  UNL1        0.0191
      3 C          61.4766   86.0024   10.4160 C.ar    1  UNL1        0.0356
      4 C          60.5537   86.3806   11.4077 C.ar    1  UNL1        0.1318
      5 N          59.8195   87.5139   11.2234 N.ar    1  UNL1       -0.2279
      6 C          59.9392   88.2888   10.1134 C.ar    1  UNL1        0.1149
      7 N          60.3870   85.6042   12.6166 N.pl3   1  UNL1       -0.2932
      8 C          59.3943   85.9949   13.6286 C.3     1  UNL1        0.0923
      9 C          60.0710   86.2265   14.9889 C.3     1  UNL1        0.0252
     10 C          61.2250   85.2273   15.2906 C.3     1  UNL1        0.0472
     11 C          61.1814   84.0009   14.3502 C.3     1  UNL1        0.0252
     12 C          61.2259   84.4207   12.8722 C.3     1  UNL1        0.0923
     13 C          62.5933   85.9355   15.2468 C.3     1  UNL1        0.2054
     14 O          62.4158   87.3456   15.1274 O.3     1  UNL1       -0.4755
     15 C          63.1568   88.1690   14.2671 C.ar    1  UNL1        0.1388
     16 C          63.0308   88.1043   12.8671 C.ar    1  UNL1        0.0369
     17 C          63.7934   88.9455   12.0545 C.ar    1  UNL1        0.0033
     18 C          64.6855   89.8564   12.6247 C.ar    1  UNL1        0.0066
     19 C          64.8244   89.9358   14.0207 C.ar    1  UNL1        0.0785
     20 C          64.0523   89.0848   14.8331 C.ar    1  UNL1        0.0433
     21 C          65.7701   90.9014   14.6229 C.2     1  UNL1        0.3381
     22 O          66.8021   91.2617   13.9943 O.2     1  UNL1       -0.2451
     23 O          65.5288   91.4220   15.8917 O.3     1  UNL1       -0.4771
     24 H          66.1697   92.0837   16.3132 H       1  UNL1        0.2954
     25 C          60.1486   88.6629    6.7618 C.2     1  UNL1        0.2839
     26 O          59.0832   87.9904    6.7944 O.2     1  UNL1       -0.2665
     27 N          60.9653   88.7765    7.9387 N.am    1  UNL1       -0.2766
     28 H          61.6475   89.5668    7.9900 H       1  UNL1        0.1553
     29 C          58.1759   90.1307    4.7162 C.3     1  UNL1        0.0345
     30 C          59.6778   90.1108    4.6756 C.ar    1  UNL1        0.0200
     31 C          60.5219   89.3989    5.5372 C.ar    1  UNL1        0.1946
     32 O          61.7637   89.4654    5.1053 O.2     1  UNL1       -0.4492
     33 C          61.7796   90.1992    4.0223 C.ar    1  UNL1        0.1450
     34 C          62.8899   90.4820    3.2416 C.ar    1  UNL1        0.0375
     35 C          62.7043   91.2392    2.0808 C.ar    1  UNL1        0.0029
     36 C          61.4276   91.7448    1.7358 C.ar    1  UNL1       -0.0014
     37 C          60.3118   91.5257    2.6062 C.ar    1  UNL1        0.0097
     38 C          60.5230   90.6677    3.7133 C.ar    1  UNL1        0.0320
     39 C          61.2967   92.4667    0.4483 C.ar    1  UNL1       -0.0002
     40 C          60.0873   92.4317   -0.2668 C.ar    1  UNL1       -0.0000
     41 C          59.9695   93.1075   -1.4851 C.ar    1  UNL1       -0.0000
     42 C          61.0581   93.8152   -2.0019 C.ar    1  UNL1       -0.0000
     43 C          62.2680   93.8449   -1.3030 C.ar    1  UNL1       -0.0000
     44 C          62.3904   93.1706   -0.0843 C.ar    1  UNL1       -0.0000
     45 C          58.9813   92.2199    2.3852 C.3     1  UNL1        0.1637
     46 O          58.2114   91.5364    1.4340 O.3     1  UNL1       -0.3772
     47 H          57.3251   91.9829    1.4204 H       1  UNL1        0.2109
@<TRIPOS>BOND
     1    29    30    1
     2    30    31   ar
     3    31    25    1
     4    25    26    2
     5    25    27   am
     6    27     1    1
     7     1     2   ar
     8     2     3   ar
     9     3     4   ar
    10     4     7    1
    11     7     8    1
    12     8     9    1
    13     9    10    1
    14    10    13    1
    15    13    14    1
    16    14    15    1
    17    15    16   ar
    18    16    17   ar
    19    17    18   ar
    20    18    19   ar
    21    19    21    1
    22    21    22    2
    23    21    23    1
    24    19    20   ar
    25    10    11    1
    26    11    12    1
    27     4     5   ar
    28     5     6   ar
    29    31    32   ar
    30    32    33   ar
    31    33    34   ar
    32    34    35   ar
    33    35    36   ar
    34    36    39    1
    35    39    40   ar
    36    40    41   ar
    37    41    42   ar
    38    42    43   ar
    39    43    44   ar
    40    36    37   ar
    41    37    45    1
    42    45    46    1
    43    37    38   ar
    44    38    30   ar
    45     6     1   ar
    46    38    33   ar
    47    12     7    1
    48    44    39   ar
    49    20    15   ar
    50    27    28    1
    51    23    24    1
    52    46    47    1
@<TRIPOS>MOLECULE
*****
 47 52 0 0 0
SMALL
GASTEIGER

@<TRIPOS>ATOM
      1 C          60.5519   85.7758   11.9152 C.ar    1  UNL1        0.0702
      2 C          60.0814   86.0687   10.6261 C.ar    1  UNL1        0.0191
      3 C          59.2762   85.1522    9.9479 C.ar    1  UNL1        0.0356
      4 C          58.9494   83.9269   10.5563 C.ar    1  UNL1        0.1318
      5 N          59.4383   83.6606   11.8003 N.ar    1  UNL1       -0.2279
      6 C          60.2234   84.5377   12.4793 C.ar    1  UNL1        0.1149
      7 N          58.1270   82.9469    9.8817 N.pl3   1  UNL1       -0.2932
      8 C          57.7578   81.6895   10.5490 C.3     1  UNL1        0.0923
      9 C          58.2300   80.4811    9.7251 C.3     1  UNL1        0.0252
     10 C          58.0975   80.6830    8.1880 C.3     1  UNL1        0.0472
     11 C          57.1748   81.8750    7.8442 C.3     1  UNL1        0.0252
     12 C          57.6633   83.1754    8.5024 C.3     1  UNL1        0.0923
     13 C          59.4837   80.8216    7.5284 C.3     1  UNL1        0.2054
     14 O          60.5080   80.7874    8.5202 O.3     1  UNL1       -0.4755
     15 C          61.3645   81.8585    8.8141 C.ar    1  UNL1        0.1388
     16 C          61.4620   82.9945    7.9894 C.ar    1  UNL1        0.0369
     17 C          62.3321   84.0332    8.3263 C.ar    1  UNL1        0.0033
     18 C          63.1108   83.9525    9.4829 C.ar    1  UNL1        0.0066
     19 C          63.0265   82.8263   10.3189 C.ar    1  UNL1        0.0785
     20 C          62.1472   81.7835    9.9729 C.ar    1  UNL1        0.0433
     21 C          63.8523   82.7426   11.5438 C.2     1  UNL1        0.3381
     22 O          63.5113   83.3620   12.5878 O.2     1  UNL1       -0.2451
     23 O          65.0159   81.9777   11.5550 O.3     1  UNL1       -0.4771
     24 H          65.5885   81.9136   12.3883 H       1  UNL1        0.2954
     25 C          61.8756   87.9335   12.1076 C.2     1  UNL1        0.2839
     26 O          61.3369   88.4298   11.0821 O.2     1  UNL1       -0.2665
     27 N          61.4046   86.6826   12.6353 N.am    1  UNL1       -0.2766
     28 H          61.6322   86.4505   13.6287 H       1  UNL1        0.1553
     29 C          64.5286   89.1850   10.8325 C.3     1  UNL1        0.0345
     30 C          64.0673   89.2916   12.2584 C.ar    1  UNL1        0.0200
     31 C          62.9410   88.6722   12.8148 C.ar    1  UNL1        0.1946
     32 O          62.9388   88.8345   14.1212 O.2     1  UNL1       -0.4492
     33 C          63.9892   89.5439   14.4453 C.ar    1  UNL1        0.1450
     34 C          64.3698   89.9030   15.7293 C.ar    1  UNL1        0.0375
     35 C          65.5615   90.6169   15.8884 C.ar    1  UNL1        0.0029
     36 C          66.3348   91.0050   14.7677 C.ar    1  UNL1       -0.0014
     37 C          65.8747   90.7107   13.4440 C.ar    1  UNL1        0.0097
     38 C          64.7201   89.8975   13.3342 C.ar    1  UNL1        0.0320
     39 C          67.6261   91.6857   15.0233 C.ar    1  UNL1       -0.0002
     40 C          68.8290   91.1257   14.5600 C.ar    1  UNL1       -0.0000
     41 C          70.0464   91.7664   14.8095 C.ar    1  UNL1       -0.0000
     42 C          70.0732   92.9643   15.5289 C.ar    1  UNL1       -0.0000
     43 C          68.8827   93.5214   16.0036 C.ar    1  UNL1       -0.0000
     44 C          67.6629   92.8842   15.7564 C.ar    1  UNL1       -0.0000
     45 C          66.5582   91.2849   12.2175 C.3     1  UNL1        0.1637
     46 O          66.4146   92.6784   12.1701 O.3     1  UNL1       -0.3772
     47 H          66.9697   92.9897   11.4085 H       1  UNL1        0.2109
@<TRIPOS>BOND
     1    29    30    1
     2    30    31   ar
     3    31    25    1
     4    25    26    2
     5    25    27   am
     6    27     1    1
     7     1     2   ar
     8     2     3   ar
     9     3     4   ar
    10     4     7    1
    11     7     8    1
    12     8     9    1
    13     9    10    1
    14    10    13    1
    15    13    14    1
    16    14    15    1
    17    15    16   ar
    18    16    17   ar
    19    17    18   ar
    20    18    19   ar
    21    19    21    1
    22    21    22    2
    23    21    23    1
    24    19    20   ar
    25    10    11    1
    26    11    12    1
    27     4     5   ar
    28     5     6   ar
    29    31    32   ar
    30    32    33   ar
    31    33    34   ar
    32    34    35   ar
    33    35    36   ar
    34    36    39    1
    35    39    40   ar
    36    40    41   ar
    37    41    42   ar
    38    42    43   ar
    39    43    44   ar
    40    36    37   ar
    41    37    45    1
    42    45    46    1
    43    37    38   ar
    44    38    30   ar
    45     6     1   ar
    46    38    33   ar
    47    12     7    1
    48    44    39   ar
    49    20    15   ar
    50    27    28    1
    51    23    24    1
    52    46    47    1
@<TRIPOS>MOLECULE
*****
 47 52 0 0 0
SMALL
GASTEIGER

@<TRIPOS>ATOM
      1 C          60.6422   85.7433   12.0972 C.ar    1  UNL1        0.0702
      2 C          59.8245   86.1245   11.0226 C.ar    1  UNL1        0.0191
      3 C          59.0431   85.1739   10.3637 C.ar    1  UNL1        0.0356
      4 C          59.0890   83.8288   10.7723 C.ar    1  UNL1        0.1318
      5 N          59.9086   83.4840   11.8051 N.ar    1  UNL1       -0.2279
      6 C          60.6777   84.3922   12.4612 C.ar    1  UNL1        0.1149
      7 N          58.3028   82.8128   10.1079 N.pl3   1  UNL1       -0.2932
      8 C          57.7755   81.6625   10.8570 C.3     1  UNL1        0.0923
      9 C          58.2762   80.3439   10.2464 C.3     1  UNL1        0.0252
     10 C          58.3553   80.3656    8.6925 C.3     1  UNL1        0.0472
     11 C          57.5583   81.5478    8.0947 C.3     1  UNL1        0.0252
     12 C          58.0353   82.8946    8.6617 C.3     1  UNL1        0.0923
     13 C          59.8208   80.3617    8.2148 C.3     1  UNL1        0.2054
     14 O          60.7046   80.3227    9.3335 O.3     1  UNL1       -0.4755
     15 C          61.7241   81.2556    9.5727 C.ar    1  UNL1        0.1388
     16 C          62.8278   80.9717   10.3982 C.ar    1  UNL1        0.0369
     17 C          63.8154   81.9367   10.6054 C.ar    1  UNL1        0.0033
     18 C          63.7153   83.1891    9.9953 C.ar    1  UNL1        0.0066
     19 C          62.6209   83.4906    9.1673 C.ar    1  UNL1        0.0785
     20 C          61.6295   82.5129    8.9631 C.ar    1  UNL1        0.0433
     21 C          62.5166   84.8180    8.5220 C.2     1  UNL1        0.3381
     22 O          62.4032   84.9125    7.2697 O.2     1  UNL1       -0.2451
     23 O          62.5427   85.9773    9.2930 O.3     1  UNL1       -0.4771
     24 H          62.4719   86.8911    8.8613 H       1  UNL1        0.2954
     25 C          62.0666   87.8436   12.1623 C.2     1  UNL1        0.2839
     26 O          61.6470   88.2393   11.0417 O.2     1  UNL1       -0.2665
     27 N          61.4810   86.6880   12.7840 N.am    1  UNL1       -0.2766
     28 H          61.6090   86.5653   13.8141 H       1  UNL1        0.1553
     29 C          64.6157   89.2888   10.8799 C.3     1  UNL1        0.0345
     30 C          64.1854   89.3121   12.3193 C.ar    1  UNL1        0.0200
     31 C          63.1083   88.6102   12.8751 C.ar    1  UNL1        0.1946
     32 O          63.1304   88.7191   14.1868 O.2     1  UNL1       -0.4492
     33 C          64.1491   89.4710   14.5161 C.ar    1  UNL1        0.1450
     34 C          64.5421   89.7981   15.8049 C.ar    1  UNL1        0.0375
     35 C          65.6975   90.5689   15.9663 C.ar    1  UNL1        0.0029
     36 C          66.4204   91.0438   14.8453 C.ar    1  UNL1       -0.0014
     37 C          65.9435   90.7787   13.5214 C.ar    1  UNL1        0.0097
     38 C          64.8318   89.9088   13.4042 C.ar    1  UNL1        0.0320
     39 C          67.6794   91.7830   15.0994 C.ar    1  UNL1       -0.0002
     40 C          68.9203   91.2032   14.7844 C.ar    1  UNL1       -0.0000
     41 C          70.1067   91.9003   15.0326 C.ar    1  UNL1       -0.0000
     42 C          70.0640   93.1752   15.6032 C.ar    1  UNL1       -0.0000
     43 C          68.8348   93.7538   15.9305 C.ar    1  UNL1       -0.0000
     44 C          67.6457   93.0606   15.6842 C.ar    1  UNL1       -0.0000
     45 C          66.5640   91.4385   12.3045 C.3     1  UNL1        0.1637
     46 O          67.7081   90.7446   11.8871 O.3     1  UNL1       -0.3772
     47 H          67.9945   91.1667   11.0357 H       1  UNL1        0.2109
@<TRIPOS>BOND
     1    29    30    1
     2    30    31   ar
     3    31    25    1
     4    25    26    2
     5    25    27   am
     6    27     1    1
     7     1     2   ar
     8     2     3   ar
     9     3     4   ar
    10     4     7    1
    11     7     8    1
    12     8     9    1
    13     9    10    1
    14    10    13    1
    15    13    14    1
    16    14    15    1
    17    15    16   ar
    18    16    17   ar
    19    17    18   ar
    20    18    19   ar
    21    19    21    1
    22    21    22    2
    23    21    23    1
    24    19    20   ar
    25    10    11    1
    26    11    12    1
    27     4     5   ar
    28     5     6   ar
    29    31    32   ar
    30    32    33   ar
    31    33    34   ar
    32    34    35   ar
    33    35    36   ar
    34    36    39    1
    35    39    40   ar
    36    40    41   ar
    37    41    42   ar
    38    42    43   ar
    39    43    44   ar
    40    36    37   ar
    41    37    45    1
    42    45    46    1
    43    37    38   ar
    44    38    30   ar
    45     6     1   ar
    46    38    33   ar
    47    12     7    1
    48    44    39   ar
    49    20    15   ar
    50    27    28    1
    51    23    24    1
    52    46    47    1
@<TRIPOS>MOLECULE
*****
 47 52 0 0 0
SMALL
GASTEIGER

@<TRIPOS>ATOM
      1 C          61.0400   88.0855    9.1826 C.ar    1  UNL1        0.0702
      2 C          59.8351   87.7184    9.8010 C.ar    1  UNL1        0.0191
      3 C          59.8470   86.8920   10.9259 C.ar    1  UNL1        0.0356
      4 C          61.0713   86.4168   11.4293 C.ar    1  UNL1        0.1318
      5 N          62.2242   86.7723   10.7954 N.ar    1  UNL1       -0.2279
      6 C          62.2368   87.5757    9.6994 C.ar    1  UNL1        0.1149
      7 N          61.1243   85.5499   12.5858 N.pl3   1  UNL1       -0.2932
      8 C          62.3634   85.4142   13.3660 C.3     1  UNL1        0.0923
      9 C          62.8145   83.9457   13.4135 C.3     1  UNL1        0.0252
     10 C          61.6378   82.9343   13.5290 C.3     1  UNL1        0.0472
     11 C          60.3248   83.6294   13.9568 C.3     1  UNL1        0.0252
     12 C          59.9462   84.7644   12.9917 C.3     1  UNL1        0.0923
     13 C          61.4652   82.1372   12.2211 C.3     1  UNL1        0.2054
     14 O          62.4443   82.5392   11.2651 O.3     1  UNL1       -0.4755
     15 C          62.1563   83.2112   10.0683 C.ar    1  UNL1        0.1388
     16 C          63.1635   83.6599    9.1940 C.ar    1  UNL1        0.0369
     17 C          62.8234   84.3259    8.0149 C.ar    1  UNL1        0.0033
     18 C          61.4827   84.5511    7.6949 C.ar    1  UNL1        0.0066
     19 C          60.4632   84.1099    8.5553 C.ar    1  UNL1        0.0785
     20 C          60.8137   83.4392    9.7418 C.ar    1  UNL1        0.0433
     21 C          59.0434   84.3494    8.2146 C.2     1  UNL1        0.3381
     22 O          58.1369   83.6252    8.7082 O.2     1  UNL1       -0.2451
     23 O          58.6944   85.3788    7.3441 O.3     1  UNL1       -0.4771
     24 H          57.7254   85.5514    7.1042 H       1  UNL1        0.2954
     25 C          60.2771   88.6678    6.8324 C.2     1  UNL1        0.2839
     26 O          59.3082   87.8632    6.8793 O.2     1  UNL1       -0.2665
     27 N          61.0674   88.9133    8.0072 N.am    1  UNL1       -0.2766
     28 H          61.6407   89.7867    8.0410 H       1  UNL1        0.1553
     29 C          58.1368   89.9305    4.8186 C.3     1  UNL1        0.0345
     30 C          59.6332   90.0424    4.7428 C.ar    1  UNL1        0.0200
     31 C          60.5562   89.4184    5.5916 C.ar    1  UNL1        0.1946
     32 O          61.7771   89.5885    5.1299 O.2     1  UNL1       -0.4492
     33 C          61.7037   90.3073    4.0391 C.ar    1  UNL1        0.1450
     34 C          62.7668   90.6770    3.2295 C.ar    1  UNL1        0.0375
     35 C          62.4889   91.4002    2.0656 C.ar    1  UNL1        0.0029
     36 C          61.1650   91.7871    1.7455 C.ar    1  UNL1       -0.0014
     37 C          60.0929   91.4815    2.6442 C.ar    1  UNL1        0.0097
     38 C          60.4040   90.6594    3.7550 C.ar    1  UNL1        0.0320
     39 C          60.9419   92.4785    0.4539 C.ar    1  UNL1       -0.0002
     40 C          59.7583   93.2027    0.2303 C.ar    1  UNL1       -0.0000
     41 C          59.5474   93.8475   -0.9923 C.ar    1  UNL1       -0.0000
     42 C          60.5105   93.7678   -2.0018 C.ar    1  UNL1       -0.0000
     43 C          61.6847   93.0395   -1.7918 C.ar    1  UNL1       -0.0000
     44 C          61.8999   92.3931   -0.5708 C.ar    1  UNL1       -0.0000
     45 C          58.7016   92.0531    2.4474 C.3     1  UNL1        0.1637
     46 O          58.0276   91.3868    1.4147 O.3     1  UNL1       -0.3772
     47 H          57.0998   91.7391    1.4152 H       1  UNL1        0.2109
@<TRIPOS>BOND
     1    29    30    1
     2    30    31   ar
     3    31    25    1
     4    25    26    2
     5    25    27   am
     6    27     1    1
     7     1     2   ar
     8     2     3   ar
     9     3     4   ar
    10     4     7    1
    11     7     8    1
    12     8     9    1
    13     9    10    1
    14    10    13    1
    15    13    14    1
    16    14    15    1
    17    15    16   ar
    18    16    17   ar
    19    17    18   ar
    20    18    19   ar
    21    19    21    1
    22    21    22    2
    23    21    23    1
    24    19    20   ar
    25    10    11    1
    26    11    12    1
    27     4     5   ar
    28     5     6   ar
    29    31    32   ar
    30    32    33   ar
    31    33    34   ar
    32    34    35   ar
    33    35    36   ar
    34    36    39    1
    35    39    40   ar
    36    40    41   ar
    37    41    42   ar
    38    42    43   ar
    39    43    44   ar
    40    36    37   ar
    41    37    45    1
    42    45    46    1
    43    37    38   ar
    44    38    30   ar
    45     6     1   ar
    46    38    33   ar
    47    12     7    1
    48    44    39   ar
    49    20    15   ar
    50    27    28    1
    51    23    24    1
    52    46    47    1
@<TRIPOS>MOLECULE
*****
 47 52 0 0 0
SMALL
GASTEIGER

@<TRIPOS>ATOM
      1 C          61.4429   85.8428   11.0486 C.ar    1  UNL1        0.0702
      2 C          61.8362   85.6035    9.7232 C.ar    1  UNL1        0.0191
      3 C          61.0890   84.7468    8.9132 C.ar    1  UNL1        0.0356
      4 C          59.9471   84.1129    9.4353 C.ar    1  UNL1        0.1318
      5 N          59.6013   84.3474   10.7325 N.ar    1  UNL1       -0.2279
      6 C          60.3134   85.1774   11.5392 C.ar    1  UNL1        0.1149
      7 N          59.1532   83.2101    8.6312 N.pl3   1  UNL1       -0.2932
      8 C          57.7507   82.9336    8.9762 C.3     1  UNL1        0.0923
      9 C          57.5351   81.4281    9.1982 C.3     1  UNL1        0.0252
     10 C          58.3497   80.5301    8.2231 C.3     1  UNL1        0.0472
     11 C          58.8834   81.3335    7.0148 C.3     1  UNL1        0.0252
     12 C          59.7397   82.5281    7.4647 C.3     1  UNL1        0.0923
     13 C          59.4810   79.7932    8.9668 C.3     1  UNL1        0.2054
     14 O          59.3907   80.0371   10.3691 O.3     1  UNL1       -0.4755
     15 C          60.3192   80.7868   11.1058 C.ar    1  UNL1        0.1388
     16 C          60.0529   81.2474   12.4086 C.ar    1  UNL1        0.0369
     17 C          61.0112   81.9921   13.0989 C.ar    1  UNL1        0.0033
     18 C          62.2397   82.2846   12.5024 C.ar    1  UNL1        0.0066
     19 C          62.5238   81.8327   11.2026 C.ar    1  UNL1        0.0785
     20 C          61.5530   81.0826   10.5132 C.ar    1  UNL1        0.0433
     21 C          63.8258   82.1437   10.5723 C.2     1  UNL1        0.3381
     22 O          63.8719   82.6745    9.4295 O.2     1  UNL1       -0.2451
     23 O          65.0146   81.8524   11.2365 O.3     1  UNL1       -0.4771
     24 H          65.9114   82.0612   10.8140 H       1  UNL1        0.2954
     25 C          62.3672   88.1105   11.7179 C.2     1  UNL1        0.2839
     26 O          61.6228   88.7240   10.9068 O.2     1  UNL1       -0.2665
     27 N          62.2008   86.6978   11.9218 N.am    1  UNL1       -0.2766
     28 H          62.5897   86.2776   12.7963 H       1  UNL1        0.1553
     29 C          65.0101   89.5599   10.6480 C.3     1  UNL1        0.0345
     30 C          64.4796   89.5580   12.0537 C.ar    1  UNL1        0.0200
     31 C          63.3612   88.8541   12.5178 C.ar    1  UNL1        0.1946
     32 O          63.2915   88.9365   13.8298 O.2     1  UNL1       -0.4492
     33 C          64.2896   89.6734   14.2453 C.ar    1  UNL1        0.1450
     34 C          64.5930   89.9714   15.5649 C.ar    1  UNL1        0.0375
     35 C          65.7394   90.7292   15.8230 C.ar    1  UNL1        0.0029
     36 C          66.5428   91.2204   14.7656 C.ar    1  UNL1       -0.0014
     37 C          66.1586   90.9857   13.4062 C.ar    1  UNL1        0.0097
     38 C          65.0519   90.1275   13.1933 C.ar    1  UNL1        0.0320
     39 C          67.7857   91.9440   15.1227 C.ar    1  UNL1       -0.0002
     40 C          69.0417   91.4022   14.7996 C.ar    1  UNL1       -0.0000
     41 C          70.2126   92.0838   15.1448 C.ar    1  UNL1       -0.0000
     42 C          70.1394   93.3046   15.8209 C.ar    1  UNL1       -0.0000
     43 C          68.8947   93.8442   16.1566 C.ar    1  UNL1       -0.0000
     44 C          67.7210   93.1662   15.8134 C.ar    1  UNL1       -0.0000
     45 C          66.8679   91.6645   12.2499 C.3     1  UNL1        0.1637
     46 O          67.8806   90.8450   11.7326 O.3     1  UNL1       -0.3772
     47 H          68.2245   91.3049   10.9232 H       1  UNL1        0.2109
@<TRIPOS>BOND
     1    29    30    1
     2    30    31   ar
     3    31    25    1
     4    25    26    2
     5    25    27   am
     6    27     1    1
     7     1     2   ar
     8     2     3   ar
     9     3     4   ar
    10     4     7    1
    11     7     8    1
    12     8     9    1
    13     9    10    1
    14    10    13    1
    15    13    14    1
    16    14    15    1
    17    15    16   ar
    18    16    17   ar
    19    17    18   ar
    20    18    19   ar
    21    19    21    1
    22    21    22    2
    23    21    23    1
    24    19    20   ar
    25    10    11    1
    26    11    12    1
    27     4     5   ar
    28     5     6   ar
    29    31    32   ar
    30    32    33   ar
    31    33    34   ar
    32    34    35   ar
    33    35    36   ar
    34    36    39    1
    35    39    40   ar
    36    40    41   ar
    37    41    42   ar
    38    42    43   ar
    39    43    44   ar
    40    36    37   ar
    41    37    45    1
    42    45    46    1
    43    37    38   ar
    44    38    30   ar
    45     6     1   ar
    46    38    33   ar
    47    12     7    1
    48    44    39   ar
    49    20    15   ar
    50    27    28    1
    51    23    24    1
    52    46    47    1
@<TRIPOS>MOLECULE
*****
 47 52 0 0 0
SMALL
GASTEIGER

@<TRIPOS>ATOM
      1 C          59.0153   88.5564    6.0168 C.ar    1  UNL1        0.0702
      2 C          60.2851   88.7636    5.4570 C.ar    1  UNL1        0.0191
      3 C          60.4625   89.7172    4.4532 C.ar    1  UNL1        0.0356
      4 C          59.3600   90.4605    3.9948 C.ar    1  UNL1        0.1318
      5 N          58.1346   90.2227    4.5419 N.ar    1  UNL1       -0.2279
      6 C          57.9385   89.2999    5.5200 C.ar    1  UNL1        0.1149
      7 N          59.5011   91.4496    2.9490 N.pl3   1  UNL1       -0.2932
      8 C          58.3557   91.8155    2.1024 C.3     1  UNL1        0.0923
      9 C          58.6782   91.5689    0.6201 C.3     1  UNL1        0.0252
     10 C          60.1465   91.9109    0.2350 C.3     1  UNL1        0.0472
     11 C          60.8355   92.7757    1.3156 C.3     1  UNL1        0.0252
     12 C          60.8012   92.0926    2.6923 C.3     1  UNL1        0.0923
     13 C          60.9483   90.6310   -0.0727 C.3     1  UNL1        0.2054
     14 O          61.9512   90.8999   -1.0505 O.3     1  UNL1       -0.4755
     15 C          62.9350   91.8917   -0.9267 C.ar    1  UNL1        0.1388
     16 C          63.2886   92.7405   -1.9919 C.ar    1  UNL1        0.0369
     17 C          64.2767   93.7113   -1.8170 C.ar    1  UNL1        0.0033
     18 C          64.9202   93.8472   -0.5849 C.ar    1  UNL1        0.0066
     19 C          64.5801   93.0092    0.4904 C.ar    1  UNL1        0.0785
     20 C          63.5832   92.0331    0.3066 C.ar    1  UNL1        0.0433
     21 C          65.2631   93.1546    1.7950 C.2     1  UNL1        0.3381
     22 O          64.7018   93.7637    2.7457 O.2     1  UNL1       -0.2451
     23 O          66.5344   92.6191    1.9853 O.3     1  UNL1       -0.4771
     24 H          67.0108   92.7129    2.8744 H       1  UNL1        0.2954
     25 C          59.8355   86.9097    7.7662 C.2     1  UNL1        0.2839
     26 O          61.0070   87.3740    7.7457 O.2     1  UNL1       -0.2665
     27 N          58.7875   87.5656    7.0337 N.am    1  UNL1       -0.2766
     28 H          57.7981   87.3677    7.3066 H       1  UNL1        0.1553
     29 C          60.9500   83.9325    7.4137 C.3     1  UNL1        0.0345
     30 C          60.0588   84.4462    8.5088 C.ar    1  UNL1        0.0200
     31 C          59.5196   85.7353    8.6040 C.ar    1  UNL1        0.1946
     32 O          58.6455   85.7849    9.5870 O.2     1  UNL1       -0.4492
     33 C          58.6008   84.6059   10.1523 C.ar    1  UNL1        0.1450
     34 C          57.7771   84.2329   11.2033 C.ar    1  UNL1        0.0375
     35 C          57.8255   82.9055   11.6401 C.ar    1  UNL1        0.0029
     36 C          58.7243   81.9785   11.0591 C.ar    1  UNL1       -0.0014
     37 C          59.6367   82.4072   10.0421 C.ar    1  UNL1        0.0097
     38 C          59.4809   83.7297    9.5592 C.ar    1  UNL1        0.0320
     39 C          58.6569   80.5715   11.5193 C.ar    1  UNL1       -0.0002
     40 C          59.1206   80.2187   12.7983 C.ar    1  UNL1       -0.0000
     41 C          59.0627   78.8891   13.2266 C.ar    1  UNL1       -0.0000
     42 C          58.5502   77.9020   12.3803 C.ar    1  UNL1       -0.0000
     43 C          58.0984   78.2425   11.1025 C.ar    1  UNL1       -0.0000
     44 C          58.1542   79.5710   10.6699 C.ar    1  UNL1       -0.0000
     45 C          60.7513   81.5080    9.5419 C.3     1  UNL1        0.1637
     46 O          61.7726   81.3981   10.4957 O.3     1  UNL1       -0.3772
     47 H          62.4075   80.7198   10.1467 H       1  UNL1        0.2109
@<TRIPOS>BOND
     1    29    30    1
     2    30    31   ar
     3    31    25    1
     4    25    26    2
     5    25    27   am
     6    27     1    1
     7     1     2   ar
     8     2     3   ar
     9     3     4   ar
    10     4     7    1
    11     7     8    1
    12     8     9    1
    13     9    10    1
    14    10    13    1
    15    13    14    1
    16    14    15    1
    17    15    16   ar
    18    16    17   ar
    19    17    18   ar
    20    18    19   ar
    21    19    21    1
    22    21    22    2
    23    21    23    1
    24    19    20   ar
    25    10    11    1
    26    11    12    1
    27     4     5   ar
    28     5     6   ar
    29    31    32   ar
    30    32    33   ar
    31    33    34   ar
    32    34    35   ar
    33    35    36   ar
    34    36    39    1
    35    39    40   ar
    36    40    41   ar
    37    41    42   ar
    38    42    43   ar
    39    43    44   ar
    40    36    37   ar
    41    37    45    1
    42    45    46    1
    43    37    38   ar
    44    38    30   ar
    45     6     1   ar
    46    38    33   ar
    47    12     7    1
    48    44    39   ar
    49    20    15   ar
    50    27    28    1
    51    23    24    1
    52    46    47    1
@<TRIPOS>MOLECULE
*****
 47 52 0 0 0
SMALL
GASTEIGER

@<TRIPOS>ATOM
      1 C          60.2231   89.8424    4.7631 C.ar    1  UNL1        0.0702
      2 C          58.9439   90.4143    4.6920 C.ar    1  UNL1        0.0191
      3 C          58.5688   91.1578    3.5717 C.ar    1  UNL1        0.0356
      4 C          59.4837   91.3434    2.5196 C.ar    1  UNL1        0.1318
      5 N          60.7266   90.7942    2.6258 N.ar    1  UNL1       -0.2279
      6 C          61.1133   90.0667    3.7065 C.ar    1  UNL1        0.1149
      7 N          59.1366   92.1163    1.3474 N.pl3   1  UNL1       -0.2932
      8 C          57.9787   91.7461    0.5201 C.3     1  UNL1        0.0923
      9 C          58.4118   91.4878   -0.9318 C.3     1  UNL1        0.0252
     10 C          59.5239   92.4537   -1.4330 C.3     1  UNL1        0.0472
     11 C          59.6698   93.6867   -0.5118 C.3     1  UNL1        0.0252
     12 C          59.9507   93.2752    0.9424 C.3     1  UNL1        0.0923
     13 C          60.8618   91.7092   -1.6112 C.3     1  UNL1        0.2054
     14 O          61.8880   92.6227   -1.9940 O.3     1  UNL1       -0.4755
     15 C          62.9996   92.9453   -1.2020 C.ar    1  UNL1        0.1388
     16 C          64.1546   93.5484   -1.7333 C.ar    1  UNL1        0.0369
     17 C          65.2355   93.8478   -0.9016 C.ar    1  UNL1        0.0033
     18 C          65.1780   93.5514    0.4620 C.ar    1  UNL1        0.0066
     19 C          64.0329   92.9497    1.0106 C.ar    1  UNL1        0.0785
     20 C          62.9475   92.6511    0.1661 C.ar    1  UNL1        0.0433
     21 C          63.9739   92.6364    2.4555 C.2     1  UNL1        0.3381
     22 O          64.3486   93.4853    3.3092 O.2     1  UNL1       -0.2451
     23 O          63.5032   91.3987    2.8868 O.3     1  UNL1       -0.4771
     24 H          63.4587   91.1741    3.8736 H       1  UNL1        0.2954
     25 C          59.7639   88.4079    6.8067 C.2     1  UNL1        0.2839
     26 O          58.5668   88.2014    6.4712 O.2     1  UNL1       -0.2665
     27 N          60.6555   89.0922    5.9112 N.am    1  UNL1       -0.2766
     28 H          61.6840   88.9770    6.0575 H       1  UNL1        0.1553
     29 C          59.2311   85.5094    8.0497 C.3     1  UNL1        0.0345
     30 C          60.1139   86.5898    8.6073 C.ar    1  UNL1        0.0200
     31 C          60.2748   87.8806    8.0880 C.ar    1  UNL1        0.1946
     32 O          60.9780   88.6161    8.9231 O.2     1  UNL1       -0.4492
     33 C          61.3034   87.8706    9.9478 C.ar    1  UNL1        0.1450
     34 C          62.0136   88.2809   11.0657 C.ar    1  UNL1        0.0375
     35 C          62.2174   87.3553   12.0937 C.ar    1  UNL1        0.0029
     36 C          61.7545   86.0223   11.9779 C.ar    1  UNL1       -0.0014
     37 C          61.1099   85.5905   10.7743 C.ar    1  UNL1        0.0097
     38 C          60.8324   86.5854    9.8050 C.ar    1  UNL1        0.0320
     39 C          61.9358   85.1256   13.1437 C.ar    1  UNL1       -0.0002
     40 C          62.9414   84.1438   13.1359 C.ar    1  UNL1       -0.0000
     41 C          63.1049   83.2942   14.2342 C.ar    1  UNL1       -0.0000
     42 C          62.2625   83.4125   15.3430 C.ar    1  UNL1       -0.0000
     43 C          61.2523   84.3781   15.3536 C.ar    1  UNL1       -0.0000
     44 C          61.0851   85.2299   14.2575 C.ar    1  UNL1       -0.0000
     45 C          60.7867   84.1296   10.5242 C.3     1  UNL1        0.1637
     46 O          61.9036   83.4483   10.0211 O.3     1  UNL1       -0.3772
     47 H          61.6507   82.4893    9.9829 H       1  UNL1        0.2109
@<TRIPOS>BOND
     1    29    30    1
     2    30    31   ar
     3    31    25    1
     4    25    26    2
     5    25    27   am
     6    27     1    1
     7     1     2   ar
     8     2     3   ar
     9     3     4   ar
    10     4     7    1
    11     7     8    1
    12     8     9    1
    13     9    10    1
    14    10    13    1
    15    13    14    1
    16    14    15    1
    17    15    16   ar
    18    16    17   ar
    19    17    18   ar
    20    18    19   ar
    21    19    21    1
    22    21    22    2
    23    21    23    1
    24    19    20   ar
    25    10    11    1
    26    11    12    1
    27     4     5   ar
    28     5     6   ar
    29    31    32   ar
    30    32    33   ar
    31    33    34   ar
    32    34    35   ar
    33    35    36   ar
    34    36    39    1
    35    39    40   ar
    36    40    41   ar
    37    41    42   ar
    38    42    43   ar
    39    43    44   ar
    40    36    37   ar
    41    37    45    1
    42    45    46    1
    43    37    38   ar
    44    38    30   ar
    45     6     1   ar
    46    38    33   ar
    47    12     7    1
    48    44    39   ar
    49    20    15   ar
    50    27    28    1
    51    23    24    1
    52    46    47    1
@<TRIPOS>MOLECULE
*****
 47 52 0 0 0
SMALL
GASTEIGER

@<TRIPOS>ATOM
      1 C          60.9916   85.9990   11.4449 C.ar    1  UNL1        0.0702
      2 C          60.3032   86.2565   10.2497 C.ar    1  UNL1        0.0191
      3 C          59.3903   85.3256    9.7511 C.ar    1  UNL1        0.0356
      4 C          59.1732   84.1213   10.4444 C.ar    1  UNL1        0.1318
      5 N          59.8719   83.8889   11.5913 N.ar    1  UNL1       -0.2279
      6 C          60.7650   84.7805   12.0954 C.ar    1  UNL1        0.1149
      7 N          58.2440   83.1272    9.9543 N.pl3   1  UNL1       -0.2932
      8 C          57.8960   81.9566   10.7733 C.3     1  UNL1        0.0923
      9 C          58.2276   80.6554   10.0255 C.3     1  UNL1        0.0252
     10 C          57.9410   80.7228    8.4976 C.3     1  UNL1        0.0472
     11 C          57.0372   81.9242    8.1367 C.3     1  UNL1        0.0252
     12 C          57.6462   83.2525    8.6139 C.3     1  UNL1        0.0923
     13 C          59.2539   80.7296    7.6901 C.3     1  UNL1        0.2054
     14 O          60.3746   80.6564    8.5691 O.3     1  UNL1       -0.4755
     15 C          61.2778   81.7058    8.7930 C.ar    1  UNL1        0.1388
     16 C          61.3697   82.8177    7.9355 C.ar    1  UNL1        0.0369
     17 C          62.2876   83.8354    8.2023 C.ar    1  UNL1        0.0033
     18 C          63.1199   83.7575    9.3212 C.ar    1  UNL1        0.0066
     19 C          63.0421   82.6553   10.1891 C.ar    1  UNL1        0.0785
     20 C          62.1144   81.6335    9.9136 C.ar    1  UNL1        0.0433
     21 C          63.9248   82.5744   11.3739 C.2     1  UNL1        0.3381
     22 O          63.6936   83.2810   12.3923 O.2     1  UNL1       -0.2451
     23 O          65.0211   81.7157   11.3752 O.3     1  UNL1       -0.4771
     24 H          65.6317   81.6527   12.1811 H       1  UNL1        0.2954
     25 C          62.3396   88.1471   11.3316 C.2     1  UNL1        0.2839
     26 O          61.6375   88.6130   10.3945 O.2     1  UNL1       -0.2665
     27 N          61.9585   86.9209   11.9767 N.am    1  UNL1       -0.2766
     28 H          62.3499   86.7215   12.9252 H       1  UNL1        0.1553
     29 C          63.0530   88.8458   14.3702 C.3     1  UNL1        0.0345
     30 C          63.8781   89.1446   13.1506 C.ar    1  UNL1        0.0200
     31 C          63.5131   88.8984   11.8209 C.ar    1  UNL1        0.1946
     32 O          64.3901   89.4456   11.0059 O.2     1  UNL1       -0.4492
     33 C          65.3185   90.0162   11.7300 C.ar    1  UNL1        0.1450
     34 C          66.4039   90.7340   11.2515 C.ar    1  UNL1        0.0375
     35 C          67.2647   91.3256   12.1811 C.ar    1  UNL1        0.0029
     36 C          67.0632   91.1575   13.5724 C.ar    1  UNL1       -0.0014
     37 C          65.9941   90.3309   14.0460 C.ar    1  UNL1        0.0097
     38 C          65.0876   89.8388   13.0751 C.ar    1  UNL1        0.0320
     39 C          67.9689   91.8840   14.4931 C.ar    1  UNL1       -0.0002
     40 C          67.6228   93.1595   14.9715 C.ar    1  UNL1       -0.0000
     41 C          68.4831   93.8456   15.8339 C.ar    1  UNL1       -0.0000
     42 C          69.6966   93.2687   16.2183 C.ar    1  UNL1       -0.0000
     43 C          70.0537   92.0061   15.7375 C.ar    1  UNL1       -0.0000
     44 C          69.1964   91.3161   14.8749 C.ar    1  UNL1       -0.0000
     45 C          65.8667   89.9552   15.5102 C.3     1  UNL1        0.1637
     46 O          65.2068   90.9609   16.2299 O.3     1  UNL1       -0.3772
     47 H          65.0682   90.6028   17.1452 H       1  UNL1        0.2109
@<TRIPOS>BOND
     1    29    30    1
     2    30    31   ar
     3    31    25    1
     4    25    26    2
     5    25    27   am
     6    27     1    1
     7     1     2   ar
     8     2     3   ar
     9     3     4   ar
    10     4     7    1
    11     7     8    1
    12     8     9    1
    13     9    10    1
    14    10    13    1
    15    13    14    1
    16    14    15    1
    17    15    16   ar
    18    16    17   ar
    19    17    18   ar
    20    18    19   ar
    21    19    21    1
    22    21    22    2
    23    21    23    1
    24    19    20   ar
    25    10    11    1
    26    11    12    1
    27     4     5   ar
    28     5     6   ar
    29    31    32   ar
    30    32    33   ar
    31    33    34   ar
    32    34    35   ar
    33    35    36   ar
    34    36    39    1
    35    39    40   ar
    36    40    41   ar
    37    41    42   ar
    38    42    43   ar
    39    43    44   ar
    40    36    37   ar
    41    37    45    1
    42    45    46    1
    43    37    38   ar
    44    38    30   ar
    45     6     1   ar
    46    38    33   ar
    47    12     7    1
    48    44    39   ar
    49    20    15   ar
    50    27    28    1
    51    23    24    1
    52    46    47    1
