@<TRIPOS>MOLECULE
*****
 47 52 0 0 0
SMALL
GASTEIGER

@<TRIPOS>ATOM
      1 C          60.0927   90.9196    5.4187 C.ar    1  UNL1        0.0702
      2 C          58.8099   91.3682    5.0854 C.ar    1  UNL1        0.0191
      3 C          58.5948   92.0667    3.8967 C.ar    1  UNL1        0.0356
      4 C          59.6793   92.3377    3.0443 C.ar    1  UNL1        0.1318
      5 N          60.9229   91.9110    3.4032 N.ar    1  UNL1       -0.2279
      6 C          61.1545   91.2246    4.5533 C.ar    1  UNL1        0.1149
      7 N          59.4995   93.0554    1.8039 N.pl3   1  UNL1       -0.2932
      8 C          59.7720   94.5001    1.7533 C.3     1  UNL1        0.0923
      9 C          60.2915   94.8865    0.3665 C.3     1  UNL1        0.0252
     10 C          59.2927   94.5175   -0.7616 C.3     1  UNL1        0.0472
     11 C          58.3278   93.3734   -0.3607 C.3     1  UNL1        0.0252
     12 C          58.9690   92.3740    0.6101 C.3     1  UNL1        0.0923
     13 C          60.0375   94.1786   -2.0639 C.3     1  UNL1        0.2054
     14 O          61.0276   93.1831   -1.8121 O.3     1  UNL1       -0.4755
     15 C          62.2701   93.4332   -1.2115 C.ar    1  UNL1        0.1388
     16 C          63.2921   94.1484   -1.8626 C.ar    1  UNL1        0.0369
     17 C          64.5121   94.3699   -1.2206 C.ar    1  UNL1        0.0033
     18 C          64.7265   93.8837    0.0711 C.ar    1  UNL1        0.0066
     19 C          63.7178   93.1675    0.7372 C.ar    1  UNL1        0.0785
     20 C          62.4909   92.9484    0.0837 C.ar    1  UNL1        0.0433
     21 C          63.9469   92.6533    2.1055 C.2     1  UNL1        0.3381
     22 O          64.0197   91.4125    2.3178 O.2     1  UNL1       -0.2451
     23 O          64.0847   93.5364    3.1734 O.3     1  UNL1       -0.4771
     24 H          64.2419   93.1948    4.1141 H       1  UNL1        0.2954
     25 C          59.5203   89.0921    7.0877 C.2     1  UNL1        0.2839
     26 O          58.6380   88.6011    6.3341 O.2     1  UNL1       -0.2665
     27 N          60.2996   90.2225    6.6582 N.am    1  UNL1       -0.2766
     28 H          61.0270   90.6044    7.3011 H       1  UNL1        0.1553
     29 C          60.6524   86.7773   12.5169 C.ar    1  UNL1        0.0002
     30 C          59.7625   85.7933   12.0065 C.ar    1  UNL1        0.0031
     31 C          59.2118   85.9179   10.7188 C.ar    1  UNL1        0.0375
     32 C          59.5651   87.0300    9.9627 C.ar    1  UNL1        0.1452
     33 O          59.1659   87.3301    8.7508 O.2     1  UNL1       -0.4492
     34 C          59.7455   88.4652    8.4016 C.ar    1  UNL1        0.1946
     35 C          60.5428   88.9383    9.4514 C.ar    1  UNL1        0.0202
     36 C          61.3284   90.2121    9.5293 C.3     1  UNL1        0.0345
     37 C          60.4206   87.9845   10.4415 C.ar    1  UNL1        0.0337
     38 C          60.9842   87.8952   11.7143 C.ar    1  UNL1        0.0028
     39 C          62.3215   86.3747   16.4659 C.ar    1  UNL1        0.0073
     40 C          63.1603   86.4056   15.3422 C.ar    1  UNL1       -0.0019
     41 C          62.6195   86.5402   14.0603 C.ar    1  UNL1       -0.0002
     42 C          61.2280   86.6349   13.8783 C.ar    1  UNL1       -0.0000
     43 C          60.3901   86.5860   15.0070 C.ar    1  UNL1       -0.0002
     44 C          60.9322   86.4503   16.2882 C.ar    1  UNL1       -0.0019
     45 C          62.9008   86.1894   17.8389 C.3     1  UNL1        0.1687
     46 C          63.0382   88.4613   17.4922 C.3     1  UNL1        0.1746
     47 O          62.9857   87.4483   18.4714 O.3     1  UNL1       -0.3463
@<TRIPOS>BOND
     1    46    47    1
     2    47    45    1
     3    45    39    1
     4    39    40   ar
     5    40    41   ar
     6    41    42   ar
     7    42    29    1
     8    29    30   ar
     9    30    31   ar
    10    31    32   ar
    11    32    33   ar
    12    33    34   ar
    13    34    25    1
    14    25    26    2
    15    25    27   am
    16    27     1    1
    17     1     2   ar
    18     2     3   ar
    19     3     4   ar
    20     4     7    1
    21     7     8    1
    22     8     9    1
    23     9    10    1
    24    10    13    1
    25    13    14    1
    26    14    15    1
    27    15    16   ar
    28    16    17   ar
    29    17    18   ar
    30    18    19   ar
    31    19    21    1
    32    21    22    2
    33    21    23    1
    34    19    20   ar
    35    10    11    1
    36    11    12    1
    37     4     5   ar
    38     5     6   ar
    39    34    35   ar
    40    35    36    1
    41    35    37   ar
    42    37    38   ar
    43    42    43   ar
    44    43    44   ar
    45    44    39   ar
    46    38    29   ar
    47    37    32   ar
    48     6     1   ar
    49    12     7    1
    50    20    15   ar
    51    27    28    1
    52    23    24    1
@<TRIPOS>MOLECULE
*****
 47 52 0 0 0
SMALL
GASTEIGER

@<TRIPOS>ATOM
      1 C          60.3279   90.9298    5.4084 C.ar    1  UNL1        0.0702
      2 C          59.0353   91.4189    5.1902 C.ar    1  UNL1        0.0191
      3 C          58.7262   92.0882    4.0054 C.ar    1  UNL1        0.0356
      4 C          59.7276   92.2888    3.0394 C.ar    1  UNL1        0.1318
      5 N          60.9847   91.8239    3.2863 N.ar    1  UNL1       -0.2279
      6 C          61.3067   91.1648    4.4306 C.ar    1  UNL1        0.1149
      7 N          59.4490   92.9743    1.7990 N.pl3   1  UNL1       -0.2932
      8 C          59.5296   94.4421    1.7451 C.3     1  UNL1        0.0923
      9 C          59.9870   94.8905    0.3550 C.3     1  UNL1        0.0252
     10 C          59.0396   94.3916   -0.7674 C.3     1  UNL1        0.0472
     11 C          58.2350   93.1316   -0.3599 C.3     1  UNL1        0.0252
     12 C          59.0065   92.2268    0.6089 C.3     1  UNL1        0.0923
     13 C          59.8159   94.1506   -2.0730 C.3     1  UNL1        0.2054
     14 O          60.9215   93.2834   -1.8276 O.3     1  UNL1       -0.4755
     15 C          62.1615   93.7013   -1.3229 C.ar    1  UNL1        0.1388
     16 C          63.0478   94.5015   -2.0672 C.ar    1  UNL1        0.0369
     17 C          64.2715   94.8902   -1.5186 C.ar    1  UNL1        0.0033
     18 C          64.6243   94.4879   -0.2284 C.ar    1  UNL1        0.0066
     19 C          63.7522   93.6889    0.5300 C.ar    1  UNL1        0.0785
     20 C          62.5207   93.3013   -0.0297 C.ar    1  UNL1        0.0433
     21 C          64.1278   93.2638    1.8966 C.2     1  UNL1        0.3381
     22 O          63.8459   92.1047    2.3052 O.2     1  UNL1       -0.2451
     23 O          64.7974   94.1413    2.7456 O.3     1  UNL1       -0.4771
     24 H          65.0592   93.8604    3.6831 H       1  UNL1        0.2954
     25 C          59.8155   89.2367    7.2315 C.2     1  UNL1        0.2839
     26 O          58.7954   88.8098    6.6277 O.2     1  UNL1       -0.2665
     27 N          60.6341   90.2637    6.6445 N.am    1  UNL1       -0.2766
     28 H          61.4758   90.5937    7.1648 H       1  UNL1        0.1553
     29 C          61.3126   86.5397   12.3892 C.ar    1  UNL1        0.0002
     30 C          60.7495   87.7444   12.8916 C.ar    1  UNL1        0.0031
     31 C          60.2477   88.7249   12.0177 C.ar    1  UNL1        0.0375
     32 C          60.3185   88.4789   10.6510 C.ar    1  UNL1        0.1452
     33 O          59.9105   89.2570    9.6783 O.2     1  UNL1       -0.4492
     34 C          60.1567   88.6414    8.5352 C.ar    1  UNL1        0.1946
     35 C          60.7793   87.4108    8.7787 C.ar    1  UNL1        0.0202
     36 C          61.2962   86.4113    7.7888 C.3     1  UNL1        0.0345
     37 C          60.8576   87.3237   10.1539 C.ar    1  UNL1        0.0337
     38 C          61.3668   86.3302   10.9902 C.ar    1  UNL1        0.0028
     39 C          62.8446   83.5524   15.0859 C.ar    1  UNL1        0.0073
     40 C          61.5521   83.4312   14.5547 C.ar    1  UNL1       -0.0019
     41 C          61.0556   84.3984   13.6762 C.ar    1  UNL1       -0.0002
     42 C          61.8394   85.5112   13.3219 C.ar    1  UNL1       -0.0000
     43 C          63.1283   85.6373   13.8707 C.ar    1  UNL1       -0.0002
     44 C          63.6231   84.6698   14.7500 C.ar    1  UNL1       -0.0019
     45 C          63.3617   82.5342   16.0609 C.3     1  UNL1        0.1687
     46 C          63.3625   80.8211   14.5227 C.3     1  UNL1        0.1746
     47 O          64.1710   81.6090   15.3672 O.3     1  UNL1       -0.3463
@<TRIPOS>BOND
     1    46    47    1
     2    47    45    1
     3    45    39    1
     4    39    40   ar
     5    40    41   ar
     6    41    42   ar
     7    42    29    1
     8    29    30   ar
     9    30    31   ar
    10    31    32   ar
    11    32    33   ar
    12    33    34   ar
    13    34    25    1
    14    25    26    2
    15    25    27   am
    16    27     1    1
    17     1     2   ar
    18     2     3   ar
    19     3     4   ar
    20     4     7    1
    21     7     8    1
    22     8     9    1
    23     9    10    1
    24    10    13    1
    25    13    14    1
    26    14    15    1
    27    15    16   ar
    28    16    17   ar
    29    17    18   ar
    30    18    19   ar
    31    19    21    1
    32    21    22    2
    33    21    23    1
    34    19    20   ar
    35    10    11    1
    36    11    12    1
    37     4     5   ar
    38     5     6   ar
    39    34    35   ar
    40    35    36    1
    41    35    37   ar
    42    37    38   ar
    43    42    43   ar
    44    43    44   ar
    45    44    39   ar
    46    38    29   ar
    47    37    32   ar
    48     6     1   ar
    49    12     7    1
    50    20    15   ar
    51    27    28    1
    52    23    24    1
