@<TRIPOS>MOLECULE
*****
 52 58 0 0 0
SMALL
GASTEIGER

@<TRIPOS>ATOM
      1 C          60.4550   86.9284   10.6862 C.ar    1  UNL1        0.0481
      2 C          59.2611   86.3839   11.1830 C.ar    1  UNL1        0.0176
      3 C          59.2165   85.8196   12.4612 C.ar    1  UNL1        0.0382
      4 C          60.3708   85.7960   13.2678 C.ar    1  UNL1        0.1388
      5 C          61.5611   86.3357   12.7678 C.ar    1  UNL1        0.0382
      6 C          61.6057   86.9004   11.4903 C.ar    1  UNL1        0.0176
      7 N          60.2006   89.0139    7.0521 N.pl3   1  UNL1       -0.3041
      8 C          59.0962   88.1302    7.4446 C.3     1  UNL1        0.1122
      9 C          59.6251   86.9853    8.3091 C.3     1  UNL1        0.1122
     10 N          60.4915   87.5124    9.3704 N.pl3   1  UNL1       -0.3041
     11 C          61.5962   88.3954    8.9777 C.3     1  UNL1        0.1122
     12 C          61.0677   89.5404    8.1131 C.3     1  UNL1        0.1122
     13 C          60.3107   90.7487    3.1644 C.ar    1  UNL1        0.0695
     14 C          59.1648   90.8771    3.9643 C.ar    1  UNL1        0.0190
     15 C          59.1264   90.3101    5.2412 C.ar    1  UNL1        0.0160
     16 C          60.2336   89.6028    5.7382 C.ar    1  UNL1        0.0480
     17 C          61.3750   89.4656    4.9331 C.ar    1  UNL1        0.0160
     18 C          61.4122   90.0315    3.6559 C.ar    1  UNL1        0.0190
     19 N          59.7397   92.0794   -0.1532 N.ar    1  UNL1       -0.2028
     20 N          61.0447   92.2895   -0.0534 N.ar    1  UNL1       -0.1521
     21 C          61.4119   91.8169    1.1582 C.ar    1  UNL1        0.1479
     22 C          62.8243   91.8495    1.6499 C.3     1  UNL1        0.0742
     23 N          60.3521   91.3251    1.8470 N.ar    1  UNL1       -0.2457
     24 C          59.3276   91.5061    0.9922 C.ar    1  UNL1        0.3519
     25 O          58.1293   91.2051    1.2446 O.2     1  UNL1       -0.2444
     26 C          58.9152   92.4906   -1.2938 C.3     1  UNL1        0.1099
     27 C          58.0892   93.7267   -0.9145 C.3     1  UNL1        0.0265
     28 C          56.5508   91.6860   -1.8474 C.3     1  UNL1        0.0021
     29 C          58.0283   91.3097   -1.7350 C.3     1  UNL1        0.0245
     30 O          60.3856   85.2449   14.5595 O.3     1  UNL1       -0.4727
     31 C          61.3836   84.3621   15.0746 C.3     1  UNL1        0.2374
     32 C          61.3642   83.0170   14.3361 C.3     1  UNL1        0.1909
     33 C          62.7170   82.6115   13.8306 C.3     1  UNL1        0.1783
     34 O          62.4854   81.9433   12.6336 O.3     1  UNL1       -0.3271
     35 C          61.1855   82.3111   12.2136 C.3     1  UNL1        0.2232
     36 O          60.5592   83.1051   13.2056 O.3     1  UNL1       -0.3258
     37 C          60.3280   81.0679   11.9441 C.ar    1  UNL1        0.0404
     38 C          60.9282   79.7962   12.0786 C.ar    1  UNL1        0.0021
     39 C          60.1939   78.6263   11.8816 C.ar    1  UNL1        0.0113
     40 C          58.8391   78.6953   11.5658 C.ar    1  UNL1        0.0585
     41 CL         57.9178   77.2224   11.3228 Cl      1  UNL1       -0.0822
     42 C          58.2128   79.9369   11.4597 C.ar    1  UNL1        0.0226
     43 C          58.9341   81.1221   11.6555 C.ar    1  UNL1        0.0591
     44 CL         58.0133   82.6221   11.5530 Cl      1  UNL1       -0.0824
     45 C          61.2854   83.1591   10.9317 C.3     1  UNL1        0.1338
     46 N          62.2176   82.5380    9.9591 N.3     1  UNL1       -0.2659
     47 C          61.5766   81.4898    9.1420 C.3     1  UNL1        0.0898
     48 C          60.5521   82.0737    8.1429 C.3     1  UNL1        0.0897
     49 N          60.7159   83.5324    7.9746 N.3     1  UNL1       -0.2691
     50 C          59.9455   84.0032    6.8142 C.3     1  UNL1        0.0897
     51 C          62.1387   83.8794    7.8245 C.3     1  UNL1        0.0897
     52 C          62.9176   83.5306    9.1108 C.3     1  UNL1        0.0898
@<TRIPOS>BOND
     1    28    29    1
     2    29    26    1
     3    26    27    1
     4    26    19    1
     5    19    20   ar
     6    20    21   ar
     7    21    22    1
     8    21    23   ar
     9    23    13    1
    10    13    14   ar
    11    14    15   ar
    12    15    16   ar
    13    16     7    1
    14     7     8    1
    15     8     9    1
    16     9    10    1
    17    10     1    1
    18     1     2   ar
    19     2     3   ar
    20     3     4   ar
    21     4    30    1
    22    30    31    1
    23    31    32    1
    24    32    33    1
    25    33    34    1
    26    34    35    1
    27    35    45    1
    28    45    46    1
    29    46    47    1
    30    47    48    1
    31    48    49    1
    32    49    50    1
    33    49    51    1
    34    51    52    1
    35    35    37    1
    36    37    38   ar
    37    38    39   ar
    38    39    40   ar
    39    40    41    1
    40    40    42   ar
    41    42    43   ar
    42    43    44    1
    43    35    36    1
    44     4     5   ar
    45     5     6   ar
    46    10    11    1
    47    11    12    1
    48    16    17   ar
    49    17    18   ar
    50    23    24   ar
    51    24    25    2
    52    24    19   ar
    53    18    13   ar
    54    12     7    1
    55     6     1   ar
    56    36    32    1
    57    52    46    1
    58    43    37   ar
@<TRIPOS>MOLECULE
*****
 52 58 0 0 0
SMALL
GASTEIGER

@<TRIPOS>ATOM
      1 C          58.6742   85.5198    9.5339 C.ar    1  UNL1        0.0481
      2 C          58.1525   84.2427    9.2779 C.ar    1  UNL1        0.0176
      3 C          57.7704   83.4080   10.3321 C.ar    1  UNL1        0.0382
      4 C          57.9006   83.8428   11.6653 C.ar    1  UNL1        0.1388
      5 C          58.4255   85.1152   11.9177 C.ar    1  UNL1        0.0382
      6 C          58.8069   85.9501   10.8639 C.ar    1  UNL1        0.0176
      7 N          59.4823   88.4088    6.5976 N.pl3   1  UNL1       -0.3041
      8 C          58.1855   87.7214    6.5821 C.3     1  UNL1        0.1122
      9 C          58.3313   86.3174    7.1698 C.3     1  UNL1        0.1122
     10 N          59.0609   86.3757    8.4422 N.pl3   1  UNL1       -0.3041
     11 C          60.3580   87.0624    8.4574 C.3     1  UNL1        0.1122
     12 C          60.2126   88.4665    7.8697 C.3     1  UNL1        0.1122
     13 C          60.6282   90.9455    3.3746 C.ar    1  UNL1        0.0695
     14 C          59.4202   91.1665    4.0539 C.ar    1  UNL1        0.0190
     15 C          59.0424   90.3364    5.1131 C.ar    1  UNL1        0.0160
     16 C          59.8662   89.2696    5.5087 C.ar    1  UNL1        0.0480
     17 C          61.0686   89.0428    4.8215 C.ar    1  UNL1        0.0160
     18 C          61.4452   89.8722    3.7615 C.ar    1  UNL1        0.0190
     19 N          62.2124   93.1095    0.9434 N.ar    1  UNL1       -0.2028
     20 N          61.0204   92.9791    0.3783 N.ar    1  UNL1       -0.1521
     21 C          60.2961   92.1895    1.2019 C.ar    1  UNL1        0.1479
     22 C          58.8740   91.8156    0.9272 C.3     1  UNL1        0.0742
     23 N          61.0179   91.7933    2.2797 N.ar    1  UNL1       -0.2457
     24 C          62.2080   92.3910    2.0810 C.ar    1  UNL1        0.3519
     25 O          63.2019   92.2685    2.8474 O.2     1  UNL1       -0.2444
     26 C          63.3355   93.8471    0.3566 C.3     1  UNL1        0.1099
     27 C          63.2268   93.8214   -1.1736 C.3     1  UNL1        0.0265
     28 C          64.9788   91.8918    0.2126 C.3     1  UNL1        0.0021
     29 C          64.6616   93.2413    0.8572 C.3     1  UNL1        0.0245
     30 O          57.5318   83.0497   12.7641 O.3     1  UNL1       -0.4727
     31 C          58.3304   82.0213   13.3518 C.3     1  UNL1        0.2374
     32 C          59.6687   81.8740   12.6154 C.3     1  UNL1        0.1909
     33 C          60.6993   81.1420   13.4228 C.3     1  UNL1        0.1783
     34 O          61.9177   81.7251   13.0932 O.3     1  UNL1       -0.3271
     35 C          61.6182   82.9805   12.5141 C.3     1  UNL1        0.2232
     36 O          60.2169   83.1275   12.3668 O.3     1  UNL1       -0.3258
     37 C          62.2892   83.1213   11.1418 C.ar    1  UNL1        0.0404
     38 C          61.6494   83.9090   10.1591 C.ar    1  UNL1        0.0021
     39 C          62.2246   84.1053    8.9032 C.ar    1  UNL1        0.0113
     40 C          63.4610   83.5382    8.6036 C.ar    1  UNL1        0.0585
     41 CL         64.1835   83.7904    7.0251 Cl      1  UNL1       -0.0822
     42 C          64.1309   82.7836    9.5663 C.ar    1  UNL1        0.0226
     43 C          63.5690   82.5771   10.8332 C.ar    1  UNL1        0.0591
     44 CL         64.5433   81.6567   11.9785 Cl      1  UNL1       -0.0824
     45 C          62.1094   84.1024   13.4482 C.3     1  UNL1        0.1338
     46 N          61.1269   85.2125   13.5022 N.3     1  UNL1       -0.2659
     47 C          60.3137   85.1970   14.7333 C.3     1  UNL1        0.0898
     48 C          61.1440   85.5593   15.9856 C.3     1  UNL1        0.0897
     49 N          62.4334   86.1868   15.6296 N.3     1  UNL1       -0.2691
     50 C          63.0562   86.7864   16.8189 C.3     1  UNL1        0.0897
     51 C          62.2429   87.2012   14.5800 C.3     1  UNL1        0.0897
     52 C          61.7405   86.5421   13.2776 C.3     1  UNL1        0.0898
@<TRIPOS>BOND
     1    28    29    1
     2    29    26    1
     3    26    27    1
     4    26    19    1
     5    19    20   ar
     6    20    21   ar
     7    21    22    1
     8    21    23   ar
     9    23    13    1
    10    13    14   ar
    11    14    15   ar
    12    15    16   ar
    13    16     7    1
    14     7     8    1
    15     8     9    1
    16     9    10    1
    17    10     1    1
    18     1     2   ar
    19     2     3   ar
    20     3     4   ar
    21     4    30    1
    22    30    31    1
    23    31    32    1
    24    32    33    1
    25    33    34    1
    26    34    35    1
    27    35    45    1
    28    45    46    1
    29    46    47    1
    30    47    48    1
    31    48    49    1
    32    49    50    1
    33    49    51    1
    34    51    52    1
    35    35    37    1
    36    37    38   ar
    37    38    39   ar
    38    39    40   ar
    39    40    41    1
    40    40    42   ar
    41    42    43   ar
    42    43    44    1
    43    35    36    1
    44     4     5   ar
    45     5     6   ar
    46    10    11    1
    47    11    12    1
    48    16    17   ar
    49    17    18   ar
    50    23    24   ar
    51    24    25    2
    52    24    19   ar
    53    18    13   ar
    54    12     7    1
    55     6     1   ar
    56    36    32    1
    57    52    46    1
    58    43    37   ar
@<TRIPOS>MOLECULE
*****
 52 58 0 0 0
SMALL
GASTEIGER

@<TRIPOS>ATOM
      1 C          60.4396   87.1984   10.4881 C.ar    1  UNL1        0.0481
      2 C          61.6736   87.0821   11.1457 C.ar    1  UNL1        0.0176
      3 C          61.7775   86.3571   12.3363 C.ar    1  UNL1        0.0382
      4 C          60.6432   85.7301   12.8874 C.ar    1  UNL1        0.1388
      5 C          59.4130   85.8517   12.2317 C.ar    1  UNL1        0.0382
      6 C          59.3090   86.5758   11.0411 C.ar    1  UNL1        0.0176
      7 N          60.4630   88.9562    6.6762 N.pl3   1  UNL1       -0.3041
      8 C          61.6656   89.0531    7.5122 C.3     1  UNL1        0.1122
      9 C          61.2764   89.0425    8.9908 C.3     1  UNL1        0.1122
     10 N          60.3419   87.9428    9.2592 N.pl3   1  UNL1       -0.3041
     11 C          59.1389   87.8464    8.4237 C.3     1  UNL1        0.1122
     12 C          59.5278   87.8571    6.9449 C.3     1  UNL1        0.1122
     13 C          60.1696   91.1487    3.0372 C.ar    1  UNL1        0.0695
     14 C          61.3555   90.4725    3.3621 C.ar    1  UNL1        0.0190
     15 C          61.4541   89.7509    4.5550 C.ar    1  UNL1        0.0160
     16 C          60.3680   89.6959    5.4442 C.ar    1  UNL1        0.0480
     17 C          59.1862   90.3816    5.1234 C.ar    1  UNL1        0.0160
     18 C          59.0888   91.1042    3.9311 C.ar    1  UNL1        0.0190
     19 N          59.3394   92.6658   -0.1429 N.ar    1  UNL1       -0.2028
     20 N          60.4418   93.3439    0.1433 N.ar    1  UNL1       -0.1521
     21 C          60.8848   92.8631    1.3261 C.ar    1  UNL1        0.1479
     22 C          62.1300   93.3590    1.9905 C.3     1  UNL1        0.0742
     23 N          60.0659   91.8981    1.8136 N.ar    1  UNL1       -0.2457
     24 C          59.1145   91.8038    0.8654 C.ar    1  UNL1        0.3519
     25 O          58.1222   91.0281    0.9286 O.2     1  UNL1       -0.2444
     26 C          58.4981   92.9032   -1.3200 C.3     1  UNL1        0.1099
     27 C          57.2476   93.6919   -0.9100 C.3     1  UNL1        0.0265
     28 C          56.6457   91.2655   -1.9761 C.3     1  UNL1        0.0021
     29 C          58.1470   91.5540   -1.9774 C.3     1  UNL1        0.0245
     30 O          60.6873   84.9876   14.0787 O.3     1  UNL1       -0.4727
     31 C          61.7949   84.2065   14.5303 C.3     1  UNL1        0.2374
     32 C          61.7138   82.7718   13.9918 C.3     1  UNL1        0.1909
     33 C          63.0624   82.1814   13.7044 C.3     1  UNL1        0.1783
     34 O          62.8845   81.3618   12.5955 O.3     1  UNL1       -0.3271
     35 C          61.6762   81.7706   11.9840 C.3     1  UNL1        0.2232
     36 O          61.0375   82.7557   12.7768 O.3     1  UNL1       -0.3258
     37 C          60.7291   80.5781   11.7980 C.ar    1  UNL1        0.0404
     38 C          59.5273   80.5530   12.5399 C.ar    1  UNL1        0.0021
     39 C          58.6075   79.5146   12.3904 C.ar    1  UNL1        0.0113
     40 C          58.8538   78.4869   11.4831 C.ar    1  UNL1        0.0585
     41 CL         57.6933   77.1850   11.2945 Cl      1  UNL1       -0.0822
     42 C          60.0164   78.5038   10.7130 C.ar    1  UNL1        0.0226
     43 C          60.9506   79.5392   10.8488 C.ar    1  UNL1        0.0591
     44 CL         62.3476   79.4757    9.7752 Cl      1  UNL1       -0.0824
     45 C          61.9870   82.4034   10.6146 C.3     1  UNL1        0.1338
     46 N          60.9912   83.4502   10.2783 N.3     1  UNL1       -0.2659
     47 C          61.2024   84.0311    8.9385 C.3     1  UNL1        0.0898
     48 C          60.8761   83.0275    7.8093 C.3     1  UNL1        0.0897
     49 N          60.0919   81.8771    8.3038 N.3     1  UNL1       -0.2691
     50 C          59.5455   81.1078    7.1762 C.3     1  UNL1        0.0897
     51 C          59.0088   82.3322    9.1909 C.3     1  UNL1        0.0897
     52 C          59.5915   82.9982   10.4558 C.3     1  UNL1        0.0898
@<TRIPOS>BOND
     1    28    29    1
     2    29    26    1
     3    26    27    1
     4    26    19    1
     5    19    20   ar
     6    20    21   ar
     7    21    22    1
     8    21    23   ar
     9    23    13    1
    10    13    14   ar
    11    14    15   ar
    12    15    16   ar
    13    16     7    1
    14     7     8    1
    15     8     9    1
    16     9    10    1
    17    10     1    1
    18     1     2   ar
    19     2     3   ar
    20     3     4   ar
    21     4    30    1
    22    30    31    1
    23    31    32    1
    24    32    33    1
    25    33    34    1
    26    34    35    1
    27    35    45    1
    28    45    46    1
    29    46    47    1
    30    47    48    1
    31    48    49    1
    32    49    50    1
    33    49    51    1
    34    51    52    1
    35    35    37    1
    36    37    38   ar
    37    38    39   ar
    38    39    40   ar
    39    40    41    1
    40    40    42   ar
    41    42    43   ar
    42    43    44    1
    43    35    36    1
    44     4     5   ar
    45     5     6   ar
    46    10    11    1
    47    11    12    1
    48    16    17   ar
    49    17    18   ar
    50    23    24   ar
    51    24    25    2
    52    24    19   ar
    53    18    13   ar
    54    12     7    1
    55     6     1   ar
    56    36    32    1
    57    52    46    1
    58    43    37   ar
@<TRIPOS>MOLECULE
*****
 52 58 0 0 0
SMALL
GASTEIGER

@<TRIPOS>ATOM
      1 C          59.2539   86.1783    9.8976 C.ar    1  UNL1        0.0481
      2 C          59.8047   86.5557   11.1317 C.ar    1  UNL1        0.0176
      3 C          59.5167   85.8274   12.2895 C.ar    1  UNL1        0.0382
      4 C          58.6728   84.7015   12.2289 C.ar    1  UNL1        0.1388
      5 C          58.1214   84.3302   10.9975 C.ar    1  UNL1        0.0382
      6 C          58.4097   85.0578    9.8398 C.ar    1  UNL1        0.0176
      7 N          59.7628   88.7438    6.6142 N.pl3   1  UNL1       -0.3041
      8 C          58.5789   87.8776    6.6641 C.3     1  UNL1        0.1122
      9 C          58.8987   86.5996    7.4401 C.3     1  UNL1        0.1122
     10 N          59.5595   86.9308    8.7084 N.pl3   1  UNL1       -0.3041
     11 C          60.7439   87.7964    8.6584 C.3     1  UNL1        0.1122
     12 C          60.4243   89.0745    7.8822 C.3     1  UNL1        0.1122
     13 C          60.6437   90.9902    3.1052 C.ar    1  UNL1        0.0695
     14 C          61.5972   90.1103    3.6399 C.ar    1  UNL1        0.0190
     15 C          61.3102   89.3707    4.7906 C.ar    1  UNL1        0.0160
     16 C          60.0648   89.5010    5.4270 C.ar    1  UNL1        0.0480
     17 C          59.1160   90.3895    4.8977 C.ar    1  UNL1        0.0160
     18 C          59.4041   91.1299    3.7480 C.ar    1  UNL1        0.0190
     19 N          61.9804   93.0500    0.4455 N.ar    1  UNL1       -0.2028
     20 N          60.8069   92.7384   -0.0862 N.ar    1  UNL1       -0.1521
     21 C          60.1734   91.9650    0.8233 C.ar    1  UNL1        0.1479
     22 C          58.7979   91.4178    0.6084 C.3     1  UNL1        0.0742
     23 N          60.9372   91.7585    1.9248 N.ar    1  UNL1       -0.2457
     24 C          62.0565   92.4545    1.6497 C.ar    1  UNL1        0.3519
     25 O          63.0608   92.5157    2.4100 O.2     1  UNL1       -0.2444
     26 C          63.0169   93.8380   -0.2288 C.3     1  UNL1        0.1099
     27 C          62.7688   93.8289   -1.7429 C.3     1  UNL1        0.0265
     28 C          64.6919   91.9263   -0.5189 C.3     1  UNL1        0.0021
     29 C          64.4048   93.2766    0.1380 C.3     1  UNL1        0.0245
     30 O          58.3498   83.9307   13.3576 O.3     1  UNL1       -0.4727
     31 C          58.2448   82.5063   13.3885 C.3     1  UNL1        0.2374
     32 C          58.5566   81.9006   12.0134 C.3     1  UNL1        0.1909
     33 C          58.5653   80.4007   12.0271 C.3     1  UNL1        0.1783
     34 O          59.5450   80.0228   11.1159 O.3     1  UNL1       -0.3271
     35 C          60.3687   81.1560   10.9193 C.3     1  UNL1        0.2232
     36 O          59.8330   82.2731   11.6063 O.3     1  UNL1       -0.3258
     37 C          60.4891   81.4895    9.4268 C.ar    1  UNL1        0.0404
     38 C          59.8903   80.6150    8.4929 C.ar    1  UNL1        0.0021
     39 C          59.9339   80.8801    7.1237 C.ar    1  UNL1        0.0113
     40 C          60.5577   82.0335    6.6539 C.ar    1  UNL1        0.0585
     41 CL         60.6071   82.3659    4.9322 Cl      1  UNL1       -0.0822
     42 C          61.1279   82.9316    7.5558 C.ar    1  UNL1        0.0226
     43 C          61.0924   82.6823    8.9341 C.ar    1  UNL1        0.0591
     44 CL         61.7947   83.9240    9.9701 Cl      1  UNL1       -0.0824
     45 C          61.7669   80.8765   11.5019 C.3     1  UNL1        0.1338
     46 N          62.3989   82.1297   11.9821 N.3     1  UNL1       -0.2659
     47 C          61.8187   82.6135   13.2495 C.3     1  UNL1        0.0898
     48 C          62.1783   81.6990   14.4425 C.3     1  UNL1        0.0897
     49 N          63.2961   80.7878   14.1213 N.3     1  UNL1       -0.2691
     50 C          63.8080   80.1546   15.3456 C.3     1  UNL1        0.0897
     51 C          64.3724   81.5137   13.4272 C.3     1  UNL1        0.0897
     52 C          63.8755   82.0407   12.0639 C.3     1  UNL1        0.0898
@<TRIPOS>BOND
     1    28    29    1
     2    29    26    1
     3    26    27    1
     4    26    19    1
     5    19    20   ar
     6    20    21   ar
     7    21    22    1
     8    21    23   ar
     9    23    13    1
    10    13    14   ar
    11    14    15   ar
    12    15    16   ar
    13    16     7    1
    14     7     8    1
    15     8     9    1
    16     9    10    1
    17    10     1    1
    18     1     2   ar
    19     2     3   ar
    20     3     4   ar
    21     4    30    1
    22    30    31    1
    23    31    32    1
    24    32    33    1
    25    33    34    1
    26    34    35    1
    27    35    45    1
    28    45    46    1
    29    46    47    1
    30    47    48    1
    31    48    49    1
    32    49    50    1
    33    49    51    1
    34    51    52    1
    35    35    37    1
    36    37    38   ar
    37    38    39   ar
    38    39    40   ar
    39    40    41    1
    40    40    42   ar
    41    42    43   ar
    42    43    44    1
    43    35    36    1
    44     4     5   ar
    45     5     6   ar
    46    10    11    1
    47    11    12    1
    48    16    17   ar
    49    17    18   ar
    50    23    24   ar
    51    24    25    2
    52    24    19   ar
    53    18    13   ar
    54    12     7    1
    55     6     1   ar
    56    36    32    1
    57    52    46    1
    58    43    37   ar
@<TRIPOS>MOLECULE
*****
 52 58 0 0 0
SMALL
GASTEIGER

@<TRIPOS>ATOM
      1 C          58.6331   85.3296    9.5130 C.ar    1  UNL1        0.0481
      2 C          58.1458   84.0432    9.2367 C.ar    1  UNL1        0.0176
      3 C          57.7862   83.1820   10.2774 C.ar    1  UNL1        0.0382
      4 C          57.9047   83.5990   11.6173 C.ar    1  UNL1        0.1388
      5 C          58.3953   84.8809   11.8899 C.ar    1  UNL1        0.0382
      6 C          58.7543   85.7422   10.8497 C.ar    1  UNL1        0.0176
      7 N          59.3760   88.2901    6.6312 N.pl3   1  UNL1       -0.3041
      8 C          58.0829   87.5957    6.6215 C.3     1  UNL1        0.1122
      9 C          58.2462   86.1794    7.1740 C.3     1  UNL1        0.1122
     10 N          58.9967   86.2126    8.4351 N.pl3   1  UNL1       -0.3041
     11 C          60.2902   86.9064    8.4446 C.3     1  UNL1        0.1122
     12 C          60.1273   88.3228    7.8920 C.3     1  UNL1        0.1122
     13 C          60.4536   90.9070    3.4490 C.ar    1  UNL1        0.0695
     14 C          59.2679   91.1194    4.1691 C.ar    1  UNL1        0.0190
     15 C          58.9126   90.2630    5.2149 C.ar    1  UNL1        0.0160
     16 C          59.7368   89.1780    5.5563 C.ar    1  UNL1        0.0480
     17 C          60.9168   88.9600    4.8283 C.ar    1  UNL1        0.0160
     18 C          61.2708   89.8158    3.7817 C.ar    1  UNL1        0.0190
     19 N          60.7118   93.0714    0.5591 N.ar    1  UNL1       -0.2028
     20 N          61.9721   93.0998    0.9685 N.ar    1  UNL1       -0.1521
     21 C          62.0331   92.3039    2.0591 C.ar    1  UNL1        0.1479
     22 C          63.3008   92.0524    2.8124 C.3     1  UNL1        0.0742
     23 N          60.8199   91.7820    2.3675 N.ar    1  UNL1       -0.2457
     24 C          60.0229   92.2843    1.4054 C.ar    1  UNL1        0.3519
     25 O          58.7829   92.0694    1.3253 O.2     1  UNL1       -0.2444
     26 C          60.1863   93.8430   -0.5716 C.3     1  UNL1        0.1099
     27 C          58.6644   93.6672   -0.6536 C.3     1  UNL1        0.0265
     28 C          61.7257   92.1286   -1.6831 C.3     1  UNL1        0.0021
     29 C          60.8952   93.3989   -1.8664 C.3     1  UNL1        0.0245
     30 O          57.5572   82.7790   12.7033 O.3     1  UNL1       -0.4727
     31 C          58.3525   81.7150   13.2287 C.3     1  UNL1        0.2374
     32 C          59.7113   81.6403   12.5196 C.3     1  UNL1        0.1909
     33 C          60.7491   80.9170   13.3258 C.3     1  UNL1        0.1783
     34 O          61.9529   81.5534   13.0451 O.3     1  UNL1       -0.3271
     35 C          61.6218   82.8170   12.5021 C.3     1  UNL1        0.2232
     36 O          60.2199   82.9201   12.3267 O.3     1  UNL1       -0.3258
     37 C          62.3180   83.0289   11.1515 C.ar    1  UNL1        0.0404
     38 C          61.6753   83.8324   10.1836 C.ar    1  UNL1        0.0021
     39 C          62.2715   84.0925    8.9492 C.ar    1  UNL1        0.0113
     40 C          63.5313   83.5748    8.6577 C.ar    1  UNL1        0.0585
     41 CL         64.2799   83.9071    7.1064 Cl      1  UNL1       -0.0822
     42 C          64.2034   82.8060    9.6076 C.ar    1  UNL1        0.0226
     43 C          63.6207   82.5358   10.8529 C.ar    1  UNL1        0.0591
     44 CL         64.5981   81.6039   11.9862 Cl      1  UNL1       -0.0824
     45 C          62.0516   83.9221   13.4851 C.3     1  UNL1        0.1338
     46 N          61.0558   85.0213   13.5120 N.3     1  UNL1       -0.2659
     47 C          60.2938   85.0718   14.7745 C.3     1  UNL1        0.0898
     48 C          61.1690   85.5207   15.9667 C.3     1  UNL1        0.0897
     49 N          62.4334   86.1408   15.5198 N.3     1  UNL1       -0.2691
     50 C          63.0952   86.8202   16.6432 C.3     1  UNL1        0.0897
     51 C          62.1853   87.0862   14.4190 C.3     1  UNL1        0.0897
     52 C          61.6400   86.3421   13.1813 C.3     1  UNL1        0.0898
@<TRIPOS>BOND
     1    28    29    1
     2    29    26    1
     3    26    27    1
     4    26    19    1
     5    19    20   ar
     6    20    21   ar
     7    21    22    1
     8    21    23   ar
     9    23    13    1
    10    13    14   ar
    11    14    15   ar
    12    15    16   ar
    13    16     7    1
    14     7     8    1
    15     8     9    1
    16     9    10    1
    17    10     1    1
    18     1     2   ar
    19     2     3   ar
    20     3     4   ar
    21     4    30    1
    22    30    31    1
    23    31    32    1
    24    32    33    1
    25    33    34    1
    26    34    35    1
    27    35    45    1
    28    45    46    1
    29    46    47    1
    30    47    48    1
    31    48    49    1
    32    49    50    1
    33    49    51    1
    34    51    52    1
    35    35    37    1
    36    37    38   ar
    37    38    39   ar
    38    39    40   ar
    39    40    41    1
    40    40    42   ar
    41    42    43   ar
    42    43    44    1
    43    35    36    1
    44     4     5   ar
    45     5     6   ar
    46    10    11    1
    47    11    12    1
    48    16    17   ar
    49    17    18   ar
    50    23    24   ar
    51    24    25    2
    52    24    19   ar
    53    18    13   ar
    54    12     7    1
    55     6     1   ar
    56    36    32    1
    57    52    46    1
    58    43    37   ar
@<TRIPOS>MOLECULE
*****
 52 58 0 0 0
SMALL
GASTEIGER

@<TRIPOS>ATOM
      1 C          58.5033   83.0720   10.8139 C.ar    1  UNL1        0.0481
      2 C          58.5513   81.7574   10.3258 C.ar    1  UNL1        0.0176
      3 C          58.4285   80.6719   11.1979 C.ar    1  UNL1        0.0382
      4 C          58.2499   80.8865   12.5783 C.ar    1  UNL1        0.1388
      5 C          58.2069   82.1986   13.0627 C.ar    1  UNL1        0.0382
      6 C          58.3291   83.2840   12.1910 C.ar    1  UNL1        0.0176
      7 N          59.3822   86.1299    8.0757 N.pl3   1  UNL1       -0.3041
      8 C          59.9330   86.2105    9.4339 C.3     1  UNL1        0.1122
      9 C          58.9975   85.5098   10.4196 C.3     1  UNL1        0.1122
     10 N          58.6256   84.1851    9.9084 N.pl3   1  UNL1       -0.3041
     11 C          58.0740   84.1047    8.5505 C.3     1  UNL1        0.1122
     12 C          59.0093   84.8054    7.5645 C.3     1  UNL1        0.1122
     13 C          59.7742   89.4146    5.3937 C.ar    1  UNL1        0.0695
     14 C          58.5272   88.7986    5.5806 C.ar    1  UNL1        0.0190
     15 C          58.3953   87.7214    6.4613 C.ar    1  UNL1        0.0160
     16 C          59.5100   87.2409    7.1682 C.ar    1  UNL1        0.0480
     17 C          60.7588   87.8505    6.9723 C.ar    1  UNL1        0.0160
     18 C          60.8903   88.9267    6.0903 C.ar    1  UNL1        0.0190
     19 N          60.6979   91.8682    2.8978 N.ar    1  UNL1       -0.2028
     20 N          59.5779   92.4191    3.3439 N.ar    1  UNL1       -0.1521
     21 C          59.1156   91.6015    4.3157 C.ar    1  UNL1        0.1479
     22 C          57.8682   91.8843    5.0913 C.3     1  UNL1        0.0742
     23 N          59.9158   90.5194    4.4832 N.ar    1  UNL1       -0.2457
     24 C          60.8932   90.7252    3.5802 C.ar    1  UNL1        0.3519
     25 O          61.8531   89.9326    3.3782 O.2     1  UNL1       -0.2444
     26 C          61.5060   92.4005    1.7961 C.3     1  UNL1        0.1099
     27 C          61.0264   93.8138    1.4403 C.3     1  UNL1        0.0265
     28 C          60.0555   91.4396   -0.0793 C.3     1  UNL1        0.0021
     29 C          61.4279   91.4384    0.5943 C.3     1  UNL1        0.0245
     30 O          58.1186   79.8361   13.5013 O.3     1  UNL1       -0.4727
     31 C          59.1971   79.1032   14.0847 C.3     1  UNL1        0.2374
     32 C          60.5440   79.5390   13.4922 C.3     1  UNL1        0.1909
     33 C          61.7037   79.2221   14.3892 C.3     1  UNL1        0.1783
     34 O          62.6147   80.2559   14.2039 O.3     1  UNL1       -0.3271
     35 C          61.8947   81.3261   13.6231 C.3     1  UNL1        0.2232
     36 O          60.5695   80.9199   13.3303 O.3     1  UNL1       -0.3258
     37 C          62.5746   81.8036   12.3335 C.ar    1  UNL1        0.0404
     38 C          61.8226   81.8020   11.1377 C.ar    1  UNL1        0.0021
     39 C          62.3715   82.2570    9.9383 C.ar    1  UNL1        0.0113
     40 C          63.6763   82.7434    9.9060 C.ar    1  UNL1        0.0585
     41 CL         64.3621   83.3185    8.3973 Cl      1  UNL1       -0.0822
     42 C          64.4304   82.7879   11.0784 C.ar    1  UNL1        0.0226
     43 C          63.8950   82.3365   12.2920 C.ar    1  UNL1        0.0591
     44 CL         64.9285   82.5026   13.7107 Cl      1  UNL1       -0.0824
     45 C          61.8145   82.4906   14.6280 C.3     1  UNL1        0.1338
     46 N          60.9461   83.5761   14.1100 N.3     1  UNL1       -0.2659
     47 C          60.4222   84.4482   15.1787 C.3     1  UNL1        0.0898
     48 C          61.5286   85.3190   15.8161 C.3     1  UNL1        0.0897
     49 N          62.7492   85.3555   14.9844 N.3     1  UNL1       -0.2691
     50 C          63.6562   86.4135   15.4530 C.3     1  UNL1        0.0897
     51 C          62.4043   85.5616   13.5682 C.3     1  UNL1        0.0897
     52 C          61.5857   84.3672   13.0330 C.3     1  UNL1        0.0898
@<TRIPOS>BOND
     1    28    29    1
     2    29    26    1
     3    26    27    1
     4    26    19    1
     5    19    20   ar
     6    20    21   ar
     7    21    22    1
     8    21    23   ar
     9    23    13    1
    10    13    14   ar
    11    14    15   ar
    12    15    16   ar
    13    16     7    1
    14     7     8    1
    15     8     9    1
    16     9    10    1
    17    10     1    1
    18     1     2   ar
    19     2     3   ar
    20     3     4   ar
    21     4    30    1
    22    30    31    1
    23    31    32    1
    24    32    33    1
    25    33    34    1
    26    34    35    1
    27    35    45    1
    28    45    46    1
    29    46    47    1
    30    47    48    1
    31    48    49    1
    32    49    50    1
    33    49    51    1
    34    51    52    1
    35    35    37    1
    36    37    38   ar
    37    38    39   ar
    38    39    40   ar
    39    40    41    1
    40    40    42   ar
    41    42    43   ar
    42    43    44    1
    43    35    36    1
    44     4     5   ar
    45     5     6   ar
    46    10    11    1
    47    11    12    1
    48    16    17   ar
    49    17    18   ar
    50    23    24   ar
    51    24    25    2
    52    24    19   ar
    53    18    13   ar
    54    12     7    1
    55     6     1   ar
    56    36    32    1
    57    52    46    1
    58    43    37   ar
@<TRIPOS>MOLECULE
*****
 52 58 0 0 0
SMALL
GASTEIGER

@<TRIPOS>ATOM
      1 C          60.3117   87.0896   10.5497 C.ar    1  UNL1        0.0481
      2 C          59.0692   86.6505   11.0315 C.ar    1  UNL1        0.0176
      3 C          58.9529   86.1300   12.3236 C.ar    1  UNL1        0.0382
      4 C          60.0832   86.0450   13.1594 C.ar    1  UNL1        0.1388
      5 C          61.3219   86.4795   12.6746 C.ar    1  UNL1        0.0382
      6 C          61.4382   87.0004   11.3832 C.ar    1  UNL1        0.0176
      7 N          60.2572   89.0476    6.8370 N.pl3   1  UNL1       -0.3041
      8 C          59.1410   88.1628    7.1917 C.3     1  UNL1        0.1122
      9 C          59.6288   87.0550    8.1259 C.3     1  UNL1        0.1122
     10 N          60.4223   87.6293    9.2192 N.pl3   1  UNL1       -0.3041
     11 C          61.5389   88.5134    8.8644 C.3     1  UNL1        0.1122
     12 C          61.0514   89.6213    7.9301 C.3     1  UNL1        0.1122
     13 C          60.5857   90.6508    2.9054 C.ar    1  UNL1        0.0695
     14 C          59.4199   90.8577    3.6588 C.ar    1  UNL1        0.0190
     15 C          59.3100   90.3340    4.9500 C.ar    1  UNL1        0.0160
     16 C          60.3642   89.5922    5.5081 C.ar    1  UNL1        0.0480
     17 C          61.5252   89.3765    4.7497 C.ar    1  UNL1        0.0160
     18 C          61.6339   89.8992    3.4581 C.ar    1  UNL1        0.0190
     19 N          61.5451   92.0208   -0.3049 N.ar    1  UNL1       -0.2028
     20 N          60.2384   91.9061   -0.4962 N.ar    1  UNL1       -0.1521
     21 C          59.7305   91.4090    0.6533 C.ar    1  UNL1        0.1479
     22 C          58.2707   91.1500    0.8523 C.3     1  UNL1        0.0742
     23 N          60.7006   91.1824    1.5736 N.ar    1  UNL1       -0.2457
     24 C          61.8184   91.5794    0.9364 C.ar    1  UNL1        0.3519
     25 O          62.9777   91.5169    1.4287 O.2     1  UNL1       -0.2444
     26 C          62.4986   92.4743   -1.3222 C.3     1  UNL1        0.1099
     27 C          63.5886   91.4124   -1.5179 C.3     1  UNL1        0.0265
     28 C          64.5400   93.7476   -0.4529 C.3     1  UNL1        0.0021
     29 C          63.0819   93.8383   -0.9034 C.3     1  UNL1        0.0245
     30 O          60.0268   85.5336   14.4663 O.3     1  UNL1       -0.4727
     31 C          61.0288   84.7259   15.0862 C.3     1  UNL1        0.2374
     32 C          61.1120   83.3447   14.4225 C.3     1  UNL1        0.1909
     33 C          62.5057   82.9855   14.0000 C.3     1  UNL1        0.1783
     34 O          62.3645   82.2439   12.8325 O.3     1  UNL1       -0.3271
     35 C          61.0687   82.5196   12.3363 C.3     1  UNL1        0.2232
     36 O          60.3573   83.3303   13.2547 O.3     1  UNL1       -0.3258
     37 C          60.2888   81.2202   12.0980 C.ar    1  UNL1        0.0404
     38 C          60.9326   79.9918   12.3668 C.ar    1  UNL1        0.0021
     39 C          60.2668   78.7765   12.2041 C.ar    1  UNL1        0.0113
     40 C          58.9373   78.7570   11.7892 C.ar    1  UNL1        0.0585
     41 CL         58.1019   77.2274   11.5896 Cl      1  UNL1       -0.0822
     42 C          58.2668   79.9561   11.5490 C.ar    1  UNL1        0.0226
     43 C          58.9190   81.1859   11.7085 C.ar    1  UNL1        0.0591
     44 CL         57.9435   82.6282   11.4324 Cl      1  UNL1       -0.0824
     45 C          61.1853   83.3031   11.0153 C.3     1  UNL1        0.1338
     46 N          62.2325   82.7159   10.1439 N.3     1  UNL1       -0.2659
     47 C          61.7485   81.5565    9.3702 C.3     1  UNL1        0.0898
     48 C          60.7371   81.9664    8.2757 C.3     1  UNL1        0.0897
     49 N          60.7693   83.4198    8.0117 N.3     1  UNL1       -0.2691
     50 C          60.0314   83.7323    6.7790 C.3     1  UNL1        0.0897
     51 C          62.1585   83.8977    7.9168 C.3     1  UNL1        0.0897
     52 C          62.8851   83.7155    9.2665 C.3     1  UNL1        0.0898
@<TRIPOS>BOND
     1    28    29    1
     2    29    26    1
     3    26    27    1
     4    26    19    1
     5    19    20   ar
     6    20    21   ar
     7    21    22    1
     8    21    23   ar
     9    23    13    1
    10    13    14   ar
    11    14    15   ar
    12    15    16   ar
    13    16     7    1
    14     7     8    1
    15     8     9    1
    16     9    10    1
    17    10     1    1
    18     1     2   ar
    19     2     3   ar
    20     3     4   ar
    21     4    30    1
    22    30    31    1
    23    31    32    1
    24    32    33    1
    25    33    34    1
    26    34    35    1
    27    35    45    1
    28    45    46    1
    29    46    47    1
    30    47    48    1
    31    48    49    1
    32    49    50    1
    33    49    51    1
    34    51    52    1
    35    35    37    1
    36    37    38   ar
    37    38    39   ar
    38    39    40   ar
    39    40    41    1
    40    40    42   ar
    41    42    43   ar
    42    43    44    1
    43    35    36    1
    44     4     5   ar
    45     5     6   ar
    46    10    11    1
    47    11    12    1
    48    16    17   ar
    49    17    18   ar
    50    23    24   ar
    51    24    25    2
    52    24    19   ar
    53    18    13   ar
    54    12     7    1
    55     6     1   ar
    56    36    32    1
    57    52    46    1
    58    43    37   ar
@<TRIPOS>MOLECULE
*****
 52 58 0 0 0
SMALL
GASTEIGER

@<TRIPOS>ATOM
      1 C          59.4849   86.7622    9.6404 C.ar    1  UNL1        0.0481
      2 C          58.7844   85.5473    9.6859 C.ar    1  UNL1        0.0176
      3 C          58.5192   84.9266   10.9099 C.ar    1  UNL1        0.0382
      4 C          58.9488   85.5178   12.1139 C.ar    1  UNL1        0.1388
      5 C          59.6512   86.7271   12.0651 C.ar    1  UNL1        0.0382
      6 C          59.9159   87.3481   10.8415 C.ar    1  UNL1        0.0176
      7 N          59.8946   89.0131    6.1209 N.pl3   1  UNL1       -0.3041
      8 C          58.6928   88.1904    6.3040 C.3     1  UNL1        0.1122
      9 C          59.0182   86.9766    7.1749 C.3     1  UNL1        0.1122
     10 N          59.7498   87.3979    8.3757 N.pl3   1  UNL1       -0.3041
     11 C          60.9520   88.2199    8.1925 C.3     1  UNL1        0.1122
     12 C          60.6269   89.4339    7.3216 C.3     1  UNL1        0.1122
     13 C          60.6795   90.8999    2.3847 C.ar    1  UNL1        0.0695
     14 C          59.4697   91.1351    3.0557 C.ar    1  UNL1        0.0190
     15 C          59.2101   90.5184    4.2828 C.ar    1  UNL1        0.0160
     16 C          60.1561   89.6538    4.8580 C.ar    1  UNL1        0.0480
     17 C          61.3610   89.4107    4.1807 C.ar    1  UNL1        0.0160
     18 C          61.6194   90.0264    2.9530 C.ar    1  UNL1        0.0190
     19 N          62.0083   92.3144   -0.6709 N.ar    1  UNL1       -0.2028
     20 N          60.7211   92.5756   -0.8491 N.ar    1  UNL1       -0.1521
     21 C          60.0851   92.1069    0.2474 C.ar    1  UNL1        0.1479
     22 C          58.6070   92.2271    0.4438 C.3     1  UNL1        0.0742
     23 N          60.9482   91.5273    1.1183 N.ar    1  UNL1       -0.2457
     24 C          62.1389   91.6796    0.5083 C.ar    1  UNL1        0.3519
     25 O          63.2332   91.2545    0.9686 O.2     1  UNL1       -0.2444
     26 C          63.0604   92.6075   -1.6492 C.3     1  UNL1        0.1099
     27 C          63.9590   91.3765   -1.8252 C.3     1  UNL1        0.0265
     28 C          64.9251   93.5164   -0.1522 C.3     1  UNL1        0.0021
     29 C          63.8531   93.8474   -1.1907 C.3     1  UNL1        0.0245
     30 O          58.7097   84.9421   13.3724 O.3     1  UNL1       -0.4727
     31 C          59.1651   85.4606   14.6232 C.3     1  UNL1        0.2374
     32 C          60.5231   84.8582   15.0081 C.3     1  UNL1        0.1909
     33 C          61.6397   85.8581   14.9522 C.3     1  UNL1        0.1783
     34 O          62.7591   85.1475   14.5342 O.3     1  UNL1       -0.3271
     35 C          62.2798   83.9544   13.9442 C.3     1  UNL1        0.2232
     36 O          60.8756   83.8608   14.1055 O.3     1  UNL1       -0.3258
     37 C          62.9456   82.7269   14.5794 C.ar    1  UNL1        0.0404
     38 C          62.1665   81.5641   14.7703 C.ar    1  UNL1        0.0021
     39 C          62.7213   80.4034   15.3105 C.ar    1  UNL1        0.0113
     40 C          64.0706   80.3673   15.6544 C.ar    1  UNL1        0.0585
     41 CL         64.7659   78.9050   16.3295 Cl      1  UNL1       -0.0822
     42 C          64.8711   81.4900   15.4455 C.ar    1  UNL1        0.0226
     43 C          64.3314   82.6637   14.9029 C.ar    1  UNL1        0.0591
     44 CL         65.4611   83.9901   14.6331 Cl      1  UNL1       -0.0824
     45 C          62.5752   83.9794   12.4327 C.3     1  UNL1        0.1338
     46 N          62.6274   82.6029   11.8821 N.3     1  UNL1       -0.2659
     47 C          61.4585   82.2783   11.0422 C.3     1  UNL1        0.0898
     48 C          61.4611   83.0625    9.7104 C.3     1  UNL1        0.0897
     49 N          62.7831   83.6561    9.4226 N.3     1  UNL1       -0.2691
     50 C          62.8399   84.1289    8.0316 C.3     1  UNL1        0.0897
     51 C          63.8553   82.6807    9.6802 C.3     1  UNL1        0.0897
     52 C          63.8967   82.3074   11.1775 C.3     1  UNL1        0.0898
@<TRIPOS>BOND
     1    28    29    1
     2    29    26    1
     3    26    27    1
     4    26    19    1
     5    19    20   ar
     6    20    21   ar
     7    21    22    1
     8    21    23   ar
     9    23    13    1
    10    13    14   ar
    11    14    15   ar
    12    15    16   ar
    13    16     7    1
    14     7     8    1
    15     8     9    1
    16     9    10    1
    17    10     1    1
    18     1     2   ar
    19     2     3   ar
    20     3     4   ar
    21     4    30    1
    22    30    31    1
    23    31    32    1
    24    32    33    1
    25    33    34    1
    26    34    35    1
    27    35    45    1
    28    45    46    1
    29    46    47    1
    30    47    48    1
    31    48    49    1
    32    49    50    1
    33    49    51    1
    34    51    52    1
    35    35    37    1
    36    37    38   ar
    37    38    39   ar
    38    39    40   ar
    39    40    41    1
    40    40    42   ar
    41    42    43   ar
    42    43    44    1
    43    35    36    1
    44     4     5   ar
    45     5     6   ar
    46    10    11    1
    47    11    12    1
    48    16    17   ar
    49    17    18   ar
    50    23    24   ar
    51    24    25    2
    52    24    19   ar
    53    18    13   ar
    54    12     7    1
    55     6     1   ar
    56    36    32    1
    57    52    46    1
    58    43    37   ar
@<TRIPOS>MOLECULE
*****
 52 58 0 0 0
SMALL
GASTEIGER

@<TRIPOS>ATOM
      1 C          59.5896   86.5021   10.0654 C.ar    1  UNL1        0.0481
      2 C          58.6047   85.5036   10.1056 C.ar    1  UNL1        0.0176
      3 C          58.3494   84.8061   11.2897 C.ar    1  UNL1        0.0382
      4 C          59.0761   85.1021   12.4592 C.ar    1  UNL1        0.1388
      5 C          60.0608   86.0954   12.4150 C.ar    1  UNL1        0.0382
      6 C          60.3158   86.7933   11.2314 C.ar    1  UNL1        0.0176
      7 N          59.8648   88.8896    6.6237 N.pl3   1  UNL1       -0.3041
      8 C          58.8806   87.8011    6.6583 C.3     1  UNL1        0.1122
      9 C          59.3804   86.6732    7.5615 C.3     1  UNL1        0.1122
     10 N          59.8432   87.2197    8.8429 N.pl3   1  UNL1       -0.3041
     11 C          60.8279   88.3076    8.8083 C.3     1  UNL1        0.1122
     12 C          60.3284   89.4357    7.9050 C.3     1  UNL1        0.1122
     13 C          60.6125   91.0154    3.0102 C.ar    1  UNL1        0.0695
     14 C          59.4181   91.2208    3.7178 C.ar    1  UNL1        0.0190
     15 C          59.1708   90.5256    4.9048 C.ar    1  UNL1        0.0160
     16 C          60.1138   89.6111    5.4025 C.ar    1  UNL1        0.0480
     17 C          61.3030   89.3983    4.6883 C.ar    1  UNL1        0.0160
     18 C          61.5491   90.0926    3.5006 C.ar    1  UNL1        0.0190
     19 N          61.8573   92.9531    0.2175 N.ar    1  UNL1       -0.2028
     20 N          60.6808   92.5902   -0.2735 N.ar    1  UNL1       -0.1521
     21 C          60.0803   91.8552    0.6886 C.ar    1  UNL1        0.1479
     22 C          58.7125   91.2705    0.5305 C.3     1  UNL1        0.0742
     23 N          60.8683   91.7238    1.7846 N.ar    1  UNL1       -0.2457
     24 C          61.9679   92.4256    1.4504 C.ar    1  UNL1        0.3519
     25 O          62.9845   92.5475    2.1865 O.2     1  UNL1       -0.2444
     26 C          62.8648   93.7232   -0.5185 C.3     1  UNL1        0.1099
     27 C          62.4464   93.8474   -1.9894 C.3     1  UNL1        0.0265
     28 C          64.2684   91.6195   -0.9034 C.3     1  UNL1        0.0021
     29 C          64.2411   93.0477   -0.3589 C.3     1  UNL1        0.0245
     30 O          58.8622   84.4366   13.6774 O.3     1  UNL1       -0.4727
     31 C          58.4782   83.0681   13.8201 C.3     1  UNL1        0.2374
     32 C          58.5616   82.3292   12.4776 C.3     1  UNL1        0.1909
     33 C          58.3915   80.8456   12.6188 C.3     1  UNL1        0.1783
     34 O          59.2124   80.2800   11.6497 O.3     1  UNL1       -0.3271
     35 C          60.1395   81.2807   11.2752 C.3     1  UNL1        0.2232
     36 O          59.8208   82.5042   11.9142 O.3     1  UNL1       -0.3258
     37 C          60.1339   81.4869    9.7550 C.ar    1  UNL1        0.0404
     38 C          61.1149   82.3306    9.1882 C.ar    1  UNL1        0.0021
     39 C          61.1856   82.5319    7.8094 C.ar    1  UNL1        0.0113
     40 C          60.2933   81.8812    6.9606 C.ar    1  UNL1        0.0585
     41 CL         60.3875   82.1331    5.2272 Cl      1  UNL1       -0.0822
     42 C          59.3358   81.0163    7.4901 C.ar    1  UNL1        0.0226
     43 C          59.2511   80.8011    8.8721 C.ar    1  UNL1        0.0591
     44 CL         58.0382   79.6392    9.4080 Cl      1  UNL1       -0.0824
     45 C          61.5496   80.8669   11.7363 C.3     1  UNL1        0.1338
     46 N          62.3865   82.0603   12.0118 N.3     1  UNL1       -0.2659
     47 C          62.0084   82.7477   13.2615 C.3     1  UNL1        0.0898
     48 C          62.3661   81.9177   14.5152 C.3     1  UNL1        0.0897
     49 N          63.3158   80.8296   14.2035 N.3     1  UNL1       -0.2691
     50 C          63.8638   80.2583   15.4425 C.3     1  UNL1        0.0897
     51 C          64.4006   81.3216   13.3384 C.3     1  UNL1        0.0897
     52 C          63.8392   81.7721   11.9728 C.3     1  UNL1        0.0898
@<TRIPOS>BOND
     1    28    29    1
     2    29    26    1
     3    26    27    1
     4    26    19    1
     5    19    20   ar
     6    20    21   ar
     7    21    22    1
     8    21    23   ar
     9    23    13    1
    10    13    14   ar
    11    14    15   ar
    12    15    16   ar
    13    16     7    1
    14     7     8    1
    15     8     9    1
    16     9    10    1
    17    10     1    1
    18     1     2   ar
    19     2     3   ar
    20     3     4   ar
    21     4    30    1
    22    30    31    1
    23    31    32    1
    24    32    33    1
    25    33    34    1
    26    34    35    1
    27    35    45    1
    28    45    46    1
    29    46    47    1
    30    47    48    1
    31    48    49    1
    32    49    50    1
    33    49    51    1
    34    51    52    1
    35    35    37    1
    36    37    38   ar
    37    38    39   ar
    38    39    40   ar
    39    40    41    1
    40    40    42   ar
    41    42    43   ar
    42    43    44    1
    43    35    36    1
    44     4     5   ar
    45     5     6   ar
    46    10    11    1
    47    11    12    1
    48    16    17   ar
    49    17    18   ar
    50    23    24   ar
    51    24    25    2
    52    24    19   ar
    53    18    13   ar
    54    12     7    1
    55     6     1   ar
    56    36    32    1
    57    52    46    1
    58    43    37   ar
