@<TRIPOS>MOLECULE
*****
 48 53 0 0 0
SMALL
GASTEIGER

@<TRIPOS>ATOM
      1 C          12.1191   79.8325   25.4659 C.2     1  UNL1        0.2839
      2 O          12.9357   79.5251   24.5570 O.2     1  UNL1       -0.2665
      3 N          11.9799   81.2002   25.8893 N.am    1  UNL1       -0.2766
      4 H          11.2994   81.4245   26.6475 H       1  UNL1        0.1553
      5 C           8.9293   79.3221   25.2438 C.3     1  UNL1        0.0345
      6 C           9.9520   78.5445   26.0154 C.ar    1  UNL1        0.0202
      7 C          11.3343   78.7558   26.0944 C.ar    1  UNL1        0.1946
      8 O          11.8945   77.8097   26.8275 O.2     1  UNL1       -0.4492
      9 C          10.9446   77.0106   27.2483 C.ar    1  UNL1        0.1452
     10 C          11.0810   75.8847   28.0527 C.ar    1  UNL1        0.0375
     11 C           9.9192   75.1653   28.3836 C.ar    1  UNL1        0.0031
     12 C           8.6453   75.5794   27.9076 C.ar    1  UNL1        0.0002
     13 C           8.5515   76.7314   27.0902 C.ar    1  UNL1        0.0028
     14 C           9.7247   77.4210   26.7842 C.ar    1  UNL1        0.0337
     15 C           7.4251   74.8116   28.2634 C.ar    1  UNL1        0.0000
     16 C           6.8331   73.9388   27.3346 C.ar    1  UNL1        0.0002
     17 C           5.6841   73.2160   27.6688 C.ar    1  UNL1        0.0064
     18 C           5.0982   73.3532   28.9392 C.ar    1  UNL1        0.0755
     19 C           5.6982   74.2166   29.8721 C.ar    1  UNL1        0.0064
     20 C           6.8457   74.9407   29.5369 C.ar    1  UNL1        0.0002
     21 C           3.8823   72.5895   29.3116 C.2     1  UNL1        0.3380
     22 O           2.9694   73.1518   29.9732 O.2     1  UNL1       -0.2451
     23 O           3.7069   71.2579   28.9362 O.3     1  UNL1       -0.4771
     24 H           4.3474   70.7757   28.3194 H       1  UNL1        0.2954
     25 C          12.6697   82.3055   25.2828 C.ar    1  UNL1        0.0702
     26 C          13.4639   83.1854   26.0343 C.ar    1  UNL1        0.0191
     27 C          14.0945   84.2643   25.4124 C.ar    1  UNL1        0.0356
     28 C          13.9250   84.4656   24.0334 C.ar    1  UNL1        0.1318
     29 N          13.1153   83.6226   23.3341 N.ar    1  UNL1       -0.2279
     30 C          12.4906   82.5666   23.9189 C.ar    1  UNL1        0.1149
     31 N          14.5427   85.5799   23.3616 N.pl3   1  UNL1       -0.2932
     32 C          15.4953   85.3175   22.2725 C.3     1  UNL1        0.0923
     33 C          15.8489   86.6023   21.5077 C.3     1  UNL1        0.0252
     34 C          14.5864   87.4588   21.2997 C.3     1  UNL1        0.0472
     35 C          13.9501   87.8774   22.6537 C.3     1  UNL1        0.0252
     36 C          14.3447   86.9609   23.8241 C.3     1  UNL1        0.0923
     37 C          14.9038   88.6866   20.4250 C.3     1  UNL1        0.2054
     38 O          14.0282   88.7550   19.2980 O.3     1  UNL1       -0.4755
     39 C          14.2589   88.1615   18.0460 C.ar    1  UNL1        0.1388
     40 C          14.3839   88.9088   16.8600 C.ar    1  UNL1        0.0369
     41 C          14.6105   88.2621   15.6440 C.ar    1  UNL1        0.0033
     42 C          14.7167   86.8704   15.5939 C.ar    1  UNL1        0.0066
     43 C          14.5998   86.1060   16.7680 C.ar    1  UNL1        0.0785
     44 C          14.3593   86.7658   17.9874 C.ar    1  UNL1        0.0433
     45 C          14.7029   84.6265   16.7340 C.2     1  UNL1        0.3381
     46 O          15.7174   84.0823   16.2224 O.2     1  UNL1       -0.2451
     47 O          13.6949   83.8077   17.2422 O.3     1  UNL1       -0.4771
     48 H          12.8107   84.1718   17.5723 H       1  UNL1        0.2954
@<TRIPOS>BOND
     1     5     6    1
     2     6     7   ar
     3     7     1    1
     4     1     2    2
     5     1     3   am
     6     3    25    1
     7    25    26   ar
     8    26    27   ar
     9    27    28   ar
    10    28    31    1
    11    31    32    1
    12    32    33    1
    13    33    34    1
    14    34    37    1
    15    37    38    1
    16    38    39    1
    17    39    40   ar
    18    40    41   ar
    19    41    42   ar
    20    42    43   ar
    21    43    45    1
    22    45    46    2
    23    45    47    1
    24    43    44   ar
    25    34    35    1
    26    35    36    1
    27    28    29   ar
    28    29    30   ar
    29     7     8   ar
    30     8     9   ar
    31     9    10   ar
    32    10    11   ar
    33    11    12   ar
    34    12    15    1
    35    15    16   ar
    36    16    17   ar
    37    17    18   ar
    38    18    21    1
    39    21    22    2
    40    21    23    1
    41    18    19   ar
    42    19    20   ar
    43    12    13   ar
    44    13    14   ar
    45    14     6   ar
    46    30    25   ar
    47    14     9   ar
    48    36    31    1
    49    20    15   ar
    50    44    39   ar
    51     3     4    1
    52    47    48    1
    53    23    24    1
@<TRIPOS>MOLECULE
*****
 48 53 0 0 0
SMALL
GASTEIGER

@<TRIPOS>ATOM
      1 C          10.9243   81.2796   25.5854 C.2     1  UNL1        0.2839
      2 O          10.5105   81.6025   24.4400 O.2     1  UNL1       -0.2665
      3 N          12.1406   81.8433   26.1072 N.am    1  UNL1       -0.2766
      4 H          12.4616   81.5537   27.0565 H       1  UNL1        0.1553
      5 C           9.1670   78.8100   24.4464 C.3     1  UNL1        0.0345
      6 C           9.3692   79.2403   25.8677 C.ar    1  UNL1        0.0202
      7 C          10.1455   80.2974   26.3592 C.ar    1  UNL1        0.1946
      8 O          10.1144   80.3041   27.6803 O.2     1  UNL1       -0.4492
      9 C           9.3385   79.3222   28.0701 C.ar    1  UNL1        0.1452
     10 C           9.0179   78.9645   29.3749 C.ar    1  UNL1        0.0375
     11 C           8.1619   77.8656   29.5664 C.ar    1  UNL1        0.0031
     12 C           7.6425   77.1443   28.4571 C.ar    1  UNL1        0.0002
     13 C           7.9954   77.5417   27.1450 C.ar    1  UNL1        0.0028
     14 C           8.8451   78.6375   26.9932 C.ar    1  UNL1        0.0337
     15 C           6.7394   75.9852   28.6717 C.ar    1  UNL1        0.0000
     16 C           6.7432   74.9005   27.7780 C.ar    1  UNL1        0.0002
     17 C           5.8930   73.8093   27.9792 C.ar    1  UNL1        0.0064
     18 C           5.0159   73.7801   29.0774 C.ar    1  UNL1        0.0755
     19 C           5.0218   74.8594   29.9778 C.ar    1  UNL1        0.0064
     20 C           5.8704   75.9512   29.7752 C.ar    1  UNL1        0.0002
     21 C           4.1113   72.6273   29.3083 C.2     1  UNL1        0.3380
     22 O           3.1920   72.7162   30.1652 O.2     1  UNL1       -0.2451
     23 O           4.2363   71.4391   28.5890 O.3     1  UNL1       -0.4771
     24 H           4.8815   71.3336   27.8171 H       1  UNL1        0.2954
     25 C          12.9178   82.8466   25.4327 C.ar    1  UNL1        0.0702
     26 C          13.4634   83.9444   26.1158 C.ar    1  UNL1        0.0191
     27 C          14.1882   84.9128   25.4194 C.ar    1  UNL1        0.0356
     28 C          14.3629   84.7839   24.0323 C.ar    1  UNL1        0.1318
     29 N          13.7878   83.7320   23.3858 N.ar    1  UNL1       -0.2279
     30 C          13.0771   82.7781   24.0433 C.ar    1  UNL1        0.1149
     31 N          15.0864   85.7743   23.2772 N.pl3   1  UNL1       -0.2932
     32 C          15.2417   85.5923   21.8263 C.3     1  UNL1        0.0923
     33 C          15.8024   86.8551   21.1541 C.3     1  UNL1        0.0252
     34 C          15.1435   88.1108   21.7537 C.3     1  UNL1        0.0472
     35 C          15.4185   88.2280   23.2782 C.3     1  UNL1        0.0252
     36 C          15.7817   86.8874   23.9389 C.3     1  UNL1        0.0923
     37 C          15.6031   89.3743   21.0016 C.3     1  UNL1        0.2054
     38 O          15.5075   89.1938   19.5874 O.3     1  UNL1       -0.4755
     39 C          14.3285   89.2842   18.8293 C.ar    1  UNL1        0.1388
     40 C          13.0560   89.4253   19.4135 C.ar    1  UNL1        0.0369
     41 C          11.9193   89.5076   18.6076 C.ar    1  UNL1        0.0033
     42 C          12.0349   89.4527   17.2169 C.ar    1  UNL1        0.0066
     43 C          13.2974   89.3171   16.6135 C.ar    1  UNL1        0.0785
     44 C          14.4364   89.2226   17.4343 C.ar    1  UNL1        0.0433
     45 C          13.4398   89.2501   15.1383 C.2     1  UNL1        0.3381
     46 O          14.5766   89.3885   14.6133 O.2     1  UNL1       -0.2451
     47 O          12.3414   89.0519   14.3022 O.3     1  UNL1       -0.4771
     48 H          11.3900   89.0360   14.6456 H       1  UNL1        0.2954
@<TRIPOS>BOND
     1     5     6    1
     2     6     7   ar
     3     7     1    1
     4     1     2    2
     5     1     3   am
     6     3    25    1
     7    25    26   ar
     8    26    27   ar
     9    27    28   ar
    10    28    31    1
    11    31    32    1
    12    32    33    1
    13    33    34    1
    14    34    37    1
    15    37    38    1
    16    38    39    1
    17    39    40   ar
    18    40    41   ar
    19    41    42   ar
    20    42    43   ar
    21    43    45    1
    22    45    46    2
    23    45    47    1
    24    43    44   ar
    25    34    35    1
    26    35    36    1
    27    28    29   ar
    28    29    30   ar
    29     7     8   ar
    30     8     9   ar
    31     9    10   ar
    32    10    11   ar
    33    11    12   ar
    34    12    15    1
    35    15    16   ar
    36    16    17   ar
    37    17    18   ar
    38    18    21    1
    39    21    22    2
    40    21    23    1
    41    18    19   ar
    42    19    20   ar
    43    12    13   ar
    44    13    14   ar
    45    14     6   ar
    46    30    25   ar
    47    14     9   ar
    48    36    31    1
    49    20    15   ar
    50    44    39   ar
    51     3     4    1
    52    47    48    1
    53    23    24    1
@<TRIPOS>MOLECULE
*****
 48 53 0 0 0
SMALL
GASTEIGER

@<TRIPOS>ATOM
      1 C          10.8554   81.2622   26.1146 C.2     1  UNL1        0.2839
      2 O          10.4185   81.7224   25.0262 O.2     1  UNL1       -0.2665
      3 N          12.1028   81.7311   26.6564 N.am    1  UNL1       -0.2766
      4 H          12.4423   81.3284   27.5569 H       1  UNL1        0.1553
      5 C           9.0830   78.9136   24.7628 C.3     1  UNL1        0.0345
      6 C           9.2874   79.2158   26.2165 C.ar    1  UNL1        0.0202
      7 C          10.0701   80.2206   26.7990 C.ar    1  UNL1        0.1946
      8 O          10.0385   80.1112   28.1156 O.2     1  UNL1       -0.4492
      9 C           9.2563   79.1037   28.4175 C.ar    1  UNL1        0.1452
     10 C           8.9328   78.6345   29.6858 C.ar    1  UNL1        0.0375
     11 C           8.0698   77.5285   29.7800 C.ar    1  UNL1        0.0031
     12 C           7.5464   76.9110   28.6115 C.ar    1  UNL1        0.0002
     13 C           7.9023   77.4201   27.3395 C.ar    1  UNL1        0.0028
     14 C           8.7590   78.5196   27.2846 C.ar    1  UNL1        0.0337
     15 C           6.6359   75.7432   28.7233 C.ar    1  UNL1        0.0000
     16 C           5.8726   75.5402   29.8858 C.ar    1  UNL1        0.0002
     17 C           5.0156   74.4408   29.9918 C.ar    1  UNL1        0.0064
     18 C           4.9058   73.5165   28.9384 C.ar    1  UNL1        0.0755
     19 C           5.6598   73.7273   27.7711 C.ar    1  UNL1        0.0064
     20 C           6.5181   74.8252   27.6662 C.ar    1  UNL1        0.0002
     21 C           3.9971   72.3478   29.0327 C.2     1  UNL1        0.3380
     22 O           2.8546   72.4844   29.5459 O.2     1  UNL1       -0.2451
     23 O           4.3638   71.0908   28.5527 O.3     1  UNL1       -0.4771
     24 H           5.2198   70.9316   28.0378 H       1  UNL1        0.2954
     25 C          12.8901   82.7825   26.0731 C.ar    1  UNL1        0.0702
     26 C          13.5943   83.7053   26.8617 C.ar    1  UNL1        0.0191
     27 C          14.3244   84.7298   26.2570 C.ar    1  UNL1        0.0356
     28 C          14.3451   84.8336   24.8570 C.ar    1  UNL1        0.1318
     29 N          13.6192   83.9514   24.1153 N.ar    1  UNL1       -0.2279
     30 C          12.9004   82.9470   24.6827 C.ar    1  UNL1        0.1149
     31 N          15.0698   85.8900   24.1988 N.pl3   1  UNL1       -0.2932
     32 C          15.6985   85.6204   22.8971 C.3     1  UNL1        0.0923
     33 C          16.1951   86.9122   22.2298 C.3     1  UNL1        0.0252
     34 C          15.1613   88.0374   22.4200 C.3     1  UNL1        0.0472
     35 C          14.9230   88.3463   23.9237 C.3     1  UNL1        0.0252
     36 C          15.3058   87.1837   24.8551 C.3     1  UNL1        0.0923
     37 C          15.5883   89.3003   21.6481 C.3     1  UNL1        0.2054
     38 O          14.8936   89.4015   20.4037 O.3     1  UNL1       -0.4755
     39 C          13.9463   88.4846   19.9190 C.ar    1  UNL1        0.1388
     40 C          12.5596   88.6697   20.0709 C.ar    1  UNL1        0.0369
     41 C          11.6661   87.7217   19.5696 C.ar    1  UNL1        0.0033
     42 C          12.1397   86.5840   18.9125 C.ar    1  UNL1        0.0066
     43 C          13.5211   86.3828   18.7460 C.ar    1  UNL1        0.0785
     44 C          14.4145   87.3379   19.2653 C.ar    1  UNL1        0.0433
     45 C          14.0436   85.1774   18.0568 C.2     1  UNL1        0.3381
     46 O          14.7615   85.3067   17.0297 O.2     1  UNL1       -0.2451
     47 O          13.7503   83.8897   18.5048 O.3     1  UNL1       -0.4771
     48 H          13.0993   83.7089   19.2576 H       1  UNL1        0.2954
@<TRIPOS>BOND
     1     5     6    1
     2     6     7   ar
     3     7     1    1
     4     1     2    2
     5     1     3   am
     6     3    25    1
     7    25    26   ar
     8    26    27   ar
     9    27    28   ar
    10    28    31    1
    11    31    32    1
    12    32    33    1
    13    33    34    1
    14    34    37    1
    15    37    38    1
    16    38    39    1
    17    39    40   ar
    18    40    41   ar
    19    41    42   ar
    20    42    43   ar
    21    43    45    1
    22    45    46    2
    23    45    47    1
    24    43    44   ar
    25    34    35    1
    26    35    36    1
    27    28    29   ar
    28    29    30   ar
    29     7     8   ar
    30     8     9   ar
    31     9    10   ar
    32    10    11   ar
    33    11    12   ar
    34    12    15    1
    35    15    16   ar
    36    16    17   ar
    37    17    18   ar
    38    18    21    1
    39    21    22    2
    40    21    23    1
    41    18    19   ar
    42    19    20   ar
    43    12    13   ar
    44    13    14   ar
    45    14     6   ar
    46    30    25   ar
    47    14     9   ar
    48    36    31    1
    49    20    15   ar
    50    44    39   ar
    51     3     4    1
    52    47    48    1
    53    23    24    1
@<TRIPOS>MOLECULE
*****
 48 53 0 0 0
SMALL
GASTEIGER

@<TRIPOS>ATOM
      1 C          11.0305   81.2659   25.6339 C.2     1  UNL1        0.2839
      2 O          10.7837   81.4245   24.4086 O.2     1  UNL1       -0.2665
      3 N          12.0648   82.0333   26.2749 N.am    1  UNL1       -0.2766
      4 H          12.2504   81.8772   27.2895 H       1  UNL1        0.1553
      5 C           9.2017   78.8832   24.4246 C.3     1  UNL1        0.0345
      6 C           9.4448   79.2431   25.8590 C.ar    1  UNL1        0.0202
      7 C          10.2518   80.2624   26.3800 C.ar    1  UNL1        0.1946
      8 O          10.2515   80.2081   27.7004 O.2     1  UNL1       -0.4492
      9 C           9.4668   79.2228   28.0629 C.ar    1  UNL1        0.1452
     10 C           9.1700   78.8102   29.3572 C.ar    1  UNL1        0.0375
     11 C           8.2984   77.7188   29.5183 C.ar    1  UNL1        0.0031
     12 C           7.7402   77.0592   28.3896 C.ar    1  UNL1        0.0002
     13 C           8.0698   77.5111   27.0892 C.ar    1  UNL1        0.0028
     14 C           8.9359   78.5977   26.9678 C.ar    1  UNL1        0.0337
     15 C           6.8210   75.9073   28.5721 C.ar    1  UNL1        0.0000
     16 C           6.5811   75.0096   27.5176 C.ar    1  UNL1        0.0002
     17 C           5.7155   73.9253   27.6887 C.ar    1  UNL1        0.0064
     18 C           5.0664   73.7165   28.9179 C.ar    1  UNL1        0.0755
     19 C           5.3167   74.6072   29.9760 C.ar    1  UNL1        0.0064
     20 C           6.1804   75.6924   29.8041 C.ar    1  UNL1        0.0002
     21 C           4.1492   72.5678   29.1175 C.2     1  UNL1        0.3380
     22 O           3.1253   72.7037   29.8389 O.2     1  UNL1       -0.2451
     23 O           4.3771   71.3315   28.5137 O.3     1  UNL1       -0.4771
     24 H           5.1184   71.1804   27.8423 H       1  UNL1        0.2954
     25 C          12.8225   83.0663   25.6236 C.ar    1  UNL1        0.0702
     26 C          12.8523   83.1942   24.2264 C.ar    1  UNL1        0.0191
     27 C          13.6238   84.1934   23.6309 C.ar    1  UNL1        0.0356
     28 C          14.3723   85.0650   24.4378 C.ar    1  UNL1        0.1318
     29 N          14.3601   84.8937   25.7890 N.ar    1  UNL1       -0.2279
     30 C          13.6174   83.9270   26.3903 C.ar    1  UNL1        0.1149
     31 N          15.1965   86.0941   23.8581 N.pl3   1  UNL1       -0.2932
     32 C          15.9181   85.8109   22.6085 C.3     1  UNL1        0.0923
     33 C          16.5267   87.0860   22.0047 C.3     1  UNL1        0.0252
     34 C          15.5331   88.2558   22.1268 C.3     1  UNL1        0.0472
     35 C          15.1851   88.5578   23.6104 C.3     1  UNL1        0.0252
     36 C          15.4359   87.3676   24.5518 C.3     1  UNL1        0.0923
     37 C          16.0797   89.5066   21.4125 C.3     1  UNL1        0.2054
     38 O          16.0835   89.3284   19.9949 O.3     1  UNL1       -0.4755
     39 C          14.9444   89.1862   19.1854 C.ar    1  UNL1        0.1388
     40 C          14.9584   89.4342   17.8002 C.ar    1  UNL1        0.0369
     41 C          13.7931   89.2780   17.0478 C.ar    1  UNL1        0.0033
     42 C          12.6057   88.8733   17.6617 C.ar    1  UNL1        0.0066
     43 C          12.5719   88.6158   19.0434 C.ar    1  UNL1        0.0785
     44 C          13.7486   88.7877   19.7958 C.ar    1  UNL1        0.0433
     45 C          11.3188   88.1917   19.7146 C.2     1  UNL1        0.3381
     46 O          11.3614   87.3245   20.6275 O.2     1  UNL1       -0.2451
     47 O          10.0780   88.7163   19.3539 O.3     1  UNL1       -0.4771
     48 H           9.9565   89.3364   18.5640 H       1  UNL1        0.2954
@<TRIPOS>BOND
     1     5     6    1
     2     6     7   ar
     3     7     1    1
     4     1     2    2
     5     1     3   am
     6     3    25    1
     7    25    26   ar
     8    26    27   ar
     9    27    28   ar
    10    28    31    1
    11    31    32    1
    12    32    33    1
    13    33    34    1
    14    34    37    1
    15    37    38    1
    16    38    39    1
    17    39    40   ar
    18    40    41   ar
    19    41    42   ar
    20    42    43   ar
    21    43    45    1
    22    45    46    2
    23    45    47    1
    24    43    44   ar
    25    34    35    1
    26    35    36    1
    27    28    29   ar
    28    29    30   ar
    29     7     8   ar
    30     8     9   ar
    31     9    10   ar
    32    10    11   ar
    33    11    12   ar
    34    12    15    1
    35    15    16   ar
    36    16    17   ar
    37    17    18   ar
    38    18    21    1
    39    21    22    2
    40    21    23    1
    41    18    19   ar
    42    19    20   ar
    43    12    13   ar
    44    13    14   ar
    45    14     6   ar
    46    30    25   ar
    47    14     9   ar
    48    36    31    1
    49    20    15   ar
    50    44    39   ar
    51     3     4    1
    52    47    48    1
    53    23    24    1
@<TRIPOS>MOLECULE
*****
 48 53 0 0 0
SMALL
GASTEIGER

@<TRIPOS>ATOM
      1 C           8.9968   78.4167   22.4736 C.2     1  UNL1        0.2839
      2 O           9.8099   78.6745   21.5463 O.2     1  UNL1       -0.2665
      3 N           9.1931   78.9645   23.7892 N.am    1  UNL1       -0.2766
      4 H           8.5065   78.7298   24.5386 H       1  UNL1        0.1553
      5 C           6.4624   79.0112   20.5480 C.3     1  UNL1        0.0345
      6 C           6.7544   77.7878   21.3630 C.ar    1  UNL1        0.0202
      7 C           7.8612   77.5253   22.1802 C.ar    1  UNL1        0.1946
      8 O           7.7769   76.3031   22.6755 O.2     1  UNL1       -0.4492
      9 C           6.6611   75.7688   22.2422 C.ar    1  UNL1        0.1452
     10 C           6.1683   74.4984   22.5190 C.ar    1  UNL1        0.0375
     11 C           4.9417   74.1262   21.9412 C.ar    1  UNL1        0.0031
     12 C           4.2303   75.0240   21.0996 C.ar    1  UNL1        0.0002
     13 C           4.7685   76.3079   20.8432 C.ar    1  UNL1        0.0028
     14 C           5.9863   76.6434   21.4349 C.ar    1  UNL1        0.0337
     15 C           2.9358   74.6197   20.4948 C.ar    1  UNL1        0.0000
     16 C           2.3688   73.3678   20.7890 C.ar    1  UNL1        0.0002
     17 C           1.1504   72.9864   20.2196 C.ar    1  UNL1        0.0064
     18 C           0.4729   73.8475   19.3389 C.ar    1  UNL1        0.0755
     19 C           1.0342   75.1045   19.0551 C.ar    1  UNL1        0.0064
     20 C           2.2533   75.4847   19.6228 C.ar    1  UNL1        0.0002
     21 C          -0.8234   73.4603   18.7305 C.2     1  UNL1        0.3380
     22 O          -1.6484   74.3522   18.3972 O.2     1  UNL1       -0.2451
     23 O          -1.1572   72.1263   18.4982 O.3     1  UNL1       -0.4771
     24 H          -0.5049   71.3671   18.6440 H       1  UNL1        0.2954
     25 C          10.2437   79.8838   24.1304 C.ar    1  UNL1        0.0702
     26 C          11.5618   79.4544   24.3493 C.ar    1  UNL1        0.0191
     27 C          12.5479   80.3750   24.7075 C.ar    1  UNL1        0.0356
     28 C          12.2115   81.7305   24.8519 C.ar    1  UNL1        0.1318
     29 N          10.9170   82.1155   24.6755 N.ar    1  UNL1       -0.2279
     30 C           9.9404   81.2364   24.3277 C.ar    1  UNL1        0.1149
     31 N          13.1976   82.7055   25.2410 N.pl3   1  UNL1       -0.2932
     32 C          13.4683   83.8421   24.3481 C.3     1  UNL1        0.0923
     33 C          14.3421   84.9044   25.0327 C.3     1  UNL1        0.0252
     34 C          13.8904   85.1014   26.4914 C.3     1  UNL1        0.0472
     35 C          14.0174   83.7881   27.3115 C.3     1  UNL1        0.0252
     36 C          14.0283   82.5212   26.4394 C.3     1  UNL1        0.0923
     37 C          14.6745   86.2525   27.1497 C.3     1  UNL1        0.2054
     38 O          14.9913   87.2692   26.1971 O.3     1  UNL1       -0.4755
     39 C          16.2103   87.9625   26.1159 C.ar    1  UNL1        0.1388
     40 C          16.7768   88.6386   27.2125 C.ar    1  UNL1        0.0369
     41 C          17.9907   89.3127   27.0700 C.ar    1  UNL1        0.0033
     42 C          18.6533   89.3207   25.8406 C.ar    1  UNL1        0.0066
     43 C          18.1067   88.6473   24.7342 C.ar    1  UNL1        0.0785
     44 C          16.8765   87.9806   24.8842 C.ar    1  UNL1        0.0433
     45 C          18.7922   88.6501   23.4186 C.2     1  UNL1        0.3381
     46 O          18.3341   89.3501   22.4767 O.2     1  UNL1       -0.2451
     47 O          19.9322   87.8823   23.1823 O.3     1  UNL1       -0.4771
     48 H          20.2939   87.2208   23.8566 H       1  UNL1        0.2954
@<TRIPOS>BOND
     1     5     6    1
     2     6     7   ar
     3     7     1    1
     4     1     2    2
     5     1     3   am
     6     3    25    1
     7    25    26   ar
     8    26    27   ar
     9    27    28   ar
    10    28    31    1
    11    31    32    1
    12    32    33    1
    13    33    34    1
    14    34    37    1
    15    37    38    1
    16    38    39    1
    17    39    40   ar
    18    40    41   ar
    19    41    42   ar
    20    42    43   ar
    21    43    45    1
    22    45    46    2
    23    45    47    1
    24    43    44   ar
    25    34    35    1
    26    35    36    1
    27    28    29   ar
    28    29    30   ar
    29     7     8   ar
    30     8     9   ar
    31     9    10   ar
    32    10    11   ar
    33    11    12   ar
    34    12    15    1
    35    15    16   ar
    36    16    17   ar
    37    17    18   ar
    38    18    21    1
    39    21    22    2
    40    21    23    1
    41    18    19   ar
    42    19    20   ar
    43    12    13   ar
    44    13    14   ar
    45    14     6   ar
    46    30    25   ar
    47    14     9   ar
    48    36    31    1
    49    20    15   ar
    50    44    39   ar
    51     3     4    1
    52    47    48    1
    53    23    24    1
@<TRIPOS>MOLECULE
*****
 48 53 0 0 0
SMALL
GASTEIGER

@<TRIPOS>ATOM
      1 C           8.7591   78.1763   22.1676 C.2     1  UNL1        0.2839
      2 O           9.5556   78.4936   21.2445 O.2     1  UNL1       -0.2665
      3 N           8.9817   78.6348   23.5128 N.am    1  UNL1       -0.2766
      4 H           8.3084   78.3521   24.2577 H       1  UNL1        0.1553
      5 C           5.9735   79.0298   20.7546 C.3     1  UNL1        0.0345
      6 C           6.4020   77.6794   21.2434 C.ar    1  UNL1        0.0202
      7 C           7.6153   77.3088   21.8369 C.ar    1  UNL1        0.1946
      8 O           7.6276   76.0071   22.0645 O.2     1  UNL1       -0.4492
      9 C           6.4761   75.5187   21.6726 C.ar    1  UNL1        0.1452
     10 C           6.0553   74.1947   21.7304 C.ar    1  UNL1        0.0375
     11 C           4.7706   73.8890   21.2475 C.ar    1  UNL1        0.0031
     12 C           3.9307   74.9055   20.7166 C.ar    1  UNL1        0.0002
     13 C           4.3990   76.2407   20.6755 C.ar    1  UNL1        0.0028
     14 C           5.6777   76.5071   21.1651 C.ar    1  UNL1        0.0337
     15 C           2.5758   74.5706   20.2093 C.ar    1  UNL1        0.0000
     16 C           1.9903   73.3267   20.5006 C.ar    1  UNL1        0.0002
     17 C           0.7150   73.0107   20.0230 C.ar    1  UNL1        0.0064
     18 C          -0.0024   73.9309   19.2390 C.ar    1  UNL1        0.0755
     19 C           0.5786   75.1798   18.9588 C.ar    1  UNL1        0.0064
     20 C           1.8544   75.4946   19.4346 C.ar    1  UNL1        0.0002
     21 C          -1.3587   73.6134   18.7290 C.2     1  UNL1        0.3380
     22 O          -1.4912   72.8293   17.7518 O.2     1  UNL1       -0.2451
     23 O          -2.5071   74.1484   19.3119 O.3     1  UNL1       -0.4771
     24 H          -2.4828   74.6999   20.1596 H       1  UNL1        0.2954
     25 C          10.0415   79.5273   23.8947 C.ar    1  UNL1        0.0702
     26 C          11.2921   79.0532   24.3199 C.ar    1  UNL1        0.0191
     27 C          12.2860   79.9520   24.7102 C.ar    1  UNL1        0.0356
     28 C          12.0248   81.3311   24.6793 C.ar    1  UNL1        0.1318
     29 N          10.7894   81.7644   24.3033 N.ar    1  UNL1       -0.2279
     30 C           9.8063   80.9073   23.9205 C.ar    1  UNL1        0.1149
     31 N          13.0185   82.2872   25.0949 N.pl3   1  UNL1       -0.2932
     32 C          13.2380   83.4895   24.2770 C.3     1  UNL1        0.0923
     33 C          14.1322   84.5096   24.9984 C.3     1  UNL1        0.0252
     34 C          13.7454   84.5935   26.4864 C.3     1  UNL1        0.0472
     35 C          13.9216   83.2254   27.2009 C.3     1  UNL1        0.0252
     36 C          13.9045   82.0260   26.2381 C.3     1  UNL1        0.0923
     37 C          14.5481   85.7030   27.1921 C.3     1  UNL1        0.2054
     38 O          14.1179   86.9978   26.7679 O.3     1  UNL1       -0.4755
     39 C          14.7016   87.7577   25.7409 C.ar    1  UNL1        0.1388
     40 C          13.9582   88.6227   24.9164 C.ar    1  UNL1        0.0369
     41 C          14.5942   89.3509   23.9096 C.ar    1  UNL1        0.0033
     42 C          15.9715   89.2292   23.7133 C.ar    1  UNL1        0.0066
     43 C          16.7329   88.3744   24.5294 C.ar    1  UNL1        0.0785
     44 C          16.0812   87.6350   25.5338 C.ar    1  UNL1        0.0433
     45 C          18.1957   88.2266   24.3319 C.2     1  UNL1        0.3381
     46 O          18.9675   89.1715   24.6461 O.2     1  UNL1       -0.2451
     47 O          18.7507   87.0680   23.7892 O.3     1  UNL1       -0.4771
     48 H          18.1865   86.3137   23.4205 H       1  UNL1        0.2954
@<TRIPOS>BOND
     1     5     6    1
     2     6     7   ar
     3     7     1    1
     4     1     2    2
     5     1     3   am
     6     3    25    1
     7    25    26   ar
     8    26    27   ar
     9    27    28   ar
    10    28    31    1
    11    31    32    1
    12    32    33    1
    13    33    34    1
    14    34    37    1
    15    37    38    1
    16    38    39    1
    17    39    40   ar
    18    40    41   ar
    19    41    42   ar
    20    42    43   ar
    21    43    45    1
    22    45    46    2
    23    45    47    1
    24    43    44   ar
    25    34    35    1
    26    35    36    1
    27    28    29   ar
    28    29    30   ar
    29     7     8   ar
    30     8     9   ar
    31     9    10   ar
    32    10    11   ar
    33    11    12   ar
    34    12    15    1
    35    15    16   ar
    36    16    17   ar
    37    17    18   ar
    38    18    21    1
    39    21    22    2
    40    21    23    1
    41    18    19   ar
    42    19    20   ar
    43    12    13   ar
    44    13    14   ar
    45    14     6   ar
    46    30    25   ar
    47    14     9   ar
    48    36    31    1
    49    20    15   ar
    50    44    39   ar
    51     3     4    1
    52    47    48    1
    53    23    24    1
@<TRIPOS>MOLECULE
*****
 48 53 0 0 0
SMALL
GASTEIGER

@<TRIPOS>ATOM
      1 C           8.9270   78.5271   22.4739 C.2     1  UNL1        0.2839
      2 O           9.6194   78.9663   21.5172 O.2     1  UNL1       -0.2665
      3 N           9.2527   78.8770   23.8307 N.am    1  UNL1       -0.2766
      4 H           8.6648   78.4945   24.6029 H       1  UNL1        0.1553
      5 C           6.3880   79.1334   20.5581 C.3     1  UNL1        0.0345
      6 C           6.6889   77.8997   21.3540 C.ar    1  UNL1        0.0202
      7 C           7.7977   77.6324   22.1669 C.ar    1  UNL1        0.1946
      8 O           7.7222   76.4021   22.6433 O.2     1  UNL1       -0.4492
      9 C           6.6102   75.8667   22.2020 C.ar    1  UNL1        0.1452
     10 C           6.1265   74.5887   22.4591 C.ar    1  UNL1        0.0375
     11 C           4.9024   74.2167   21.8759 C.ar    1  UNL1        0.0031
     12 C           4.1844   75.1224   21.0484 C.ar    1  UNL1        0.0002
     13 C           4.7134   76.4139   20.8117 C.ar    1  UNL1        0.0028
     14 C           5.9290   76.7488   21.4083 C.ar    1  UNL1        0.0337
     15 C           2.8926   74.7183   20.4375 C.ar    1  UNL1        0.0000
     16 C           2.2597   75.5429   19.4917 C.ar    1  UNL1        0.0002
     17 C           1.0433   75.1633   18.9166 C.ar    1  UNL1        0.0064
     18 C           0.4298   73.9513   19.2780 C.ar    1  UNL1        0.0755
     19 C           1.0698   73.1210   20.2145 C.ar    1  UNL1        0.0064
     20 C           2.2846   73.5018   20.7909 C.ar    1  UNL1        0.0002
     21 C          -0.8579   73.5312   18.6733 C.2     1  UNL1        0.3380
     22 O          -1.8128   74.3502   18.6046 O.2     1  UNL1       -0.2451
     23 O          -1.0444   72.2487   18.1580 O.3     1  UNL1       -0.4771
     24 H          -0.2932   71.5751   18.0853 H       1  UNL1        0.2954
     25 C          10.3021   79.7875   24.1982 C.ar    1  UNL1        0.0702
     26 C          11.6312   79.3636   24.3504 C.ar    1  UNL1        0.0191
     27 C          12.6166   80.2734   24.7368 C.ar    1  UNL1        0.0356
     28 C          12.2686   81.6123   24.9766 C.ar    1  UNL1        0.1318
     29 N          10.9648   81.9897   24.8632 N.ar    1  UNL1       -0.2279
     30 C           9.9887   81.1207   24.4896 C.ar    1  UNL1        0.1149
     31 N          13.2543   82.5745   25.3972 N.pl3   1  UNL1       -0.2932
     32 C          13.5127   83.7483   24.5499 C.3     1  UNL1        0.0923
     33 C          14.3884   84.7849   25.2704 C.3     1  UNL1        0.0252
     34 C          13.9489   84.9194   26.7399 C.3     1  UNL1        0.0472
     35 C          14.0883   83.5737   27.5036 C.3     1  UNL1        0.0252
     36 C          14.0964   82.3441   26.5796 C.3     1  UNL1        0.0923
     37 C          14.7344   86.0455   27.4386 C.3     1  UNL1        0.2054
     38 O          14.8850   87.1768   26.5790 O.3     1  UNL1       -0.4755
     39 C          13.8359   87.9367   26.0360 C.ar    1  UNL1        0.1388
     40 C          13.0210   88.7777   26.8165 C.ar    1  UNL1        0.0369
     41 C          11.9912   89.5072   26.2201 C.ar    1  UNL1        0.0033
     42 C          11.7620   89.4104   24.8459 C.ar    1  UNL1        0.0066
     43 C          12.5679   88.5798   24.0477 C.ar    1  UNL1        0.0785
     44 C          13.5960   87.8389   24.6597 C.ar    1  UNL1        0.0433
     45 C          12.3358   88.4586   22.5876 C.2     1  UNL1        0.3381
     46 O          12.3686   89.4880   21.8620 O.2     1  UNL1       -0.2451
     47 O          12.0641   87.2301   21.9861 O.3     1  UNL1       -0.4771
     48 H          11.9210   86.3818   22.5182 H       1  UNL1        0.2954
@<TRIPOS>BOND
     1     5     6    1
     2     6     7   ar
     3     7     1    1
     4     1     2    2
     5     1     3   am
     6     3    25    1
     7    25    26   ar
     8    26    27   ar
     9    27    28   ar
    10    28    31    1
    11    31    32    1
    12    32    33    1
    13    33    34    1
    14    34    37    1
    15    37    38    1
    16    38    39    1
    17    39    40   ar
    18    40    41   ar
    19    41    42   ar
    20    42    43   ar
    21    43    45    1
    22    45    46    2
    23    45    47    1
    24    43    44   ar
    25    34    35    1
    26    35    36    1
    27    28    29   ar
    28    29    30   ar
    29     7     8   ar
    30     8     9   ar
    31     9    10   ar
    32    10    11   ar
    33    11    12   ar
    34    12    15    1
    35    15    16   ar
    36    16    17   ar
    37    17    18   ar
    38    18    21    1
    39    21    22    2
    40    21    23    1
    41    18    19   ar
    42    19    20   ar
    43    12    13   ar
    44    13    14   ar
    45    14     6   ar
    46    30    25   ar
    47    14     9   ar
    48    36    31    1
    49    20    15   ar
    50    44    39   ar
    51     3     4    1
    52    47    48    1
    53    23    24    1
