@<TRIPOS>MOLECULE
*****
 50 55 0 0 0
SMALL
GASTEIGER

@<TRIPOS>ATOM
      1 C          60.1222   86.3837    8.9455 C.2     1  UNL1        0.2483
      2 O          59.3451   86.9086    8.1016 O.2     1  UNL1       -0.2701
      3 N          60.1243   84.9581    9.1326 N.am    1  UNL1       -0.2945
      4 H          60.6529   84.5614    9.9424 H       1  UNL1        0.1501
      5 C          62.6505   88.8781   11.3673 C.ar    1  UNL1        0.0502
      6 C          62.4533   87.5267   11.6904 C.ar    1  UNL1        0.0148
      7 C          61.6234   86.7253   10.9025 C.ar    1  UNL1        0.0080
      8 C          60.9846   87.2566    9.7699 C.ar    1  UNL1        0.0808
      9 C          61.1734   88.6150    9.4514 C.ar    1  UNL1        0.1457
     10 F          60.5258   89.1835    8.4029 F       1  UNL1       -0.2040
     11 C          62.0028   89.4145   10.2443 C.ar    1  UNL1        0.0443
     12 N          64.6982   91.5436   13.8656 N.pl3   1  UNL1       -0.3042
     13 C          63.9650   90.4325   14.4760 C.3     1  UNL1        0.1122
     14 C          63.9262   89.2514   13.5062 C.3     1  UNL1        0.1122
     15 N          63.5070   89.7084   12.1737 N.pl3   1  UNL1       -0.3040
     16 C          64.2280   90.8377   11.5697 C.3     1  UNL1        0.1122
     17 C          64.2725   92.0150   12.5455 C.3     1  UNL1        0.1122
     18 C          67.1217   92.0941   13.7858 C.ar    1  UNL1        0.0320
     19 C          65.8878   92.0645   14.4808 C.ar    1  UNL1        0.0471
     20 C          65.8175   92.5340   15.7978 C.ar    1  UNL1        0.0152
     21 C          66.9585   93.0035   16.4434 C.ar    1  UNL1        0.0135
     22 C          68.1902   93.0022   15.7875 C.ar    1  UNL1        0.0680
     23 CL         69.6055   93.5814   16.6583 Cl      1  UNL1       -0.0814
     24 C          68.2831   92.5424   14.4612 C.ar    1  UNL1        0.0677
     25 CL         69.8603   92.5195   13.6643 Cl      1  UNL1       -0.0816
     26 C          67.2059   91.6184   12.3536 C.3     1  UNL1        0.1708
     27 C          67.9712   92.2432   10.2730 C.3     1  UNL1        0.1746
     28 O          67.5286   92.7150   11.5253 O.3     1  UNL1       -0.3463
     29 C          59.1998   84.0675    8.4243 C.3     1  UNL1        0.1535
     30 C          59.6751   82.6452    8.5604 C.2     1  UNL1        0.2443
     31 O          59.4968   81.8347    7.6099 O.2     1  UNL1       -0.2730
     32 N          60.2471   82.1957    9.7992 N.am    1  UNL1       -0.2825
     33 H          60.0802   82.7753   10.6529 H       1  UNL1        0.1549
     34 C          60.9389   80.9453    9.9590 C.ar    1  UNL1        0.0535
     35 C          62.2475   80.7617    9.4801 C.ar    1  UNL1        0.0353
     36 C          62.8889   79.5367    9.6808 C.ar    1  UNL1        0.1002
     37 N          62.2557   78.5355   10.3474 N.ar    1  UNL1       -0.2422
     38 C          60.9977   78.6913   10.8375 C.ar    1  UNL1        0.1002
     39 C          60.3209   79.9003   10.6596 C.ar    1  UNL1        0.0353
     40 C          57.7733   84.2220    8.9829 C.3     1  UNL1        0.0569
     41 C          57.7436   84.0086   10.4687 C.ar    1  UNL1       -0.0017
     42 C          57.7787   82.7837   11.1296 C.ar    1  UNL1        0.0681
     43 N          57.8609   82.9706   12.4665 N.ar    1  UNL1       -0.3523
     44 C          57.8903   84.3015   12.6543 C.ar    1  UNL1        0.0563
     45 C          58.0057   84.9814   13.8659 C.ar    1  UNL1        0.0170
     46 C          58.0529   86.3871   13.8292 C.ar    1  UNL1        0.0015
     47 C          57.9905   87.0736   12.5959 C.ar    1  UNL1        0.0001
     48 C          57.8783   86.3609   11.3883 C.ar    1  UNL1        0.0012
     49 C          57.8252   84.9686   11.4578 C.ar    1  UNL1        0.0131
     50 H          57.9169   82.2285   13.1989 H       1  UNL1        0.1660
@<TRIPOS>BOND
     1    27    28    1
     2    28    26    1
     3    26    18    1
     4    18    19   ar
     5    19    12    1
     6    12    13    1
     7    13    14    1
     8    14    15    1
     9    15     5    1
    10     5     6   ar
    11     6     7   ar
    12     7     8   ar
    13     8     1    1
    14     1     2    2
    15     1     3   am
    16     3    29    1
    17    29    40    1
    18    40    41    1
    19    41    42   ar
    20    42    43   ar
    21    43    44   ar
    22    44    45   ar
    23    45    46   ar
    24    46    47   ar
    25    47    48   ar
    26    48    49   ar
    27    29    30    1
    28    30    31    2
    29    30    32   am
    30    32    34    1
    31    34    35   ar
    32    35    36   ar
    33    36    37   ar
    34    37    38   ar
    35    38    39   ar
    36     8     9   ar
    37     9    10    1
    38     9    11   ar
    39    15    16    1
    40    16    17    1
    41    19    20   ar
    42    20    21   ar
    43    21    22   ar
    44    22    23    1
    45    22    24   ar
    46    24    25    1
    47    24    18   ar
    48    17    12    1
    49    11     5   ar
    50    49    41   ar
    51    39    34   ar
    52    49    44   ar
    53     3     4    1
    54    43    50    1
    55    32    33    1
@<TRIPOS>MOLECULE
*****
 50 55 0 0 0
SMALL
GASTEIGER

@<TRIPOS>ATOM
      1 C          59.7148   87.1829   10.1429 C.2     1  UNL1        0.2483
      2 O          59.3797   87.6922   11.2474 O.2     1  UNL1       -0.2701
      3 N          60.1065   85.8010   10.0771 N.am    1  UNL1       -0.2945
      4 H          60.5320   85.4441    9.1916 H       1  UNL1        0.1501
      5 C          59.8548   89.6982    6.6596 C.ar    1  UNL1        0.0502
      6 C          60.4770   90.0911    7.8547 C.ar    1  UNL1        0.0148
      7 C          60.4195   89.2713    8.9843 C.ar    1  UNL1        0.0080
      8 C          59.7494   88.0377    8.9373 C.ar    1  UNL1        0.0808
      9 C          59.1157   87.6478    7.7420 C.ar    1  UNL1        0.1457
     10 F          58.4048   86.4938    7.6721 F       1  UNL1       -0.2040
     11 C          59.1733   88.4727    6.6141 C.ar    1  UNL1        0.0443
     12 N          60.2367   92.5089    3.5786 N.pl3   1  UNL1       -0.3042
     13 C          61.4355   91.8043    4.0379 C.3     1  UNL1        0.1122
     14 C          61.0466   90.4221    4.5627 C.3     1  UNL1        0.1122
     15 N          59.9130   90.5374    5.4910 N.pl3   1  UNL1       -0.3040
     16 C          58.7179   91.2634    5.0389 C.3     1  UNL1        0.1122
     17 C          59.1111   92.6426    4.5066 C.3     1  UNL1        0.1122
     18 C          61.2098   93.5029    1.5176 C.ar    1  UNL1        0.0320
     19 C          60.1136   92.9347    2.2116 C.ar    1  UNL1        0.0471
     20 C          58.8776   92.7951    1.5690 C.ar    1  UNL1        0.0152
     21 C          58.7069   93.2382    0.2600 C.ar    1  UNL1        0.0135
     22 C          59.7649   93.8372   -0.4250 C.ar    1  UNL1        0.0680
     23 CL         59.4878   94.4036   -2.0679 Cl      1  UNL1       -0.0814
     24 C          61.0180   93.9807    0.1982 C.ar    1  UNL1        0.0677
     25 CL         62.3321   94.7728   -0.6786 Cl      1  UNL1       -0.0816
     26 C          62.5578   93.6320    2.1890 C.3     1  UNL1        0.1708
     27 C          64.7139   93.3551    1.4276 C.3     1  UNL1        0.1746
     28 O          63.4595   92.7310    1.5824 O.3     1  UNL1       -0.3463
     29 C          60.2039   84.9504   11.2673 C.3     1  UNL1        0.1535
     30 C          60.9305   85.6962   12.3550 C.2     1  UNL1        0.2443
     31 O          60.4608   85.7042   13.5262 O.2     1  UNL1       -0.2730
     32 N          62.1017   86.4653   12.0380 N.am    1  UNL1       -0.2825
     33 H          62.2701   86.7079   11.0353 H       1  UNL1        0.1549
     34 C          62.9944   87.0144   13.0226 C.ar    1  UNL1        0.0535
     35 C          63.1929   88.4004   13.1446 C.ar    1  UNL1        0.0353
     36 C          64.0511   88.8890   14.1330 C.ar    1  UNL1        0.1002
     37 N          64.6778   88.0293   14.9791 N.ar    1  UNL1       -0.2422
     38 C          64.4902   86.6857   14.8961 C.ar    1  UNL1        0.1002
     39 C          63.6397   86.1556   13.9230 C.ar    1  UNL1        0.0353
     40 C          58.8009   84.5268   11.7393 C.3     1  UNL1        0.0569
     41 C          58.3593   83.2590   11.0671 C.ar    1  UNL1       -0.0017
     42 C          57.8839   83.1354    9.7645 C.ar    1  UNL1        0.0681
     43 N          57.6962   81.8331    9.4518 N.ar    1  UNL1       -0.3523
     44 C          58.0603   81.1335   10.5406 C.ar    1  UNL1        0.0563
     45 C          58.0745   79.7473   10.6883 C.ar    1  UNL1        0.0170
     46 C          58.5299   79.2212   11.9112 C.ar    1  UNL1        0.0015
     47 C          58.9616   80.0822   12.9447 C.ar    1  UNL1        0.0001
     48 C          58.9401   81.4774   12.7658 C.ar    1  UNL1        0.0012
     49 C          58.4753   81.9691   11.5459 C.ar    1  UNL1        0.0131
     50 H          57.3616   81.4516    8.5392 H       1  UNL1        0.1660
@<TRIPOS>BOND
     1    27    28    1
     2    28    26    1
     3    26    18    1
     4    18    19   ar
     5    19    12    1
     6    12    13    1
     7    13    14    1
     8    14    15    1
     9    15     5    1
    10     5     6   ar
    11     6     7   ar
    12     7     8   ar
    13     8     1    1
    14     1     2    2
    15     1     3   am
    16     3    29    1
    17    29    40    1
    18    40    41    1
    19    41    42   ar
    20    42    43   ar
    21    43    44   ar
    22    44    45   ar
    23    45    46   ar
    24    46    47   ar
    25    47    48   ar
    26    48    49   ar
    27    29    30    1
    28    30    31    2
    29    30    32   am
    30    32    34    1
    31    34    35   ar
    32    35    36   ar
    33    36    37   ar
    34    37    38   ar
    35    38    39   ar
    36     8     9   ar
    37     9    10    1
    38     9    11   ar
    39    15    16    1
    40    16    17    1
    41    19    20   ar
    42    20    21   ar
    43    21    22   ar
    44    22    23    1
    45    22    24   ar
    46    24    25    1
    47    24    18   ar
    48    17    12    1
    49    11     5   ar
    50    49    41   ar
    51    39    34   ar
    52    49    44   ar
    53     3     4    1
    54    43    50    1
    55    32    33    1
@<TRIPOS>MOLECULE
*****
 50 55 0 0 0
SMALL
GASTEIGER

@<TRIPOS>ATOM
      1 C          59.6658   87.3487   10.5473 C.2     1  UNL1        0.2483
      2 O          59.2303   87.9002   11.5950 O.2     1  UNL1       -0.2701
      3 N          60.1509   85.9960   10.5945 N.am    1  UNL1       -0.2945
      4 H          60.6529   85.6160    9.7601 H       1  UNL1        0.1501
      5 C          59.8576   89.6479    6.9200 C.ar    1  UNL1        0.0502
      6 C          60.4334   90.1285    8.1063 C.ar    1  UNL1        0.0148
      7 C          60.3593   89.3785    9.2825 C.ar    1  UNL1        0.0080
      8 C          59.7187   88.1284    9.2924 C.ar    1  UNL1        0.0808
      9 C          59.1313   87.6506    8.1054 C.ar    1  UNL1        0.1457
     10 F          58.4489   86.4775    8.0864 F       1  UNL1       -0.2040
     11 C          59.2054   88.4057    6.9307 C.ar    1  UNL1        0.0443
     12 N          60.2752   92.2712    3.6824 N.pl3   1  UNL1       -0.3042
     13 C          61.4729   91.6186    4.2154 C.3     1  UNL1        0.1122
     14 C          61.0935   90.2642    4.8143 C.3     1  UNL1        0.1122
     15 N          59.9333   90.4149    5.7038 N.pl3   1  UNL1       -0.3040
     16 C          58.7387   91.0894    5.1767 C.3     1  UNL1        0.1122
     17 C          59.1226   92.4405    4.5706 C.3     1  UNL1        0.1122
     18 C          61.3425   92.8340    1.5083 C.ar    1  UNL1        0.0320
     19 C          60.1820   92.6101    2.2890 C.ar    1  UNL1        0.0471
     20 C          58.9149   92.7342    1.7068 C.ar    1  UNL1        0.0152
     21 C          58.7832   93.1060    0.3714 C.ar    1  UNL1        0.0135
     22 C          59.9147   93.3698   -0.4016 C.ar    1  UNL1        0.0680
     23 CL         59.6912   93.8619   -2.0763 Cl      1  UNL1       -0.0814
     24 C          61.1983   93.2437    0.1602 C.ar    1  UNL1        0.0677
     25 CL         62.6140   93.6160   -0.8300 Cl      1  UNL1       -0.0816
     26 C          62.7173   92.6741    2.1158 C.3     1  UNL1        0.1708
     27 C          64.6834   93.8628    1.9537 C.3     1  UNL1        0.1746
     28 O          63.3085   93.9487    2.2522 O.3     1  UNL1       -0.3463
     29 C          60.2301   85.2287   11.8413 C.3     1  UNL1        0.1535
     30 C          60.0482   83.7650   11.5383 C.2     1  UNL1        0.2443
     31 O          60.9300   83.1509   10.8770 O.2     1  UNL1       -0.2730
     32 N          58.8359   83.0979   11.9248 N.am    1  UNL1       -0.2825
     33 H          58.0078   83.6895   12.1637 H       1  UNL1        0.1549
     34 C          58.6585   81.6712   11.8967 C.ar    1  UNL1        0.0535
     35 C          58.1626   81.0135   10.7580 C.ar    1  UNL1        0.0353
     36 C          58.0310   79.6225   10.7686 C.ar    1  UNL1        0.1002
     37 N          58.3939   78.9107   11.8682 N.ar    1  UNL1       -0.2422
     38 C          58.8936   79.5184   12.9764 C.ar    1  UNL1        0.1002
     39 C          59.0425   80.9070   13.0073 C.ar    1  UNL1        0.0353
     40 C          61.5799   85.4779   12.5390 C.3     1  UNL1        0.0569
     41 C          61.4098   86.3208   13.7697 C.ar    1  UNL1       -0.0017
     42 C          60.4180   86.1822   14.7369 C.ar    1  UNL1        0.0681
     43 N          60.6411   87.0299   15.7669 N.ar    1  UNL1       -0.3523
     44 C          61.7707   87.6931   15.4641 C.ar    1  UNL1        0.0563
     45 C          62.4213   88.6517   16.2396 C.ar    1  UNL1        0.0170
     46 C          63.6194   89.1967   15.7426 C.ar    1  UNL1        0.0015
     47 C          64.1376   88.7719   14.4988 C.ar    1  UNL1        0.0001
     48 C          63.4614   87.7996   13.7396 C.ar    1  UNL1        0.0012
     49 C          62.2718   87.2843   14.2546 C.ar    1  UNL1        0.0131
     50 H          60.0648   87.1271   16.6322 H       1  UNL1        0.1660
@<TRIPOS>BOND
     1    27    28    1
     2    28    26    1
     3    26    18    1
     4    18    19   ar
     5    19    12    1
     6    12    13    1
     7    13    14    1
     8    14    15    1
     9    15     5    1
    10     5     6   ar
    11     6     7   ar
    12     7     8   ar
    13     8     1    1
    14     1     2    2
    15     1     3   am
    16     3    29    1
    17    29    40    1
    18    40    41    1
    19    41    42   ar
    20    42    43   ar
    21    43    44   ar
    22    44    45   ar
    23    45    46   ar
    24    46    47   ar
    25    47    48   ar
    26    48    49   ar
    27    29    30    1
    28    30    31    2
    29    30    32   am
    30    32    34    1
    31    34    35   ar
    32    35    36   ar
    33    36    37   ar
    34    37    38   ar
    35    38    39   ar
    36     8     9   ar
    37     9    10    1
    38     9    11   ar
    39    15    16    1
    40    16    17    1
    41    19    20   ar
    42    20    21   ar
    43    21    22   ar
    44    22    23    1
    45    22    24   ar
    46    24    25    1
    47    24    18   ar
    48    17    12    1
    49    11     5   ar
    50    49    41   ar
    51    39    34   ar
    52    49    44   ar
    53     3     4    1
    54    43    50    1
    55    32    33    1
@<TRIPOS>MOLECULE
*****
 50 55 0 0 0
SMALL
GASTEIGER

@<TRIPOS>ATOM
      1 C          59.0213   84.2067   12.9746 C.2     1  UNL1        0.2483
      2 O          57.7850   84.4425   12.8884 O.2     1  UNL1       -0.2701
      3 N          59.5082   82.8605   12.8399 N.am    1  UNL1       -0.2945
      4 H          60.5081   82.6652   13.0738 H       1  UNL1        0.1501
      5 C          61.6824   87.4626   13.8676 C.ar    1  UNL1        0.0502
      6 C          60.3801   87.4354   14.3902 C.ar    1  UNL1        0.0148
      7 C          59.5192   86.3775   14.0883 C.ar    1  UNL1        0.0080
      8 C          59.9476   85.3208   13.2679 C.ar    1  UNL1        0.0808
      9 C          61.2502   85.3529   12.7344 C.ar    1  UNL1        0.1457
     10 F          61.6826   84.3845   11.8875 F       1  UNL1       -0.2040
     11 C          62.1080   86.4151   13.0370 C.ar    1  UNL1        0.0443
     12 N          63.8425   90.9111   14.8579 N.pl3   1  UNL1       -0.3042
     13 C          63.2269   90.1350   15.9366 C.3     1  UNL1        0.1122
     14 C          63.1467   88.6644   15.5268 C.3     1  UNL1        0.1122
     15 N          62.5754   88.5487   14.1776 N.pl3   1  UNL1       -0.3040
     16 C          63.1786   89.3440   13.0989 C.3     1  UNL1        0.1122
     17 C          63.2652   90.8136   13.5151 C.3     1  UNL1        0.1122
     18 C          65.9654   91.8984   14.0205 C.ar    1  UNL1        0.0320
     19 C          65.0619   91.6381   15.0799 C.ar    1  UNL1        0.0471
     20 C          65.3599   92.0787   16.3750 C.ar    1  UNL1        0.0152
     21 C          66.5534   92.7461   16.6382 C.ar    1  UNL1        0.0135
     22 C          67.4732   92.9754   15.6142 C.ar    1  UNL1        0.0680
     23 CL         68.9778   93.7997   16.0063 Cl      1  UNL1       -0.0814
     24 C          67.1914   92.5486   14.3036 C.ar    1  UNL1        0.0677
     25 CL         68.3873   92.8211   13.0313 Cl      1  UNL1       -0.0816
     26 C          65.6426   91.4551   12.6120 C.3     1  UNL1        0.1708
     27 C          65.7882   92.6348   10.6392 C.3     1  UNL1        0.1746
     28 O          65.1403   92.5584   11.8887 O.3     1  UNL1       -0.3463
     29 C          58.6143   81.7108   12.6705 C.3     1  UNL1        0.1535
     30 C          58.4766   81.3982   11.2040 C.2     1  UNL1        0.2443
     31 O          57.6939   80.4806   10.8330 O.2     1  UNL1       -0.2730
     32 N          59.2987   82.0821   10.2447 N.am    1  UNL1       -0.2825
     33 H          60.1486   82.5790   10.5960 H       1  UNL1        0.1549
     34 C          59.0869   82.0330    8.8233 C.ar    1  UNL1        0.0535
     35 C          57.9314   81.4540    8.2710 C.ar    1  UNL1        0.0353
     36 C          57.7573   81.4519    6.8847 C.ar    1  UNL1        0.1002
     37 N          58.6930   82.0189    6.0781 N.ar    1  UNL1       -0.2422
     38 C          59.8108   82.6021    6.5856 C.ar    1  UNL1        0.1002
     39 C          60.0233   82.6270    7.9660 C.ar    1  UNL1        0.0353
     40 C          59.1569   80.4923   13.4397 C.3     1  UNL1        0.0569
     41 C          60.6374   80.3388   13.2432 C.ar    1  UNL1       -0.0017
     42 C          61.2688   79.4678   12.3596 C.ar    1  UNL1        0.0681
     43 N          62.6040   79.6830   12.3575 N.ar    1  UNL1       -0.3523
     44 C          62.8193   80.6895   13.2223 C.ar    1  UNL1        0.0563
     45 C          64.0385   81.2894   13.5339 C.ar    1  UNL1        0.0170
     46 C          64.0303   82.3596   14.4472 C.ar    1  UNL1        0.0015
     47 C          62.8168   82.8050   15.0174 C.ar    1  UNL1        0.0001
     48 C          61.6007   82.1830   14.6812 C.ar    1  UNL1        0.0012
     49 C          61.6421   81.1193   13.7796 C.ar    1  UNL1        0.0131
     50 H          63.3164   79.1840   11.7797 H       1  UNL1        0.1660
@<TRIPOS>BOND
     1    27    28    1
     2    28    26    1
     3    26    18    1
     4    18    19   ar
     5    19    12    1
     6    12    13    1
     7    13    14    1
     8    14    15    1
     9    15     5    1
    10     5     6   ar
    11     6     7   ar
    12     7     8   ar
    13     8     1    1
    14     1     2    2
    15     1     3   am
    16     3    29    1
    17    29    40    1
    18    40    41    1
    19    41    42   ar
    20    42    43   ar
    21    43    44   ar
    22    44    45   ar
    23    45    46   ar
    24    46    47   ar
    25    47    48   ar
    26    48    49   ar
    27    29    30    1
    28    30    31    2
    29    30    32   am
    30    32    34    1
    31    34    35   ar
    32    35    36   ar
    33    36    37   ar
    34    37    38   ar
    35    38    39   ar
    36     8     9   ar
    37     9    10    1
    38     9    11   ar
    39    15    16    1
    40    16    17    1
    41    19    20   ar
    42    20    21   ar
    43    21    22   ar
    44    22    23    1
    45    22    24   ar
    46    24    25    1
    47    24    18   ar
    48    17    12    1
    49    11     5   ar
    50    49    41   ar
    51    39    34   ar
    52    49    44   ar
    53     3     4    1
    54    43    50    1
    55    32    33    1
@<TRIPOS>MOLECULE
*****
 50 55 0 0 0
SMALL
GASTEIGER

@<TRIPOS>ATOM
      1 C          59.7519   87.1269   10.3721 C.2     1  UNL1        0.2483
      2 O          58.9930   87.4519   11.3260 O.2     1  UNL1       -0.2701
      3 N          60.6172   85.9854   10.4977 N.am    1  UNL1       -0.2945
      4 H          61.3482   85.8299    9.7670 H       1  UNL1        0.1501
      5 C          59.8597   89.5923    6.8521 C.ar    1  UNL1        0.0502
      6 C          60.4721   90.0131    8.0428 C.ar    1  UNL1        0.0148
      7 C          60.4252   89.2093    9.1844 C.ar    1  UNL1        0.0080
      8 C          59.7757   87.9642    9.1540 C.ar    1  UNL1        0.0808
      9 C          59.1518   87.5462    7.9630 C.ar    1  UNL1        0.1457
     10 F          58.4603   86.3796    7.9085 F       1  UNL1       -0.2040
     11 C          59.1988   88.3551    6.8232 C.ar    1  UNL1        0.0443
     12 N          60.1937   92.3665    3.7327 N.pl3   1  UNL1       -0.3042
     13 C          61.4082   91.7088    4.2195 C.3     1  UNL1        0.1122
     14 C          61.0571   90.3228    4.7607 C.3     1  UNL1        0.1122
     15 N          59.9073   90.4150    5.6714 N.pl3   1  UNL1       -0.3040
     16 C          58.6957   91.0944    5.1915 C.3     1  UNL1        0.1122
     17 C          59.0513   92.4775    4.6429 C.3     1  UNL1        0.1122
     18 C          61.1771   93.3166    1.6560 C.ar    1  UNL1        0.0320
     19 C          60.0763   92.7671    2.3577 C.ar    1  UNL1        0.0471
     20 C          58.8413   92.6216    1.7145 C.ar    1  UNL1        0.0152
     21 C          58.6761   93.0408    0.3969 C.ar    1  UNL1        0.0135
     22 C          59.7390   93.6214   -0.2964 C.ar    1  UNL1        0.0680
     23 CL         59.4689   94.1581   -1.9505 Cl      1  UNL1       -0.0814
     24 C          60.9911   93.7703    0.3273 C.ar    1  UNL1        0.0677
     25 CL         62.3116   94.5392   -0.5608 Cl      1  UNL1       -0.0816
     26 C          62.5241   93.4515    2.3284 C.3     1  UNL1        0.1708
     27 C          64.6376   93.1354    1.4691 C.3     1  UNL1        0.1746
     28 O          63.4118   92.5073    1.7688 O.3     1  UNL1       -0.3463
     29 C          60.7145   85.2005   11.7322 C.3     1  UNL1        0.1535
     30 C          61.4627   85.9944   12.7701 C.2     1  UNL1        0.2443
     31 O          62.0685   87.0483   12.4317 O.2     1  UNL1       -0.2730
     32 N          61.5574   85.5041   14.1172 N.am    1  UNL1       -0.2825
     33 H          61.3404   84.4957   14.2863 H       1  UNL1        0.1549
     34 C          62.0376   86.2845   15.2254 C.ar    1  UNL1        0.0535
     35 C          62.4049   87.6324   15.0721 C.ar    1  UNL1        0.0353
     36 C          62.8421   88.3579   16.1833 C.ar    1  UNL1        0.1002
     37 N          62.8977   87.7667   17.4060 N.ar    1  UNL1       -0.2422
     38 C          62.5312   86.4705   17.5870 C.ar    1  UNL1        0.1002
     39 C          62.0872   85.7097   16.5029 C.ar    1  UNL1        0.0353
     40 C          59.3104   84.8244   12.2402 C.3     1  UNL1        0.0569
     41 C          58.9799   83.3952   11.9206 C.ar    1  UNL1       -0.0017
     42 C          58.8215   82.3581   12.8358 C.ar    1  UNL1        0.0681
     43 N          58.4067   81.2340   12.2086 N.ar    1  UNL1       -0.3523
     44 C          58.2904   81.5556   10.9084 C.ar    1  UNL1        0.0563
     45 C          57.8589   80.7319    9.8697 C.ar    1  UNL1        0.0170
     46 C          57.7783   81.2880    8.5798 C.ar    1  UNL1        0.0015
     47 C          58.1209   82.6410    8.3607 C.ar    1  UNL1        0.0001
     48 C          58.5494   83.4498    9.4290 C.ar    1  UNL1        0.0012
     49 C          58.6273   82.8677   10.6943 C.ar    1  UNL1        0.0131
     50 H          58.1953   80.3127   12.6522 H       1  UNL1        0.1660
@<TRIPOS>BOND
     1    27    28    1
     2    28    26    1
     3    26    18    1
     4    18    19   ar
     5    19    12    1
     6    12    13    1
     7    13    14    1
     8    14    15    1
     9    15     5    1
    10     5     6   ar
    11     6     7   ar
    12     7     8   ar
    13     8     1    1
    14     1     2    2
    15     1     3   am
    16     3    29    1
    17    29    40    1
    18    40    41    1
    19    41    42   ar
    20    42    43   ar
    21    43    44   ar
    22    44    45   ar
    23    45    46   ar
    24    46    47   ar
    25    47    48   ar
    26    48    49   ar
    27    29    30    1
    28    30    31    2
    29    30    32   am
    30    32    34    1
    31    34    35   ar
    32    35    36   ar
    33    36    37   ar
    34    37    38   ar
    35    38    39   ar
    36     8     9   ar
    37     9    10    1
    38     9    11   ar
    39    15    16    1
    40    16    17    1
    41    19    20   ar
    42    20    21   ar
    43    21    22   ar
    44    22    23    1
    45    22    24   ar
    46    24    25    1
    47    24    18   ar
    48    17    12    1
    49    11     5   ar
    50    49    41   ar
    51    39    34   ar
    52    49    44   ar
    53     3     4    1
    54    43    50    1
    55    32    33    1
@<TRIPOS>MOLECULE
*****
 50 55 0 0 0
SMALL
GASTEIGER

@<TRIPOS>ATOM
      1 C          60.4685   86.3045    9.6615 C.2     1  UNL1        0.2483
      2 O          60.0787   86.6716    8.5192 O.2     1  UNL1       -0.2701
      3 N          59.9869   85.0723   10.2246 N.am    1  UNL1       -0.2945
      4 H          60.1927   84.8679   11.2288 H       1  UNL1        0.1501
      5 C          63.1019   88.8975   11.8572 C.ar    1  UNL1        0.0502
      6 C          62.5770   89.2906   10.6164 C.ar    1  UNL1        0.0148
      7 C          61.7284   88.4384    9.9058 C.ar    1  UNL1        0.0080
      8 C          61.3789   87.1819   10.4275 C.ar    1  UNL1        0.0808
      9 C          61.9137   86.7823   11.6670 C.ar    1  UNL1        0.1457
     10 F          61.6519   85.5522   12.1773 F       1  UNL1       -0.2040
     11 C          62.7650   87.6374   12.3741 C.ar    1  UNL1        0.0443
     12 N          65.1991   91.6960   14.1614 N.pl3   1  UNL1       -0.3042
     13 C          64.4992   90.6069   14.8461 C.3     1  UNL1        0.1122
     14 C          64.4425   89.3819   13.9333 C.3     1  UNL1        0.1122
     15 N          63.9746   89.7727   12.5959 N.pl3   1  UNL1       -0.3040
     16 C          64.6623   90.8801   11.9172 C.3     1  UNL1        0.1122
     17 C          64.7250   92.1016   12.8360 C.3     1  UNL1        0.1122
     18 C          67.6223   92.2276   13.9936 C.ar    1  UNL1        0.0320
     19 C          66.4021   92.2567   14.7122 C.ar    1  UNL1        0.0471
     20 C          66.3588   92.8256   15.9907 C.ar    1  UNL1        0.0152
     21 C          67.5136   93.3376   16.5767 C.ar    1  UNL1        0.0135
     22 C          68.7323   93.2807   15.8994 C.ar    1  UNL1        0.0680
     23 CL         70.1661   93.9179   16.6963 Cl      1  UNL1       -0.0814
     24 C          68.7980   92.7207   14.6105 C.ar    1  UNL1        0.0677
     25 CL         70.3594   92.6299   13.7876 Cl      1  UNL1       -0.0816
     26 C          67.6772   91.6438   12.6004 C.3     1  UNL1        0.1708
     27 C          68.1030   92.1546   10.3953 C.3     1  UNL1        0.1746
     28 O          67.8366   92.6935   11.6702 O.3     1  UNL1       -0.3463
     29 C          58.9901   84.2333    9.5521 C.3     1  UNL1        0.1535
     30 C          59.1852   82.7987    9.9660 C.2     1  UNL1        0.2443
     31 O          60.2280   82.1836    9.6105 O.2     1  UNL1       -0.2730
     32 N          58.1479   82.1124   10.6850 N.am    1  UNL1       -0.2825
     33 H          57.1887   82.5275   10.6732 H       1  UNL1        0.1549
     34 C          58.3216   80.8366   11.3253 C.ar    1  UNL1        0.0535
     35 C          58.0625   79.6323   10.6488 C.ar    1  UNL1        0.0353
     36 C          58.2697   78.4158   11.3041 C.ar    1  UNL1        0.1002
     37 N          58.7324   78.3987   12.5821 N.ar    1  UNL1       -0.2422
     38 C          59.0090   79.5472   13.2541 C.ar    1  UNL1        0.1002
     39 C          58.8168   80.7849   12.6356 C.ar    1  UNL1        0.0353
     40 C          57.5675   84.7118    9.8956 C.3     1  UNL1        0.0569
     41 C          57.4646   85.1267   11.3348 C.ar    1  UNL1       -0.0017
     42 C          57.1079   84.3134   12.4070 C.ar    1  UNL1        0.0681
     43 N          57.2383   84.9854   13.5733 N.ar    1  UNL1       -0.3523
     44 C          57.6853   86.2108   13.2480 C.ar    1  UNL1        0.0563
     45 C          58.0034   87.2526   14.1180 C.ar    1  UNL1        0.0170
     46 C          58.4922   88.4486   13.5608 C.ar    1  UNL1        0.0015
     47 C          58.6558   88.5728   12.1630 C.ar    1  UNL1        0.0001
     48 C          58.3304   87.5030   11.3094 C.ar    1  UNL1        0.0012
     49 C          57.8401   86.3335   11.8908 C.ar    1  UNL1        0.0131
     50 H          57.0535   84.6149   14.5319 H       1  UNL1        0.1660
@<TRIPOS>BOND
     1    27    28    1
     2    28    26    1
     3    26    18    1
     4    18    19   ar
     5    19    12    1
     6    12    13    1
     7    13    14    1
     8    14    15    1
     9    15     5    1
    10     5     6   ar
    11     6     7   ar
    12     7     8   ar
    13     8     1    1
    14     1     2    2
    15     1     3   am
    16     3    29    1
    17    29    40    1
    18    40    41    1
    19    41    42   ar
    20    42    43   ar
    21    43    44   ar
    22    44    45   ar
    23    45    46   ar
    24    46    47   ar
    25    47    48   ar
    26    48    49   ar
    27    29    30    1
    28    30    31    2
    29    30    32   am
    30    32    34    1
    31    34    35   ar
    32    35    36   ar
    33    36    37   ar
    34    37    38   ar
    35    38    39   ar
    36     8     9   ar
    37     9    10    1
    38     9    11   ar
    39    15    16    1
    40    16    17    1
    41    19    20   ar
    42    20    21   ar
    43    21    22   ar
    44    22    23    1
    45    22    24   ar
    46    24    25    1
    47    24    18   ar
    48    17    12    1
    49    11     5   ar
    50    49    41   ar
    51    39    34   ar
    52    49    44   ar
    53     3     4    1
    54    43    50    1
    55    32    33    1
@<TRIPOS>MOLECULE
*****
 50 55 0 0 0
SMALL
GASTEIGER

@<TRIPOS>ATOM
      1 C          59.4852   87.2818   10.3226 C.2     1  UNL1        0.2483
      2 O          58.8779   86.1768   10.2810 O.2     1  UNL1       -0.2701
      3 N          60.0333   87.7553   11.5647 N.am    1  UNL1       -0.2945
      4 H          60.3871   88.7377   11.6123 H       1  UNL1        0.1501
      5 C          59.7853   89.6923    6.7759 C.ar    1  UNL1        0.0502
      6 C          60.3089   90.1435    7.9974 C.ar    1  UNL1        0.0148
      7 C          60.1997   89.3573    9.1469 C.ar    1  UNL1        0.0080
      8 C          59.5758   88.0999    9.0946 C.ar    1  UNL1        0.0808
      9 C          59.0407   87.6513    7.8721 C.ar    1  UNL1        0.1457
     10 F          58.3751   86.4712    7.7916 F       1  UNL1       -0.2040
     11 C          59.1497   88.4426    6.7241 C.ar    1  UNL1        0.0443
     12 N          60.3347   92.4008    3.6293 N.pl3   1  UNL1       -0.3042
     13 C          61.4950   91.6580    4.1261 C.3     1  UNL1        0.1122
     14 C          61.0388   90.3082    4.6804 C.3     1  UNL1        0.1122
     15 N          59.8974   90.4967    5.5870 N.pl3   1  UNL1       -0.3040
     16 C          58.7417   91.2609    5.0968 C.3     1  UNL1        0.1122
     17 C          59.2022   92.6074    4.5352 C.3     1  UNL1        0.1122
     18 C          61.3859   93.2766    1.5531 C.ar    1  UNL1        0.0320
     19 C          60.2507   92.7948    2.2499 C.ar    1  UNL1        0.0471
     20 C          59.0149   92.7117    1.5974 C.ar    1  UNL1        0.0152
     21 C          58.8838   93.1275    0.2749 C.ar    1  UNL1        0.0135
     22 C          59.9826   93.6425   -0.4142 C.ar    1  UNL1        0.0680
     23 CL         59.7561   94.1783   -2.0750 Cl      1  UNL1       -0.0814
     24 C          61.2360   93.7279    0.2190 C.ar    1  UNL1        0.0677
     25 CL         62.6039   94.4150   -0.6642 Cl      1  UNL1       -0.0816
     26 C          62.7327   93.3433    2.2359 C.3     1  UNL1        0.1708
     27 C          64.8486   93.1035    1.3581 C.3     1  UNL1        0.1746
     28 O          63.6186   92.4549    1.5889 O.3     1  UNL1       -0.3463
     29 C          59.8603   87.0347   12.8298 C.3     1  UNL1        0.1535
     30 C          61.0609   86.1591   13.0730 C.2     1  UNL1        0.2443
     31 O          62.0968   86.3117   12.3689 O.2     1  UNL1       -0.2730
     32 N          60.9915   85.0997   14.0409 N.am    1  UNL1       -0.2825
     33 H          60.0451   84.7898   14.3588 H       1  UNL1        0.1549
     34 C          62.1343   84.3669   14.5149 C.ar    1  UNL1        0.0535
     35 C          62.1587   82.9616   14.5163 C.ar    1  UNL1        0.0353
     36 C          63.3013   82.2930   14.9630 C.ar    1  UNL1        0.1002
     37 N          64.3861   82.9981   15.3795 N.ar    1  UNL1       -0.2422
     38 C          64.3973   84.3572   15.3717 C.ar    1  UNL1        0.1002
     39 C          63.2761   85.0648   14.9318 C.ar    1  UNL1        0.0353
     40 C          59.6653   88.0281   13.9899 C.3     1  UNL1        0.0569
     41 C          60.9837   88.5120   14.5206 C.ar    1  UNL1       -0.0017
     42 C          61.5902   88.1209   15.7112 C.ar    1  UNL1        0.0681
     43 N          62.8252   88.6626   15.8123 N.ar    1  UNL1       -0.3523
     44 C          63.0082   89.3818   14.6913 C.ar    1  UNL1        0.0563
     45 C          64.1462   90.0981   14.3234 C.ar    1  UNL1        0.0170
     46 C          64.1358   90.7553   13.0794 C.ar    1  UNL1        0.0015
     47 C          63.0035   90.6776   12.2380 C.ar    1  UNL1        0.0001
     48 C          61.8704   89.9437   12.6337 C.ar    1  UNL1        0.0012
     49 C          61.9075   89.3105   13.8761 C.ar    1  UNL1        0.0131
     50 H          63.5056   88.5256   16.5925 H       1  UNL1        0.1660
@<TRIPOS>BOND
     1    27    28    1
     2    28    26    1
     3    26    18    1
     4    18    19   ar
     5    19    12    1
     6    12    13    1
     7    13    14    1
     8    14    15    1
     9    15     5    1
    10     5     6   ar
    11     6     7   ar
    12     7     8   ar
    13     8     1    1
    14     1     2    2
    15     1     3   am
    16     3    29    1
    17    29    40    1
    18    40    41    1
    19    41    42   ar
    20    42    43   ar
    21    43    44   ar
    22    44    45   ar
    23    45    46   ar
    24    46    47   ar
    25    47    48   ar
    26    48    49   ar
    27    29    30    1
    28    30    31    2
    29    30    32   am
    30    32    34    1
    31    34    35   ar
    32    35    36   ar
    33    36    37   ar
    34    37    38   ar
    35    38    39   ar
    36     8     9   ar
    37     9    10    1
    38     9    11   ar
    39    15    16    1
    40    16    17    1
    41    19    20   ar
    42    20    21   ar
    43    21    22   ar
    44    22    23    1
    45    22    24   ar
    46    24    25    1
    47    24    18   ar
    48    17    12    1
    49    11     5   ar
    50    49    41   ar
    51    39    34   ar
    52    49    44   ar
    53     3     4    1
    54    43    50    1
    55    32    33    1
@<TRIPOS>MOLECULE
*****
 50 55 0 0 0
SMALL
GASTEIGER

@<TRIPOS>ATOM
      1 C          60.2951   85.3652    9.4410 C.2     1  UNL1        0.2483
      2 O          59.4181   85.8220    8.6576 O.2     1  UNL1       -0.2701
      3 N          60.4527   83.9443    9.5949 N.am    1  UNL1       -0.2945
      4 H          61.0678   83.5902   10.3622 H       1  UNL1        0.1501
      5 C          62.6585   88.1468   11.7118 C.ar    1  UNL1        0.0502
      6 C          62.0645   88.5311   10.4996 C.ar    1  UNL1        0.0148
      7 C          61.3048   87.6183    9.7640 C.ar    1  UNL1        0.0080
      8 C          61.1145   86.3076   10.2320 C.ar    1  UNL1        0.0808
      9 C          61.7191   85.9182   11.4425 C.ar    1  UNL1        0.1457
     10 F          61.6126   84.6445   11.8988 F       1  UNL1       -0.2040
     11 C          62.4811   86.8344   12.1746 C.ar    1  UNL1        0.0443
     12 N          64.4681   91.0622   14.1128 N.pl3   1  UNL1       -0.3042
     13 C          63.9232   89.8640   14.7548 C.3     1  UNL1        0.1122
     14 C          63.9884   88.6875   13.7808 C.3     1  UNL1        0.1122
     15 N          63.4401   89.0840   12.4760 N.pl3   1  UNL1       -0.3040
     16 C          63.9709   90.2986   11.8413 C.3     1  UNL1        0.1122
     17 C          63.9121   91.4720   12.8210 C.3     1  UNL1        0.1122
     18 C          66.7996   91.9036   13.9155 C.ar    1  UNL1        0.0320
     19 C          65.6099   91.7368   14.6660 C.ar    1  UNL1        0.0471
     20 C          65.5393   92.2200   15.9781 C.ar    1  UNL1        0.0152
     21 C          66.6406   92.8383   16.5646 C.ar    1  UNL1        0.0135
     22 C          67.8336   92.9749   15.8536 C.ar    1  UNL1        0.0680
     23 CL         69.2031   93.7400   16.6511 Cl      1  UNL1       -0.0814
     24 C          67.9250   92.5039   14.5311 C.ar    1  UNL1        0.0677
     25 CL         69.4571   92.6587   13.6639 Cl      1  UNL1       -0.0816
     26 C          66.8798   91.4137   12.4878 C.3     1  UNL1        0.1708
     27 C          66.9549   92.5068   10.4619 C.3     1  UNL1        0.1746
     28 O          67.5818   92.3648   11.7163 O.3     1  UNL1       -0.3463
     29 C          59.5806   82.9759    8.9232 C.3     1  UNL1        0.1535
     30 C          60.2596   81.6323    8.8905 C.2     1  UNL1        0.2443
     31 O          60.1858   80.9216    7.8505 O.2     1  UNL1       -0.2730
     32 N          60.9106   81.1290   10.0682 N.am    1  UNL1       -0.2825
     33 H          60.6748   81.5737   10.9843 H       1  UNL1        0.1549
     34 C          61.7792   79.9831   10.0798 C.ar    1  UNL1        0.0535
     35 C          61.5121   78.8652   10.8887 C.ar    1  UNL1        0.0353
     36 C          62.3713   77.7642   10.8477 C.ar    1  UNL1        0.1002
     37 N          63.4497   77.7701   10.0203 N.ar    1  UNL1       -0.2422
     38 C          63.7220   78.8295    9.2137 C.ar    1  UNL1        0.1002
     39 C          62.8879   79.9500    9.2229 C.ar    1  UNL1        0.0353
     40 C          58.2243   82.8844    9.6463 C.3     1  UNL1        0.0569
     41 C          58.0604   81.5589   10.3319 C.ar    1  UNL1       -0.0017
     42 C          57.5492   80.3932    9.7679 C.ar    1  UNL1        0.0681
     43 N          57.6617   79.3607   10.6341 N.ar    1  UNL1       -0.3523
     44 C          58.2501   79.8614   11.7344 C.ar    1  UNL1        0.0563
     45 C          58.6067   79.1694   12.8908 C.ar    1  UNL1        0.0170
     46 C          59.2501   79.8883   13.9151 C.ar    1  UNL1        0.0015
     47 C          59.5247   81.2654   13.7597 C.ar    1  UNL1        0.0001
     48 C          59.1568   81.9369   12.5796 C.ar    1  UNL1        0.0012
     49 C          58.5129   81.1993   11.5859 C.ar    1  UNL1        0.0131
     50 H          57.3731   78.3711   10.4675 H       1  UNL1        0.1660
@<TRIPOS>BOND
     1    27    28    1
     2    28    26    1
     3    26    18    1
     4    18    19   ar
     5    19    12    1
     6    12    13    1
     7    13    14    1
     8    14    15    1
     9    15     5    1
    10     5     6   ar
    11     6     7   ar
    12     7     8   ar
    13     8     1    1
    14     1     2    2
    15     1     3   am
    16     3    29    1
    17    29    40    1
    18    40    41    1
    19    41    42   ar
    20    42    43   ar
    21    43    44   ar
    22    44    45   ar
    23    45    46   ar
    24    46    47   ar
    25    47    48   ar
    26    48    49   ar
    27    29    30    1
    28    30    31    2
    29    30    32   am
    30    32    34    1
    31    34    35   ar
    32    35    36   ar
    33    36    37   ar
    34    37    38   ar
    35    38    39   ar
    36     8     9   ar
    37     9    10    1
    38     9    11   ar
    39    15    16    1
    40    16    17    1
    41    19    20   ar
    42    20    21   ar
    43    21    22   ar
    44    22    23    1
    45    22    24   ar
    46    24    25    1
    47    24    18   ar
    48    17    12    1
    49    11     5   ar
    50    49    41   ar
    51    39    34   ar
    52    49    44   ar
    53     3     4    1
    54    43    50    1
    55    32    33    1
