@<TRIPOS>MOLECULE
*****
 37 42 0 0 0
SMALL
GASTEIGER

@<TRIPOS>ATOM
      1 C         -24.0112   -7.8540  -14.5522 C.ar    1  UNL1        0.1092
      2 N         -24.7226   -7.1584  -15.4747 N.ar    1  UNL1       -0.1677
      3 N         -23.9484   -6.9673  -16.5366 N.ar    1  UNL1       -0.2319
      4 C         -24.3284   -6.1685  -17.6938 C.3     1  UNL1        0.1554
      5 C         -22.7403   -7.4917  -16.2793 C.ar    1  UNL1        0.1654
      6 N         -21.6291   -7.4041  -17.0493 N.ar    1  UNL1       -0.2050
      7 C         -20.4725   -7.9541  -16.5742 C.ar    1  UNL1        0.2014
      8 N         -20.4504   -8.5842  -15.3571 N.ar    1  UNL1       -0.2089
      9 C         -21.5661   -8.6670  -14.5715 C.ar    1  UNL1        0.1379
     10 C         -22.7363   -8.0779  -15.0525 C.ar    1  UNL1        0.0865
     11 C         -24.9448   -9.1802  -12.5653 C.ar    1  UNL1        0.0805
     12 C         -24.4618   -8.0296  -13.1643 C.ar    1  UNL1        0.0520
     13 C         -24.5293   -7.0568  -12.1766 C.ar    1  UNL1        0.0811
     14 N         -25.0260   -7.6049  -11.0473 N.ar    1  UNL1       -0.1736
     15 N         -25.2663   -8.8850  -11.2863 N.ar    1  UNL1       -0.2491
     16 C         -25.7876   -9.7984  -10.2752 C.3     1  UNL1        0.1537
     17 C         -25.2676  -14.4193  -15.0102 C.3     1  UNL1        0.0310
     18 C         -25.2210  -13.0660  -14.3654 C.ar    1  UNL1       -0.0218
     19 C         -24.7777  -12.9285  -13.0416 C.ar    1  UNL1       -0.0042
     20 C         -24.6983  -11.6633  -12.4528 C.ar    1  UNL1        0.0012
     21 C         -25.0463  -10.5180  -13.1848 C.ar    1  UNL1        0.0174
     22 C         -25.4756  -10.6548  -14.5130 C.ar    1  UNL1        0.0012
     23 C         -25.5560  -11.9199  -15.1020 C.ar    1  UNL1       -0.0042
     24 C         -24.2283   -5.5855  -12.3459 C.3     1  UNL1        0.0421
     25 C         -23.1621   -5.1110  -11.3515 C.3     1  UNL1        0.0064
     26 C         -25.5064   -4.7564  -12.1802 C.3     1  UNL1        0.0064
     27 N         -21.5407   -9.4402  -13.3659 N.pl3   1  UNL1       -0.2917
     28 C         -21.4883  -10.8932  -13.4015 C.3     1  UNL1        0.0937
     29 C         -21.2735  -11.3338  -11.9628 C.3     1  UNL1        0.0391
     30 C         -20.6471  -10.1167  -11.2703 C.3     1  UNL1        0.0790
     31 C         -21.0764   -8.8964  -12.0996 C.3     1  UNL1        0.1081
     32 N         -20.9744  -10.0470   -9.8221 N.3     1  UNL1       -0.2723
     33 C         -22.4151   -9.9200   -9.4733 C.3     1  UNL1        0.0721
     34 C         -22.6965   -8.8698   -8.3873 C.3     1  UNL1        0.0174
     35 C         -21.9947   -7.5483   -8.7078 C.3     1  UNL1        0.0029
     36 C         -20.4924   -7.7249   -8.9948 C.3     1  UNL1        0.0174
     37 C         -20.0496   -9.1957   -9.0406 C.3     1  UNL1        0.0721
@<TRIPOS>BOND
     1    17    18    1
     2    18    19   ar
     3    19    20   ar
     4    20    21   ar
     5    21    11    1
     6    11    12   ar
     7    12     1    1
     8     1     2   ar
     9     2     3   ar
    10     3     4    1
    11     3     5   ar
    12     5     6   ar
    13     6     7   ar
    14     7     8   ar
    15     8     9   ar
    16     9    27    1
    17    27    28    1
    18    28    29    1
    19    29    30    1
    20    30    32    1
    21    32    33    1
    22    33    34    1
    23    34    35    1
    24    35    36    1
    25    36    37    1
    26    30    31    1
    27     9    10   ar
    28    12    13   ar
    29    13    24    1
    30    24    25    1
    31    24    26    1
    32    13    14   ar
    33    14    15   ar
    34    15    16    1
    35    21    22   ar
    36    22    23   ar
    37    23    18   ar
    38    15    11   ar
    39    10     1   ar
    40    10     5   ar
    41    31    27    1
    42    37    32    1
@<TRIPOS>MOLECULE
*****
 37 42 0 0 0
SMALL
GASTEIGER

@<TRIPOS>ATOM
      1 C         -22.2119  -11.5564  -14.3478 C.ar    1  UNL1        0.1092
      2 N         -21.3738  -12.1185  -15.2550 N.ar    1  UNL1       -0.1677
      3 N         -21.9675  -13.1961  -15.7549 N.ar    1  UNL1       -0.2319
      4 C         -21.3347  -14.1229  -16.6835 C.3     1  UNL1        0.1554
      5 C         -23.1509  -13.3502  -15.1413 C.ar    1  UNL1        0.1654
      6 N         -24.0111  -14.3887  -15.2714 N.ar    1  UNL1       -0.2050
      7 C         -25.1407  -14.3881  -14.5033 C.ar    1  UNL1        0.2014
      8 N         -25.3926  -13.3559  -13.6373 N.ar    1  UNL1       -0.2089
      9 C         -24.5234  -12.3105  -13.4946 C.ar    1  UNL1        0.1379
     10 C         -23.3584  -12.3335  -14.2629 C.ar    1  UNL1        0.0865
     11 C         -21.8360   -9.1268  -13.6172 C.ar    1  UNL1        0.0805
     12 C         -21.7893  -10.4963  -13.4216 C.ar    1  UNL1        0.0520
     13 C         -21.2177  -10.6592  -12.1674 C.ar    1  UNL1        0.0811
     14 N         -20.9414   -9.4456  -11.6448 N.ar    1  UNL1       -0.1736
     15 N         -21.3235   -8.5279  -12.5194 N.ar    1  UNL1       -0.2491
     16 C         -21.1989   -7.0951  -12.2743 C.3     1  UNL1        0.1537
     17 C         -24.0655   -6.4394  -18.2364 C.3     1  UNL1        0.0310
     18 C         -23.4719   -7.1019  -17.0288 C.ar    1  UNL1       -0.0218
     19 C         -24.2093   -7.1943  -15.8390 C.ar    1  UNL1       -0.0042
     20 C         -23.6712   -7.8447  -14.7250 C.ar    1  UNL1        0.0012
     21 C         -22.3953   -8.4247  -14.7910 C.ar    1  UNL1        0.0174
     22 C         -21.6644   -8.3447  -15.9855 C.ar    1  UNL1        0.0012
     23 C         -22.2019   -7.6935  -17.0994 C.ar    1  UNL1       -0.0042
     24 C         -20.8330  -11.9702  -11.5214 C.3     1  UNL1        0.0421
     25 C         -19.7980  -11.7671  -10.4086 C.3     1  UNL1        0.0064
     26 C         -20.2894  -12.9442  -12.5722 C.3     1  UNL1        0.0064
     27 N         -24.8763  -11.1884  -12.6770 N.pl3   1  UNL1       -0.2917
     28 C         -24.2295  -10.9546  -11.3956 C.3     1  UNL1        0.0937
     29 C         -24.7139   -9.5906  -10.9316 C.3     1  UNL1        0.0391
     30 C         -25.1517   -8.8736  -12.2151 C.3     1  UNL1        0.0790
     31 C         -25.4831   -9.9849  -13.2232 C.3     1  UNL1        0.1081
     32 N         -26.2366   -7.8851  -11.9806 N.3     1  UNL1       -0.2723
     33 C         -27.2542   -7.7494  -13.0575 C.3     1  UNL1        0.0721
     34 C         -27.6017   -6.2918  -13.3977 C.3     1  UNL1        0.0174
     35 C         -26.3339   -5.4600  -13.6040 C.3     1  UNL1        0.0029
     36 C         -25.3433   -5.5813  -12.4314 C.3     1  UNL1        0.0174
     37 C         -25.7695   -6.6163  -11.3786 C.3     1  UNL1        0.0721
@<TRIPOS>BOND
     1    17    18    1
     2    18    19   ar
     3    19    20   ar
     4    20    21   ar
     5    21    11    1
     6    11    12   ar
     7    12     1    1
     8     1     2   ar
     9     2     3   ar
    10     3     4    1
    11     3     5   ar
    12     5     6   ar
    13     6     7   ar
    14     7     8   ar
    15     8     9   ar
    16     9    27    1
    17    27    28    1
    18    28    29    1
    19    29    30    1
    20    30    32    1
    21    32    33    1
    22    33    34    1
    23    34    35    1
    24    35    36    1
    25    36    37    1
    26    30    31    1
    27     9    10   ar
    28    12    13   ar
    29    13    24    1
    30    24    25    1
    31    24    26    1
    32    13    14   ar
    33    14    15   ar
    34    15    16    1
    35    21    22   ar
    36    22    23   ar
    37    23    18   ar
    38    15    11   ar
    39    10     1   ar
    40    10     5   ar
    41    31    27    1
    42    37    32    1
@<TRIPOS>MOLECULE
*****
 37 42 0 0 0
SMALL
GASTEIGER

@<TRIPOS>ATOM
      1 C         -24.7079   -6.5287  -14.3083 C.ar    1  UNL1        0.1092
      2 N         -24.9958   -5.2742  -14.7377 N.ar    1  UNL1       -0.1677
      3 N         -26.3101   -5.1011  -14.6590 N.ar    1  UNL1       -0.2319
      4 C         -27.0093   -3.9140  -15.1317 C.3     1  UNL1        0.1554
      5 C         -26.8627   -6.2463  -14.2302 C.ar    1  UNL1        0.1654
      6 N         -28.1835   -6.5303  -14.1295 N.ar    1  UNL1       -0.2050
      7 C         -28.5426   -7.7866  -13.7311 C.ar    1  UNL1        0.2014
      8 N         -27.5860   -8.7219  -13.4332 N.ar    1  UNL1       -0.2089
      9 C         -26.2520   -8.4442  -13.5424 C.ar    1  UNL1        0.1379
     10 C         -25.8947   -7.1669  -13.9771 C.ar    1  UNL1        0.0865
     11 C         -22.8405   -7.6624  -15.6521 C.ar    1  UNL1        0.0805
     12 C         -23.3881   -7.1499  -14.4887 C.ar    1  UNL1        0.0520
     13 C         -22.4319   -7.3835  -13.5101 C.ar    1  UNL1        0.0811
     14 N         -21.3692   -8.0021  -14.0670 N.ar    1  UNL1       -0.1736
     15 N         -21.6187   -8.1595  -15.3579 N.ar    1  UNL1       -0.2491
     16 C         -20.6710   -8.7730  -16.2819 C.3     1  UNL1        0.1537
     17 C         -25.2915   -7.5464  -20.8969 C.3     1  UNL1        0.0310
     18 C         -24.6223   -7.5682  -19.5548 C.ar    1  UNL1       -0.0218
     19 C         -24.5760   -6.4070  -18.7691 C.ar    1  UNL1       -0.0042
     20 C         -23.9858   -6.4362  -17.5025 C.ar    1  UNL1        0.0012
     21 C         -23.4483   -7.6303  -16.9986 C.ar    1  UNL1        0.0174
     22 C         -23.5079   -8.7944  -17.7787 C.ar    1  UNL1        0.0012
     23 C         -24.0972   -8.7654  -19.0459 C.ar    1  UNL1       -0.0042
     24 C         -22.5820   -7.1199  -12.0296 C.3     1  UNL1        0.0421
     25 C         -22.4599   -5.6256  -11.7087 C.3     1  UNL1        0.0064
     26 C         -21.5380   -7.9138  -11.2372 C.3     1  UNL1        0.0064
     27 N         -25.2800   -9.4005  -13.1033 N.pl3   1  UNL1       -0.2917
     28 C         -24.9762   -9.5747  -11.6918 C.3     1  UNL1        0.0937
     29 C         -24.0679  -10.7908  -11.6122 C.3     1  UNL1        0.0391
     30 C         -24.3596  -11.5814  -12.8940 C.3     1  UNL1        0.0790
     31 C         -24.9093  -10.5588  -13.9007 C.3     1  UNL1        0.1081
     32 N         -23.1893  -12.3684  -13.3636 N.3     1  UNL1       -0.2723
     33 C         -21.9942  -11.5903  -13.7879 C.3     1  UNL1        0.0721
     34 C         -21.3697  -12.0865  -15.1013 C.3     1  UNL1        0.0174
     35 C         -22.4373  -12.2640  -16.1831 C.3     1  UNL1        0.0029
     36 C         -23.6202  -13.1325  -15.7171 C.3     1  UNL1        0.0174
     37 C         -23.5478  -13.5134  -14.2302 C.3     1  UNL1        0.0721
@<TRIPOS>BOND
     1    17    18    1
     2    18    19   ar
     3    19    20   ar
     4    20    21   ar
     5    21    11    1
     6    11    12   ar
     7    12     1    1
     8     1     2   ar
     9     2     3   ar
    10     3     4    1
    11     3     5   ar
    12     5     6   ar
    13     6     7   ar
    14     7     8   ar
    15     8     9   ar
    16     9    27    1
    17    27    28    1
    18    28    29    1
    19    29    30    1
    20    30    32    1
    21    32    33    1
    22    33    34    1
    23    34    35    1
    24    35    36    1
    25    36    37    1
    26    30    31    1
    27     9    10   ar
    28    12    13   ar
    29    13    24    1
    30    24    25    1
    31    24    26    1
    32    13    14   ar
    33    14    15   ar
    34    15    16    1
    35    21    22   ar
    36    22    23   ar
    37    23    18   ar
    38    15    11   ar
    39    10     1   ar
    40    10     5   ar
    41    31    27    1
    42    37    32    1
@<TRIPOS>MOLECULE
*****
 37 42 0 0 0
SMALL
GASTEIGER

@<TRIPOS>ATOM
      1 C         -23.3486   -8.0374  -13.1062 C.ar    1  UNL1        0.1092
      2 N         -22.9873   -6.7975  -12.6900 N.ar    1  UNL1       -0.1677
      3 N         -24.0855   -6.1486  -12.3203 N.ar    1  UNL1       -0.2319
      4 C         -24.1121   -4.7505  -11.9124 C.3     1  UNL1        0.1554
      5 C         -25.1424   -6.9451  -12.5418 C.ar    1  UNL1        0.1654
      6 N         -26.4519   -6.6218  -12.4144 N.ar    1  UNL1       -0.2050
      7 C         -27.3824   -7.5623  -12.7544 C.ar    1  UNL1        0.2014
      8 N         -26.9917   -8.7983  -13.1999 N.ar    1  UNL1       -0.2089
      9 C         -25.6721   -9.1267  -13.3398 C.ar    1  UNL1        0.1379
     10 C         -24.7288   -8.1501  -13.0167 C.ar    1  UNL1        0.0865
     11 C         -22.2678   -9.0878  -15.1814 C.ar    1  UNL1        0.0805
     12 C         -22.4300   -8.9397  -13.8148 C.ar    1  UNL1        0.0520
     13 C         -21.5590   -9.8606  -13.2494 C.ar    1  UNL1        0.0811
     14 N         -20.9111  -10.5204  -14.2329 N.ar    1  UNL1       -0.1736
     15 N         -21.3369  -10.0445  -15.3929 N.ar    1  UNL1       -0.2491
     16 C         -20.8294  -10.5115  -16.6784 C.3     1  UNL1        0.1537
     17 C         -24.9894   -6.0369  -19.2819 C.3     1  UNL1        0.0310
     18 C         -24.2505   -6.8189  -18.2370 C.ar    1  UNL1       -0.0218
     19 C         -23.8464   -6.1999  -17.0448 C.ar    1  UNL1       -0.0042
     20 C         -23.1911   -6.9374  -16.0547 C.ar    1  UNL1        0.0012
     21 C         -22.9453   -8.3067  -16.2372 C.ar    1  UNL1        0.0174
     22 C         -23.3626   -8.9283  -17.4232 C.ar    1  UNL1        0.0012
     23 C         -24.0171   -8.1909  -18.4140 C.ar    1  UNL1       -0.0042
     24 C         -21.4311  -10.1876  -11.7794 C.3     1  UNL1        0.0421
     25 C         -20.4087   -9.2785  -11.0874 C.3     1  UNL1        0.0064
     26 C         -21.0388  -11.6570  -11.5913 C.3     1  UNL1        0.0064
     27 N         -25.2970  -10.4652  -13.6858 N.pl3   1  UNL1       -0.2917
     28 C         -25.0882  -11.4790  -12.6642 C.3     1  UNL1        0.0937
     29 C         -24.9062  -12.7887  -13.4137 C.3     1  UNL1        0.0391
     30 C         -25.5827  -12.5599  -14.7713 C.3     1  UNL1        0.0790
     31 C         -25.5719  -11.0394  -14.9934 C.3     1  UNL1        0.1081
     32 N         -24.9722  -13.3649  -15.8615 N.3     1  UNL1       -0.2723
     33 C         -25.0227  -14.8433  -15.7021 C.3     1  UNL1        0.0721
     34 C         -23.6970  -15.5452  -16.0356 C.3     1  UNL1        0.0174
     35 C         -22.5230  -14.8632  -15.3298 C.3     1  UNL1        0.0029
     36 C         -22.4762  -13.3449  -15.5812 C.3     1  UNL1        0.0174
     37 C         -23.6908  -12.8190  -16.3620 C.3     1  UNL1        0.0721
@<TRIPOS>BOND
     1    17    18    1
     2    18    19   ar
     3    19    20   ar
     4    20    21   ar
     5    21    11    1
     6    11    12   ar
     7    12     1    1
     8     1     2   ar
     9     2     3   ar
    10     3     4    1
    11     3     5   ar
    12     5     6   ar
    13     6     7   ar
    14     7     8   ar
    15     8     9   ar
    16     9    27    1
    17    27    28    1
    18    28    29    1
    19    29    30    1
    20    30    32    1
    21    32    33    1
    22    33    34    1
    23    34    35    1
    24    35    36    1
    25    36    37    1
    26    30    31    1
    27     9    10   ar
    28    12    13   ar
    29    13    24    1
    30    24    25    1
    31    24    26    1
    32    13    14   ar
    33    14    15   ar
    34    15    16    1
    35    21    22   ar
    36    22    23   ar
    37    23    18   ar
    38    15    11   ar
    39    10     1   ar
    40    10     5   ar
    41    31    27    1
    42    37    32    1
@<TRIPOS>MOLECULE
*****
 37 42 0 0 0
SMALL
GASTEIGER

@<TRIPOS>ATOM
      1 C         -22.5766  -11.5228  -13.5337 C.ar    1  UNL1        0.1092
      2 N         -22.1436  -12.7541  -13.9047 N.ar    1  UNL1       -0.1677
      3 N         -21.3703  -12.6157  -14.9754 N.ar    1  UNL1       -0.2319
      4 C         -20.8039  -13.7285  -15.7255 C.3     1  UNL1        0.1554
      5 C         -21.3465  -11.3178  -15.3152 C.ar    1  UNL1        0.1654
      6 N         -20.7756  -10.7701  -16.4150 N.ar    1  UNL1       -0.2050
      7 C         -20.9209   -9.4264  -16.6134 C.ar    1  UNL1        0.2014
      8 N         -21.6167   -8.6616  -15.7135 N.ar    1  UNL1       -0.2089
      9 C         -22.2033   -9.2103  -14.6074 C.ar    1  UNL1        0.1379
     10 C         -22.0733  -10.5883  -14.4275 C.ar    1  UNL1        0.0865
     11 C         -23.5243  -10.8465  -11.2484 C.ar    1  UNL1        0.0805
     12 C         -23.6441  -11.3176  -12.5445 C.ar    1  UNL1        0.0520
     13 C         -24.9952  -11.5938  -12.7013 C.ar    1  UNL1        0.0811
     14 N         -25.6443  -11.2987  -11.5550 N.ar    1  UNL1       -0.1736
     15 N         -24.7540  -10.8420  -10.6877 N.ar    1  UNL1       -0.2491
     16 C         -25.1081  -10.3993   -9.3435 C.3     1  UNL1        0.1537
     17 C         -18.6752   -9.0574   -8.6380 C.3     1  UNL1        0.0310
     18 C         -19.9263   -9.4931   -9.3410 C.ar    1  UNL1       -0.0218
     19 C         -19.8759  -10.5037  -10.3126 C.ar    1  UNL1       -0.0042
     20 C         -21.0471  -10.9363  -10.9410 C.ar    1  UNL1        0.0012
     21 C         -22.2856  -10.3750  -10.5950 C.ar    1  UNL1        0.0174
     22 C         -22.3372   -9.3749   -9.6130 C.ar    1  UNL1        0.0012
     23 C         -21.1661   -8.9414   -8.9850 C.ar    1  UNL1       -0.0042
     24 C         -25.6434  -12.2439  -13.9018 C.3     1  UNL1        0.0421
     25 C         -25.2717  -13.7276  -14.0076 C.3     1  UNL1        0.0064
     26 C         -25.2449  -11.5101  -15.1868 C.3     1  UNL1        0.0064
     27 N         -22.8134   -8.3665  -13.6236 N.pl3   1  UNL1       -0.2917
     28 C         -22.0127   -7.5196  -12.7538 C.3     1  UNL1        0.0937
     29 C         -23.0035   -6.6438  -12.0044 C.3     1  UNL1        0.0391
     30 C         -24.2583   -6.6297  -12.8866 C.3     1  UNL1        0.0790
     31 C         -24.1903   -7.9113  -13.7318 C.3     1  UNL1        0.1081
     32 N         -25.5095   -6.4507  -12.1046 N.3     1  UNL1       -0.2723
     33 C         -26.0796   -7.6732  -11.4767 C.3     1  UNL1        0.0721
     34 C         -27.5999   -7.8070  -11.6560 C.3     1  UNL1        0.0174
     35 C         -28.0008   -7.5890  -13.1167 C.3     1  UNL1        0.0029
     36 C         -27.4424   -6.2778  -13.6993 C.3     1  UNL1        0.0174
     37 C         -26.4892   -5.5436  -12.7434 C.3     1  UNL1        0.0721
@<TRIPOS>BOND
     1    17    18    1
     2    18    19   ar
     3    19    20   ar
     4    20    21   ar
     5    21    11    1
     6    11    12   ar
     7    12     1    1
     8     1     2   ar
     9     2     3   ar
    10     3     4    1
    11     3     5   ar
    12     5     6   ar
    13     6     7   ar
    14     7     8   ar
    15     8     9   ar
    16     9    27    1
    17    27    28    1
    18    28    29    1
    19    29    30    1
    20    30    32    1
    21    32    33    1
    22    33    34    1
    23    34    35    1
    24    35    36    1
    25    36    37    1
    26    30    31    1
    27     9    10   ar
    28    12    13   ar
    29    13    24    1
    30    24    25    1
    31    24    26    1
    32    13    14   ar
    33    14    15   ar
    34    15    16    1
    35    21    22   ar
    36    22    23   ar
    37    23    18   ar
    38    15    11   ar
    39    10     1   ar
    40    10     5   ar
    41    31    27    1
    42    37    32    1
@<TRIPOS>MOLECULE
*****
 37 42 0 0 0
SMALL
GASTEIGER

@<TRIPOS>ATOM
      1 C         -22.2582  -11.6467  -14.2911 C.ar    1  UNL1        0.1092
      2 N         -21.5149  -12.4268  -15.1159 N.ar    1  UNL1       -0.1677
      3 N         -22.2887  -13.4071  -15.5671 N.ar    1  UNL1       -0.2319
      4 C         -21.8164  -14.5067  -16.3976 C.3     1  UNL1        0.1554
      5 C         -23.4994  -13.2850  -15.0015 C.ar    1  UNL1        0.1654
      6 N         -24.5394  -14.1476  -15.0997 N.ar    1  UNL1       -0.2050
      7 C         -25.6726  -13.8723  -14.3882 C.ar    1  UNL1        0.2014
      8 N         -25.7488  -12.7470  -13.6093 N.ar    1  UNL1       -0.2089
      9 C         -24.6991  -11.8782  -13.4986 C.ar    1  UNL1        0.1379
     10 C         -23.5356  -12.1822  -14.2070 C.ar    1  UNL1        0.0865
     11 C         -21.6186   -9.2511  -13.6353 C.ar    1  UNL1        0.0805
     12 C         -21.6697  -10.6178  -13.4221 C.ar    1  UNL1        0.0520
     13 C         -21.0070  -10.8172  -12.2189 C.ar    1  UNL1        0.0811
     14 N         -20.5859   -9.6266  -11.7419 N.ar    1  UNL1       -0.1736
     15 N         -20.9645   -8.6878  -12.5955 N.ar    1  UNL1       -0.2491
     16 C         -20.6998   -7.2686  -12.3854 C.3     1  UNL1        0.1537
     17 C         -24.0081   -6.4268  -18.0899 C.3     1  UNL1        0.0310
     18 C         -23.3696   -7.1260  -16.9267 C.ar    1  UNL1       -0.0218
     19 C         -24.0089   -7.1496  -15.6783 C.ar    1  UNL1       -0.0042
     20 C         -23.4324   -7.8330  -14.6041 C.ar    1  UNL1        0.0012
     21 C         -22.2171   -8.5148  -14.7682 C.ar    1  UNL1        0.0174
     22 C         -21.5856   -8.5031  -16.0205 C.ar    1  UNL1        0.0012
     23 C         -22.1614   -7.8189  -17.0948 C.ar    1  UNL1       -0.0042
     24 C         -20.6786  -12.1501  -11.5870 C.3     1  UNL1        0.0421
     25 C         -19.6650  -11.9979  -10.4467 C.3     1  UNL1        0.0064
     26 C         -20.1400  -13.1229  -12.6415 C.3     1  UNL1        0.0064
     27 N         -24.8554  -10.6495  -12.7791 N.pl3   1  UNL1       -0.2917
     28 C         -25.7125   -9.5859  -13.2781 C.3     1  UNL1        0.0937
     29 C         -25.7782   -8.5525  -12.1654 C.3     1  UNL1        0.0391
     30 C         -25.4321   -9.3295  -10.8889 C.3     1  UNL1        0.0790
     31 C         -24.6147  -10.5469  -11.3485 C.3     1  UNL1        0.1081
     32 N         -24.7809   -8.4806   -9.8572 N.3     1  UNL1       -0.2723
     33 C         -23.6542   -7.6247  -10.3173 C.3     1  UNL1        0.0721
     34 C         -22.4371   -7.6506   -9.3796 C.3     1  UNL1        0.0174
     35 C         -22.0485   -9.0878   -9.0256 C.3     1  UNL1        0.0029
     36 C         -23.2340   -9.9119   -8.4906 C.3     1  UNL1        0.0174
     37 C         -24.5756   -9.1661   -8.5615 C.3     1  UNL1        0.0721
@<TRIPOS>BOND
     1    17    18    1
     2    18    19   ar
     3    19    20   ar
     4    20    21   ar
     5    21    11    1
     6    11    12   ar
     7    12     1    1
     8     1     2   ar
     9     2     3   ar
    10     3     4    1
    11     3     5   ar
    12     5     6   ar
    13     6     7   ar
    14     7     8   ar
    15     8     9   ar
    16     9    27    1
    17    27    28    1
    18    28    29    1
    19    29    30    1
    20    30    32    1
    21    32    33    1
    22    33    34    1
    23    34    35    1
    24    35    36    1
    25    36    37    1
    26    30    31    1
    27     9    10   ar
    28    12    13   ar
    29    13    24    1
    30    24    25    1
    31    24    26    1
    32    13    14   ar
    33    14    15   ar
    34    15    16    1
    35    21    22   ar
    36    22    23   ar
    37    23    18   ar
    38    15    11   ar
    39    10     1   ar
    40    10     5   ar
    41    31    27    1
    42    37    32    1
@<TRIPOS>MOLECULE
*****
 37 42 0 0 0
SMALL
GASTEIGER

@<TRIPOS>ATOM
      1 C         -24.8545   -7.9581  -11.5420 C.ar    1  UNL1        0.1092
      2 N         -26.0652   -7.5200  -11.9702 N.ar    1  UNL1       -0.1677
      3 N         -26.9889   -7.9668  -11.1271 N.ar    1  UNL1       -0.2319
      4 C         -28.4225   -7.7888  -11.3139 C.3     1  UNL1        0.1554
      5 C         -26.3836   -8.7217  -10.1974 C.ar    1  UNL1        0.1654
      6 N         -26.9772   -9.4594   -9.2286 N.ar    1  UNL1       -0.2050
      7 C         -26.1803  -10.2161   -8.4172 C.ar    1  UNL1        0.2014
      8 N         -24.8193  -10.2130   -8.5800 N.ar    1  UNL1       -0.2089
      9 C         -24.2155   -9.4784   -9.5621 C.ar    1  UNL1        0.1379
     10 C         -25.0398   -8.7302  -10.4040 C.ar    1  UNL1        0.0865
     11 C         -23.1463   -8.7905  -13.2647 C.ar    1  UNL1        0.0805
     12 C         -23.6375   -7.8643  -12.3607 C.ar    1  UNL1        0.0520
     13 C         -22.7075   -6.8340  -12.3634 C.ar    1  UNL1        0.0811
     14 N         -21.7152   -7.1342  -13.2280 N.ar    1  UNL1       -0.1736
     15 N         -21.9901   -8.3094  -13.7727 N.ar    1  UNL1       -0.2491
     16 C         -21.1410   -8.9374  -14.7792 C.3     1  UNL1        0.1537
     17 C         -25.7260  -13.7529  -14.7644 C.3     1  UNL1        0.0310
     18 C         -25.0282  -12.4764  -14.3996 C.ar    1  UNL1       -0.0218
     19 C         -25.2983  -11.2958  -15.1075 C.ar    1  UNL1       -0.0042
     20 C         -24.6767  -10.0980  -14.7438 C.ar    1  UNL1        0.0012
     21 C         -23.7888  -10.0618  -13.6579 C.ar    1  UNL1        0.0174
     22 C         -23.5303  -11.2395  -12.9413 C.ar    1  UNL1        0.0012
     23 C         -24.1511  -12.4377  -13.3054 C.ar    1  UNL1       -0.0042
     24 C         -22.7095   -5.6229  -11.4594 C.3     1  UNL1        0.0421
     25 C         -23.7399   -4.5826  -11.9142 C.3     1  UNL1        0.0064
     26 C         -21.3139   -4.9918  -11.4089 C.3     1  UNL1        0.0064
     27 N         -22.7867   -9.3981   -9.6245 N.pl3   1  UNL1       -0.2917
     28 C         -22.0605   -8.3285   -8.9584 C.3     1  UNL1        0.0937
     29 C         -20.5893   -8.6906   -9.0798 C.3     1  UNL1        0.0391
     30 C         -20.5768  -10.2089   -9.2979 C.3     1  UNL1        0.0790
     31 C         -21.9508  -10.5580   -9.8907 C.3     1  UNL1        0.1081
     32 N         -19.4075  -10.6664  -10.0932 N.3     1  UNL1       -0.2723
     33 C         -19.4658  -12.0574  -10.6181 C.3     1  UNL1        0.0721
     34 C         -18.1587  -12.8430  -10.4297 C.3     1  UNL1        0.0174
     35 C         -17.6477  -12.7201   -8.9926 C.3     1  UNL1        0.0029
     36 C         -17.5410  -11.2586   -8.5202 C.3     1  UNL1        0.0174
     37 C         -18.1029  -10.2485   -9.5328 C.3     1  UNL1        0.0721
@<TRIPOS>BOND
     1    17    18    1
     2    18    19   ar
     3    19    20   ar
     4    20    21   ar
     5    21    11    1
     6    11    12   ar
     7    12     1    1
     8     1     2   ar
     9     2     3   ar
    10     3     4    1
    11     3     5   ar
    12     5     6   ar
    13     6     7   ar
    14     7     8   ar
    15     8     9   ar
    16     9    27    1
    17    27    28    1
    18    28    29    1
    19    29    30    1
    20    30    32    1
    21    32    33    1
    22    33    34    1
    23    34    35    1
    24    35    36    1
    25    36    37    1
    26    30    31    1
    27     9    10   ar
    28    12    13   ar
    29    13    24    1
    30    24    25    1
    31    24    26    1
    32    13    14   ar
    33    14    15   ar
    34    15    16    1
    35    21    22   ar
    36    22    23   ar
    37    23    18   ar
    38    15    11   ar
    39    10     1   ar
    40    10     5   ar
    41    31    27    1
    42    37    32    1
@<TRIPOS>MOLECULE
*****
 37 42 0 0 0
SMALL
GASTEIGER

@<TRIPOS>ATOM
      1 C         -24.6285   -8.2249  -11.3462 C.ar    1  UNL1        0.1092
      2 N         -25.8084   -7.6393  -11.6721 N.ar    1  UNL1       -0.1677
      3 N         -26.7299   -8.0586  -10.8127 N.ar    1  UNL1       -0.2319
      4 C         -28.1456   -7.7283  -10.9045 C.3     1  UNL1        0.1554
      5 C         -26.1590   -8.9387   -9.9760 C.ar    1  UNL1        0.1654
      6 N         -26.7758   -9.6885   -9.0312 N.ar    1  UNL1       -0.2050
      7 C         -26.0204  -10.5798   -8.3233 C.ar    1  UNL1        0.2014
      8 N         -24.6758  -10.6962   -8.5623 N.ar    1  UNL1       -0.2089
      9 C         -24.0499   -9.9495   -9.5212 C.ar    1  UNL1        0.1379
     10 C         -24.8347   -9.0616  -10.2586 C.ar    1  UNL1        0.0865
     11 C         -23.0649   -9.1171  -13.1730 C.ar    1  UNL1        0.0805
     12 C         -23.4501   -8.1863  -12.2237 C.ar    1  UNL1        0.0520
     13 C         -22.4570   -7.2170  -12.2497 C.ar    1  UNL1        0.0811
     14 N         -21.5302   -7.5560  -13.1707 N.ar    1  UNL1       -0.1736
     15 N         -21.9067   -8.6966  -13.7281 N.ar    1  UNL1       -0.2491
     16 C         -21.1506   -9.3499  -14.7911 C.3     1  UNL1        0.1537
     17 C         -26.0188  -13.8765  -14.6402 C.3     1  UNL1        0.0310
     18 C         -25.2320  -12.6479  -14.2922 C.ar    1  UNL1       -0.0218
     19 C         -25.6764  -11.3832  -14.7056 C.ar    1  UNL1       -0.0042
     20 C         -24.9639  -10.2347  -14.3496 C.ar    1  UNL1        0.0012
     21 C         -23.8066  -10.3345  -13.5625 C.ar    1  UNL1        0.0174
     22 C         -23.3709  -11.5980  -13.1372 C.ar    1  UNL1        0.0012
     23 C         -24.0827  -12.7469  -13.4939 C.ar    1  UNL1       -0.0042
     24 C         -22.3363   -6.0326  -11.3187 C.3     1  UNL1        0.0421
     25 C         -23.3978   -4.9684  -11.6210 C.3     1  UNL1        0.0064
     26 C         -20.9355   -5.4187  -11.4144 C.3     1  UNL1        0.0064
     27 N         -22.6250  -10.0037   -9.6586 N.pl3   1  UNL1       -0.2917
     28 C         -21.9974  -10.7758  -10.7192 C.3     1  UNL1        0.0937
     29 C         -20.5184  -10.4301  -10.6615 C.3     1  UNL1        0.0391
     30 C         -20.4625   -9.0661   -9.9619 C.3     1  UNL1        0.0790
     31 C         -21.7501   -8.9699   -9.1287 C.3     1  UNL1        0.1081
     32 N         -19.2000   -8.8587   -9.2054 N.3     1  UNL1       -0.2723
     33 C         -18.5400  -10.0797   -8.6694 C.3     1  UNL1        0.0721
     34 C         -18.0572   -9.9331   -7.2179 C.3     1  UNL1        0.0174
     35 C         -19.1613   -9.3573   -6.3286 C.3     1  UNL1        0.0029
     36 C         -19.7650   -8.0581   -6.8927 C.3     1  UNL1        0.0174
     37 C         -19.2359   -7.6967   -8.2894 C.3     1  UNL1        0.0721
@<TRIPOS>BOND
     1    17    18    1
     2    18    19   ar
     3    19    20   ar
     4    20    21   ar
     5    21    11    1
     6    11    12   ar
     7    12     1    1
     8     1     2   ar
     9     2     3   ar
    10     3     4    1
    11     3     5   ar
    12     5     6   ar
    13     6     7   ar
    14     7     8   ar
    15     8     9   ar
    16     9    27    1
    17    27    28    1
    18    28    29    1
    19    29    30    1
    20    30    32    1
    21    32    33    1
    22    33    34    1
    23    34    35    1
    24    35    36    1
    25    36    37    1
    26    30    31    1
    27     9    10   ar
    28    12    13   ar
    29    13    24    1
    30    24    25    1
    31    24    26    1
    32    13    14   ar
    33    14    15   ar
    34    15    16    1
    35    21    22   ar
    36    22    23   ar
    37    23    18   ar
    38    15    11   ar
    39    10     1   ar
    40    10     5   ar
    41    31    27    1
    42    37    32    1
@<TRIPOS>MOLECULE
*****
 37 42 0 0 0
SMALL
GASTEIGER

@<TRIPOS>ATOM
      1 C         -22.1782   -9.9743  -12.5151 C.ar    1  UNL1        0.1092
      2 N         -21.0277  -10.6679  -12.3242 N.ar    1  UNL1       -0.1677
      3 N         -20.9885  -11.0640  -11.0573 N.ar    1  UNL1       -0.2319
      4 C         -19.8558  -11.7475  -10.4478 C.3     1  UNL1        0.1554
      5 C         -22.0767  -10.5895  -10.4318 C.ar    1  UNL1        0.1654
      6 N         -22.3576  -10.6633   -9.1085 N.ar    1  UNL1       -0.2050
      7 C         -23.4944  -10.0549   -8.6574 C.ar    1  UNL1        0.2014
      8 N         -24.3259   -9.4007   -9.5288 N.ar    1  UNL1       -0.2089
      9 C         -24.0426   -9.3144  -10.8634 C.ar    1  UNL1        0.1379
     10 C         -22.8649   -9.9150  -11.3107 C.ar    1  UNL1        0.0865
     11 C         -22.9227   -9.6199  -14.9437 C.ar    1  UNL1        0.0805
     12 C         -22.4389   -9.1797  -13.7238 C.ar    1  UNL1        0.0520
     13 C         -22.2141   -7.8212  -13.8973 C.ar    1  UNL1        0.0811
     14 N         -22.5503   -7.4733  -15.1576 N.ar    1  UNL1       -0.1736
     15 N         -22.9834   -8.5593  -15.7791 N.ar    1  UNL1       -0.2491
     16 C         -23.4582   -8.5500  -17.1586 C.3     1  UNL1        0.1537
     17 C         -24.6096  -15.0226  -16.1664 C.3     1  UNL1        0.0310
     18 C         -24.1775  -13.6138  -15.8871 C.ar    1  UNL1       -0.0218
     19 C         -25.1159  -12.6544  -15.4786 C.ar    1  UNL1       -0.0042
     20 C         -24.7077  -11.3510  -15.1820 C.ar    1  UNL1        0.0012
     21 C         -23.3539  -10.9940  -15.2748 C.ar    1  UNL1        0.0174
     22 C         -22.4141  -11.9576  -15.6692 C.ar    1  UNL1        0.0012
     23 C         -22.8221  -13.2609  -15.9669 C.ar    1  UNL1       -0.0042
     24 C         -21.5736   -6.8843  -12.8993 C.3     1  UNL1        0.0421
     25 C         -20.4417   -7.5724  -12.1274 C.3     1  UNL1        0.0064
     26 C         -22.6239   -6.3461  -11.9217 C.3     1  UNL1        0.0064
     27 N         -24.9935   -8.7346  -11.7643 N.pl3   1  UNL1       -0.2917
     28 C         -25.5305   -9.4905  -12.8848 C.3     1  UNL1        0.0937
     29 C         -26.6340   -8.6271  -13.4739 C.3     1  UNL1        0.0391
     30 C         -27.0542   -7.6950  -12.3303 C.3     1  UNL1        0.0790
     31 C         -25.8425   -7.6153  -11.3887 C.3     1  UNL1        0.1081
     32 N         -27.5696   -6.3874  -12.8137 N.3     1  UNL1       -0.2723
     33 C         -28.3446   -6.4085  -14.0835 C.3     1  UNL1        0.0721
     34 C         -27.9573   -5.2881  -15.0612 C.3     1  UNL1        0.0174
     35 C         -26.4389   -5.2147  -15.2370 C.3     1  UNL1        0.0029
     36 C         -25.6867   -5.1260  -13.8965 C.3     1  UNL1        0.0174
     37 C         -26.6037   -5.2749  -12.6724 C.3     1  UNL1        0.0721
@<TRIPOS>BOND
     1    17    18    1
     2    18    19   ar
     3    19    20   ar
     4    20    21   ar
     5    21    11    1
     6    11    12   ar
     7    12     1    1
     8     1     2   ar
     9     2     3   ar
    10     3     4    1
    11     3     5   ar
    12     5     6   ar
    13     6     7   ar
    14     7     8   ar
    15     8     9   ar
    16     9    27    1
    17    27    28    1
    18    28    29    1
    19    29    30    1
    20    30    32    1
    21    32    33    1
    22    33    34    1
    23    34    35    1
    24    35    36    1
    25    36    37    1
    26    30    31    1
    27     9    10   ar
    28    12    13   ar
    29    13    24    1
    30    24    25    1
    31    24    26    1
    32    13    14   ar
    33    14    15   ar
    34    15    16    1
    35    21    22   ar
    36    22    23   ar
    37    23    18   ar
    38    15    11   ar
    39    10     1   ar
    40    10     5   ar
    41    31    27    1
    42    37    32    1
