@<TRIPOS>MOLECULE
*****
 54 60 0 0 0
SMALL
GASTEIGER

@<TRIPOS>ATOM
      1 C          61.5201   86.1055   12.5749 C.ar    1  UNL1        0.1388
      2 C          62.4264   86.2756   11.5104 C.ar    1  UNL1        0.0382
      3 C          61.9809   86.7471   10.2722 C.ar    1  UNL1        0.0176
      4 C          60.6257   87.0594   10.0703 C.ar    1  UNL1        0.0481
      5 C          59.7279   86.9016   11.1402 C.ar    1  UNL1        0.0176
      6 C          60.1748   86.4315   12.3771 C.ar    1  UNL1        0.0382
      7 N          60.1662   87.5396    8.7884 N.pl3   1  UNL1       -0.3041
      8 C          59.8137   88.9618    8.6354 C.3     1  UNL1        0.1122
      9 C          59.0534   89.2104    7.3322 C.3     1  UNL1        0.1122
     10 N          59.7785   88.5874    6.2193 N.pl3   1  UNL1       -0.3041
     11 C          60.2379   87.1953    6.3363 C.3     1  UNL1        0.1122
     12 C          59.8829   86.5880    7.7011 C.3     1  UNL1        0.1122
     13 C          60.1253   89.3532    5.0506 C.ar    1  UNL1        0.0480
     14 C          61.3707   89.1751    4.4264 C.ar    1  UNL1        0.0160
     15 C          61.7103   89.9275    3.2987 C.ar    1  UNL1        0.0190
     16 C          60.8085   90.8656    2.7748 C.ar    1  UNL1        0.0699
     17 C          59.5729   91.0598    3.4084 C.ar    1  UNL1        0.0190
     18 C          59.2319   90.3071    4.5355 C.ar    1  UNL1        0.0160
     19 N          61.1651   91.6575    1.6300 N.ar    1  UNL1       -0.2400
     20 C          60.5716   91.7375    0.4109 C.ar    1  UNL1        0.2057
     21 N          61.2721   92.5349   -0.4278 N.ar    1  UNL1       -0.1445
     22 N          62.3173   92.9739    0.2583 N.ar    1  UNL1       -0.2024
     23 C          62.2518   92.4397    1.4908 C.ar    1  UNL1        0.3522
     24 O          63.1154   92.6226    2.3914 O.2     1  UNL1       -0.2444
     25 C          59.2862   91.1161    0.0326 C.2     1  UNL1        0.2094
     26 C          58.0599   91.9580   -0.1240 C.3     1  UNL1        0.0807
     27 O          59.1950   89.8666   -0.0987 O.2     1  UNL1       -0.2881
     28 C          63.3677   93.8381   -0.2887 C.3     1  UNL1        0.1099
     29 C          64.6018   93.7721    0.6187 C.3     1  UNL1        0.0265
     30 C          63.6860   93.4141   -1.7373 C.3     1  UNL1        0.0245
     31 C          63.8533   91.9021   -1.8901 C.3     1  UNL1        0.0021
     32 O          61.8972   85.6156   13.8367 O.3     1  UNL1       -0.4727
     33 C          61.3468   84.4750   14.4989 C.3     1  UNL1        0.2374
     34 C          61.1972   82.4310   11.5684 C.3     1  UNL1        0.2296
     35 O          62.5557   82.1987   11.9059 O.3     1  UNL1       -0.3267
     36 C          62.7862   82.8981   13.0893 C.3     1  UNL1        0.1783
     37 C          61.4248   83.2108   13.6329 C.3     1  UNL1        0.1909
     38 O          60.6177   83.3182   12.5058 O.3     1  UNL1       -0.3255
     39 C          60.4243   81.1073   11.5580 C.ar    1  UNL1        0.0409
     40 C          59.2638   80.9720   12.3518 C.ar    1  UNL1        0.0022
     41 C          58.5493   79.7732   12.3822 C.ar    1  UNL1        0.0113
     42 C          58.9855   78.6782   11.6385 C.ar    1  UNL1        0.0585
     43 CL         58.0860   77.1728   11.6818 Cl      1  UNL1       -0.0822
     44 C          60.1471   78.7766   10.8720 C.ar    1  UNL1        0.0226
     45 C          60.8763   79.9719   10.8318 C.ar    1  UNL1        0.0591
     46 CL         62.3587   79.9705    9.8779 Cl      1  UNL1       -0.0824
     47 C          61.1351   83.0525   10.1589 C.3     1  UNL1        0.1679
     48 C          59.1708   83.0486    8.5459 C.ar    1  UNL1        0.1205
     49 N          57.8624   83.3806    8.5269 N.ar    1  UNL1       -0.2293
     50 C          57.6270   83.8779    9.7572 C.ar    1  UNL1        0.1188
     51 C          58.7835   83.8371   10.5027 C.ar    1  UNL1        0.0979
     52 N          59.7524   83.3014    9.7419 N.ar    1  UNL1       -0.3084
     53 C          59.5811   80.8745    7.4069 C.3     1  UNL1        0.0084
     54 C          59.8440   82.3757    7.3839 C.3     1  UNL1        0.0640
@<TRIPOS>BOND
     1    53    54    1
     2    54    48    1
     3    48    49   ar
     4    49    50   ar
     5    50    51   ar
     6    51    52   ar
     7    52    47    1
     8    34    47    1
     9    34    39    1
    10    39    40   ar
    11    40    41   ar
    12    41    42   ar
    13    42    43    1
    14    42    44   ar
    15    44    45   ar
    16    45    46    1
    17    34    35    1
    18    35    36    1
    19    36    37    1
    20    37    33    1
    21    33    32    1
    22    32     1    1
    23     1     2   ar
    24     2     3   ar
    25     3     4   ar
    26     4     7    1
    27     7     8    1
    28     8     9    1
    29     9    10    1
    30    10    13    1
    31    13    14   ar
    32    14    15   ar
    33    15    16   ar
    34    16    19    1
    35    19    20   ar
    36    20    25    1
    37    25    26    1
    38    25    27    2
    39    20    21   ar
    40    21    22   ar
    41    22    28    1
    42    28    29    1
    43    28    30    1
    44    30    31    1
    45    22    23   ar
    46    23    24    2
    47    16    17   ar
    48    17    18   ar
    49    10    11    1
    50    11    12    1
    51     4     5   ar
    52     5     6   ar
    53    37    38    1
    54    52    48   ar
    55    38    34    1
    56    45    39   ar
    57     6     1   ar
    58    12     7    1
    59    18    13   ar
    60    23    19   ar
@<TRIPOS>MOLECULE
*****
 54 60 0 0 0
SMALL
GASTEIGER

@<TRIPOS>ATOM
      1 C          62.3587   85.2962   12.3730 C.ar    1  UNL1        0.1388
      2 C          62.7647   85.0529   11.0466 C.ar    1  UNL1        0.0382
      3 C          62.1213   85.6918    9.9827 C.ar    1  UNL1        0.0176
      4 C          61.0629   86.5857   10.2187 C.ar    1  UNL1        0.0481
      5 C          60.6713   86.8362   11.5451 C.ar    1  UNL1        0.0176
      6 C          61.3159   86.1979   12.6071 C.ar    1  UNL1        0.0382
      7 N          60.3950   87.2393    9.1179 N.pl3   1  UNL1       -0.3041
      8 C          60.3734   88.7112    9.0592 C.3     1  UNL1        0.1122
      9 C          59.3635   89.2129    8.0266 C.3     1  UNL1        0.1122
     10 N          59.5720   88.5054    6.7583 N.pl3   1  UNL1       -0.3041
     11 C          59.6901   87.0396    6.7516 C.3     1  UNL1        0.1122
     12 C          59.5942   86.4510    8.1664 C.3     1  UNL1        0.1122
     13 C          59.7541   89.2376    5.5321 C.ar    1  UNL1        0.0480
     14 C          60.9867   89.2054    4.8601 C.ar    1  UNL1        0.0160
     15 C          61.1652   89.9260    3.6759 C.ar    1  UNL1        0.0190
     16 C          60.1131   90.6854    3.1429 C.ar    1  UNL1        0.0699
     17 C          58.8881   90.7354    3.8230 C.ar    1  UNL1        0.0190
     18 C          58.7082   90.0143    5.0066 C.ar    1  UNL1        0.0160
     19 N          60.3019   91.4463    1.9386 N.ar    1  UNL1       -0.2400
     20 C          61.3823   92.1550    1.5200 C.ar    1  UNL1        0.2057
     21 N          61.1258   92.8095    0.3644 N.ar    1  UNL1       -0.1445
     22 N          59.8762   92.5146    0.0362 N.ar    1  UNL1       -0.2024
     23 C          59.3842   91.7010    0.9872 C.ar    1  UNL1        0.3522
     24 O          58.2034   91.2586    1.0028 O.2     1  UNL1       -0.2444
     25 C          62.7092   92.1723    2.1686 C.2     1  UNL1        0.2094
     26 C          63.8129   91.3070    1.6489 C.3     1  UNL1        0.0807
     27 O          62.9060   92.8652    3.2021 O.2     1  UNL1       -0.2881
     28 C          59.1746   93.0524   -1.1333 C.3     1  UNL1        0.1099
     29 C          60.1641   93.8402   -1.9999 C.3     1  UNL1        0.0265
     30 C          58.5063   91.9008   -1.9121 C.3     1  UNL1        0.0245
     31 C          56.9817   91.9133   -1.7981 C.3     1  UNL1        0.0021
     32 O          62.9472   84.6715   13.4855 O.3     1  UNL1       -0.4727
     33 C          62.4150   83.5605   14.2100 C.3     1  UNL1        0.2374
     34 C          61.6622   81.6731   11.2673 C.3     1  UNL1        0.2296
     35 O          62.9935   81.2216   11.4602 O.3     1  UNL1       -0.3267
     36 C          63.4448   81.8330   12.6286 C.3     1  UNL1        0.1783
     37 C          62.2088   82.3321   13.3141 C.3     1  UNL1        0.1909
     38 O          61.3232   82.6041   12.2773 O.3     1  UNL1       -0.3255
     39 C          60.6933   80.4860   11.3077 C.ar    1  UNL1        0.0409
     40 C          59.5442   80.5520   12.1264 C.ar    1  UNL1        0.0022
     41 C          58.6534   79.4801   12.2030 C.ar    1  UNL1        0.0113
     42 C          58.8975   78.3129   11.4814 C.ar    1  UNL1        0.0585
     43 CL         57.7767   76.9673   11.5826 Cl      1  UNL1       -0.0822
     44 C          60.0425   78.2109   10.6908 C.ar    1  UNL1        0.0226
     45 C          60.9471   79.2769   10.6043 C.ar    1  UNL1        0.0591
     46 CL         62.3893   79.0218    9.6232 Cl      1  UNL1       -0.0824
     47 C          61.5622   82.3480    9.8849 C.3     1  UNL1        0.1679
     48 C          59.0554   82.4798    9.4861 C.ar    1  UNL1        0.1205
     49 N          58.1266   81.9827    8.6419 N.ar    1  UNL1       -0.2293
     50 C          58.8213   81.1652    7.8262 C.ar    1  UNL1        0.1188
     51 C          60.1519   81.1800    8.1787 C.ar    1  UNL1        0.0979
     52 N          60.2999   82.0197    9.2168 N.ar    1  UNL1       -0.3084
     53 C          57.2270   83.8030   10.5341 C.3     1  UNL1        0.0084
     54 C          58.7228   83.5099   10.5274 C.3     1  UNL1        0.0640
@<TRIPOS>BOND
     1    53    54    1
     2    54    48    1
     3    48    49   ar
     4    49    50   ar
     5    50    51   ar
     6    51    52   ar
     7    52    47    1
     8    34    47    1
     9    34    39    1
    10    39    40   ar
    11    40    41   ar
    12    41    42   ar
    13    42    43    1
    14    42    44   ar
    15    44    45   ar
    16    45    46    1
    17    34    35    1
    18    35    36    1
    19    36    37    1
    20    37    33    1
    21    33    32    1
    22    32     1    1
    23     1     2   ar
    24     2     3   ar
    25     3     4   ar
    26     4     7    1
    27     7     8    1
    28     8     9    1
    29     9    10    1
    30    10    13    1
    31    13    14   ar
    32    14    15   ar
    33    15    16   ar
    34    16    19    1
    35    19    20   ar
    36    20    25    1
    37    25    26    1
    38    25    27    2
    39    20    21   ar
    40    21    22   ar
    41    22    28    1
    42    28    29    1
    43    28    30    1
    44    30    31    1
    45    22    23   ar
    46    23    24    2
    47    16    17   ar
    48    17    18   ar
    49    10    11    1
    50    11    12    1
    51     4     5   ar
    52     5     6   ar
    53    37    38    1
    54    52    48   ar
    55    38    34    1
    56    45    39   ar
    57     6     1   ar
    58    12     7    1
    59    18    13   ar
    60    23    19   ar
@<TRIPOS>MOLECULE
*****
 54 60 0 0 0
SMALL
GASTEIGER

@<TRIPOS>ATOM
      1 C          61.6863   81.7691   14.0606 C.ar    1  UNL1        0.1388
      2 C          62.7210   82.7187   13.9549 C.ar    1  UNL1        0.0382
      3 C          62.5090   83.9212   13.2743 C.ar    1  UNL1        0.0176
      4 C          61.2633   84.2019   12.6875 C.ar    1  UNL1        0.0481
      5 C          60.2297   83.2572   12.8084 C.ar    1  UNL1        0.0176
      6 C          60.4427   82.0567   13.4897 C.ar    1  UNL1        0.0382
      7 N          61.0485   85.4416   11.9789 N.pl3   1  UNL1       -0.3041
      8 C          62.1788   86.0778   11.2803 C.3     1  UNL1        0.1122
      9 C          61.8460   87.5142   10.8751 C.3     1  UNL1        0.1122
     10 N          60.5492   87.5384   10.1895 N.pl3   1  UNL1       -0.3041
     11 C          59.3954   86.8494   10.7867 C.3     1  UNL1        0.1122
     12 C          59.7643   86.1509   12.1033 C.3     1  UNL1        0.1122
     13 C          60.4167   88.1514    8.8936 C.ar    1  UNL1        0.0480
     14 C          61.2999   89.1670    8.4928 C.ar    1  UNL1        0.0160
     15 C          61.1627   89.7690    7.2389 C.ar    1  UNL1        0.0190
     16 C          60.1441   89.3615    6.3648 C.ar    1  UNL1        0.0699
     17 C          59.2486   88.3621    6.7710 C.ar    1  UNL1        0.0190
     18 C          59.3855   87.7588    8.0241 C.ar    1  UNL1        0.0160
     19 N          59.9863   89.9957    5.0850 N.ar    1  UNL1       -0.2400
     20 C          58.8661   90.4790    4.4881 C.ar    1  UNL1        0.2057
     21 N          59.1251   90.9197    3.2357 N.ar    1  UNL1       -0.1445
     22 N          60.4194   90.7239    3.0298 N.ar    1  UNL1       -0.2024
     23 C          60.9305   90.1637    4.1404 C.ar    1  UNL1        0.3522
     24 O          62.1345   89.8111    4.2690 O.2     1  UNL1       -0.2444
     25 C          57.5351   90.6007    5.1168 C.2     1  UNL1        0.2094
     26 C          56.6283   89.4138    5.1963 C.3     1  UNL1        0.0807
     27 O          57.1251   91.7165    5.5335 O.2     1  UNL1       -0.2881
     28 C          61.1164   91.0230    1.7753 C.3     1  UNL1        0.1099
     29 C          60.0890   91.1653    0.6462 C.3     1  UNL1        0.0265
     30 C          61.9725   92.2945    1.9480 C.3     1  UNL1        0.0245
     31 C          63.4727   92.0187    1.8447 C.3     1  UNL1        0.0021
     32 O          61.8390   80.5329   14.7109 O.3     1  UNL1       -0.4727
     33 C          61.6380   79.2426   14.1302 C.3     1  UNL1        0.2374
     34 C          61.1782   79.8412   10.6347 C.3     1  UNL1        0.2296
     35 O          60.8497   78.4609   10.6467 O.3     1  UNL1       -0.3267
     36 C          60.9278   78.0554   11.9780 C.3     1  UNL1        0.1783
     37 C          60.9201   79.3238   12.7767 C.3     1  UNL1        0.1909
     38 O          61.5167   80.2625   11.9422 O.3     1  UNL1       -0.3255
     39 C          59.9909   80.6598   10.1153 C.ar    1  UNL1        0.0409
     40 C          60.2007   81.9808    9.6616 C.ar    1  UNL1        0.0022
     41 C          59.1378   82.7609    9.2031 C.ar    1  UNL1        0.0113
     42 C          57.8413   82.2494    9.2045 C.ar    1  UNL1        0.0585
     43 CL         56.5081   83.2341    8.6299 Cl      1  UNL1       -0.0822
     44 C          57.6036   80.9588    9.6782 C.ar    1  UNL1        0.0226
     45 C          58.6589   80.1637   10.1430 C.ar    1  UNL1        0.0591
     46 CL         58.2408   78.5710   10.7722 Cl      1  UNL1       -0.0824
     47 C          62.3794   80.0574    9.6928 C.3     1  UNL1        0.1679
     48 C          63.3871   82.3906    9.6632 C.ar    1  UNL1        0.1205
     49 N          64.2558   83.1386   10.3762 N.ar    1  UNL1       -0.2293
     50 C          64.6845   82.3126   11.3511 C.ar    1  UNL1        0.1188
     51 C          64.0724   81.0864   11.2222 C.ar    1  UNL1        0.0979
     52 N          63.2446   81.1416   10.1656 N.ar    1  UNL1       -0.3084
     53 C          63.0913   84.3535    8.1625 C.3     1  UNL1        0.0084
     54 C          62.6040   82.9518    8.5108 C.3     1  UNL1        0.0640
@<TRIPOS>BOND
     1    53    54    1
     2    54    48    1
     3    48    49   ar
     4    49    50   ar
     5    50    51   ar
     6    51    52   ar
     7    52    47    1
     8    34    47    1
     9    34    39    1
    10    39    40   ar
    11    40    41   ar
    12    41    42   ar
    13    42    43    1
    14    42    44   ar
    15    44    45   ar
    16    45    46    1
    17    34    35    1
    18    35    36    1
    19    36    37    1
    20    37    33    1
    21    33    32    1
    22    32     1    1
    23     1     2   ar
    24     2     3   ar
    25     3     4   ar
    26     4     7    1
    27     7     8    1
    28     8     9    1
    29     9    10    1
    30    10    13    1
    31    13    14   ar
    32    14    15   ar
    33    15    16   ar
    34    16    19    1
    35    19    20   ar
    36    20    25    1
    37    25    26    1
    38    25    27    2
    39    20    21   ar
    40    21    22   ar
    41    22    28    1
    42    28    29    1
    43    28    30    1
    44    30    31    1
    45    22    23   ar
    46    23    24    2
    47    16    17   ar
    48    17    18   ar
    49    10    11    1
    50    11    12    1
    51     4     5   ar
    52     5     6   ar
    53    37    38    1
    54    52    48   ar
    55    38    34    1
    56    45    39   ar
    57     6     1   ar
    58    12     7    1
    59    18    13   ar
    60    23    19   ar
