@<TRIPOS>MOLECULE
*****
 37 41 0 0 0
SMALL
GASTEIGER

@<TRIPOS>ATOM
      1 C         -24.2356   -9.6374  -12.0150 C.2     1  UNL1        0.2490
      2 O         -25.0826   -8.7039  -12.0674 O.2     1  UNL1       -0.2699
      3 N         -23.0186   -9.4488  -11.2690 N.am    1  UNL1       -0.2760
      4 C         -22.4407   -8.1045  -11.1576 C.3     1  UNL1        0.0954
      5 C         -20.9141   -8.1991  -11.0603 C.3     1  UNL1        0.0399
      6 C         -20.4140   -9.1534   -9.9182 C.3     1  UNL1        0.0645
      7 C         -21.5854   -9.9880   -9.3207 C.3     1  UNL1        0.0399
      8 C         -22.5153  -10.5326  -10.4105 C.3     1  UNL1        0.0954
      9 C         -19.7723   -8.2913   -8.7726 C.3     1  UNL1        0.0478
     10 C         -18.9434   -9.1425   -7.8554 C.ar    1  UNL1        0.0233
     11 C         -18.2952  -10.2589   -8.2739 C.ar    1  UNL1        0.1516
     12 N         -17.5269  -10.7593   -7.2936 N.ar    1  UNL1       -0.1650
     13 N         -17.6519   -9.9598   -6.2357 N.ar    1  UNL1       -0.2520
     14 C         -18.5229   -8.9539   -6.5537 C.ar    1  UNL1        0.1100
     15 C         -18.4614  -10.7639   -9.6278 C.2     1  UNL1        0.2650
     16 O         -17.7910  -11.7435  -10.0482 O.2     1  UNL1       -0.2684
     17 N         -19.4143  -10.1013  -10.4748 N.am    1  UNL1       -0.3023
     18 H         -19.5433  -10.4799  -11.4407 H       1  UNL1        0.1497
     19 C         -24.2322  -12.3823  -16.1413 C.ar    1  UNL1        0.2248
     20 N         -24.4969  -13.5700  -16.7556 N.ar    1  UNL1       -0.2101
     21 C         -25.0091  -14.6343  -16.0847 C.ar    1  UNL1        0.1021
     22 C         -25.2833  -14.5381  -14.7207 C.ar    1  UNL1        0.0209
     23 C         -25.0268  -13.3355  -14.0510 C.ar    1  UNL1        0.0060
     24 C         -25.2889  -13.2132  -12.6795 C.ar    1  UNL1        0.0003
     25 C         -25.0312  -12.0104  -12.0187 C.ar    1  UNL1        0.0045
     26 C         -24.5183  -10.9072  -12.7192 C.ar    1  UNL1        0.0537
     27 C         -24.2368  -11.0309  -14.0900 C.ar    1  UNL1        0.0092
     28 C         -24.4933  -12.2373  -14.7652 C.ar    1  UNL1        0.0534
     29 C         -22.3077  -11.1295  -17.0757 C.3     1  UNL1        0.2542
     30 O         -23.7041  -11.3130  -16.8750 O.3     1  UNL1       -0.4561
     31 C         -16.9242  -10.2100   -4.9647 C.3     1  UNL1        0.0867
     32 C         -16.3167   -8.9064   -4.3988 C.3     1  UNL1        0.0244
     33 C         -17.8784  -10.8474   -3.9390 C.3     1  UNL1        0.0244
     34 C         -15.7566  -11.1961   -5.2124 C.3     1  UNL1        0.0244
     35 C         -18.9331   -7.8237   -5.7015 C.2     1  UNL1        0.1903
     36 C         -19.9731   -8.0074   -4.6434 C.3     1  UNL1        0.0789
     37 O         -18.3515   -6.7124   -5.8058 O.2     1  UNL1       -0.2897
@<TRIPOS>BOND
     1    29    30    1
     2    30    19    1
     3    19    20   ar
     4    20    21   ar
     5    21    22   ar
     6    22    23   ar
     7    23    24   ar
     8    24    25   ar
     9    25    26   ar
    10    26     1    1
    11     1     2    2
    12     1     3   am
    13     3     4    1
    14     4     5    1
    15     5     6    1
    16     6     7    1
    17     7     8    1
    18     6     9    1
    19     9    10    1
    20    10    11   ar
    21    11    12   ar
    22    12    13   ar
    23    13    31    1
    24    31    32    1
    25    31    33    1
    26    31    34    1
    27    13    14   ar
    28    14    35    1
    29    35    36    1
    30    35    37    2
    31    11    15    1
    32    15    16    2
    33    15    17   am
    34    26    27   ar
    35    27    28   ar
    36    28    19   ar
    37    28    23   ar
    38     8     3    1
    39    14    10   ar
    40    17     6    1
    41    17    18    1
@<TRIPOS>MOLECULE
*****
 37 41 0 0 0
SMALL
GASTEIGER

@<TRIPOS>ATOM
      1 C         -24.4669   -9.3983  -12.1622 C.2     1  UNL1        0.2490
      2 O         -25.5407   -8.7481  -12.0361 O.2     1  UNL1       -0.2699
      3 N         -23.3625   -9.1198  -11.2814 N.am    1  UNL1       -0.2760
      4 C         -23.1862   -7.7631  -10.7508 C.3     1  UNL1        0.0954
      5 C         -21.6958   -7.4750  -10.5392 C.3     1  UNL1        0.0399
      6 C         -20.9649   -8.5521   -9.6612 C.3     1  UNL1        0.0645
      7 C         -21.8641   -9.8025   -9.4295 C.3     1  UNL1        0.0399
      8 C         -22.5882  -10.2328  -10.7099 C.3     1  UNL1        0.0954
      9 C         -20.6072   -7.9220   -8.2674 C.3     1  UNL1        0.0478
     10 C         -19.5864   -8.7522   -7.5451 C.ar    1  UNL1        0.0233
     11 C         -18.6453   -9.4864   -8.1909 C.ar    1  UNL1        0.1516
     12 N         -17.7819  -10.0282   -7.3176 N.ar    1  UNL1       -0.1650
     13 N         -18.1413   -9.6328   -6.0976 N.ar    1  UNL1       -0.2520
     14 C         -19.2545   -8.8454   -6.2079 C.ar    1  UNL1        0.1100
     15 C         -18.6437   -9.6020   -9.6409 C.2     1  UNL1        0.2650
     16 O         -17.7196  -10.2039  -10.2487 O.2     1  UNL1       -0.2684
     17 N         -19.7317   -8.9984  -10.3595 N.am    1  UNL1       -0.3023
     18 H         -19.7354   -9.1005  -11.4000 H       1  UNL1        0.1497
     19 C         -25.8663  -13.7535  -14.0686 C.ar    1  UNL1        0.2248
     20 N         -25.7598  -14.6849  -15.0581 N.ar    1  UNL1       -0.2101
     21 C         -24.9242  -14.5247  -16.1170 C.ar    1  UNL1        0.1021
     22 C         -24.1366  -13.3786  -16.2221 C.ar    1  UNL1        0.0209
     23 C         -24.2148  -12.3969  -15.2268 C.ar    1  UNL1        0.0060
     24 C         -23.4377  -11.2334  -15.3103 C.ar    1  UNL1        0.0003
     25 C         -23.5205  -10.2592  -14.3133 C.ar    1  UNL1        0.0045
     26 C         -24.3723  -10.4366  -13.2115 C.ar    1  UNL1        0.0537
     27 C         -25.1667  -11.5926  -13.1331 C.ar    1  UNL1        0.0092
     28 C         -25.0904  -12.5801  -14.1311 C.ar    1  UNL1        0.0534
     29 C         -26.3450  -14.6012  -11.7885 C.3     1  UNL1        0.2542
     30 O         -26.7421  -13.9630  -12.9963 O.3     1  UNL1       -0.4561
     31 C         -17.3911  -10.0395   -4.8813 C.3     1  UNL1        0.0867
     32 C         -16.7952   -8.8139   -4.1522 C.3     1  UNL1        0.0244
     33 C         -18.3203  -10.8255   -3.9390 C.3     1  UNL1        0.0244
     34 C         -16.2125  -10.9632   -5.2744 C.3     1  UNL1        0.0244
     35 C         -19.9773   -8.1614   -5.1209 C.2     1  UNL1        0.1903
     36 C         -21.0841   -8.8524   -4.3912 C.3     1  UNL1        0.0789
     37 O         -19.6134   -7.0166   -4.7451 O.2     1  UNL1       -0.2897
@<TRIPOS>BOND
     1    29    30    1
     2    30    19    1
     3    19    20   ar
     4    20    21   ar
     5    21    22   ar
     6    22    23   ar
     7    23    24   ar
     8    24    25   ar
     9    25    26   ar
    10    26     1    1
    11     1     2    2
    12     1     3   am
    13     3     4    1
    14     4     5    1
    15     5     6    1
    16     6     7    1
    17     7     8    1
    18     6     9    1
    19     9    10    1
    20    10    11   ar
    21    11    12   ar
    22    12    13   ar
    23    13    31    1
    24    31    32    1
    25    31    33    1
    26    31    34    1
    27    13    14   ar
    28    14    35    1
    29    35    36    1
    30    35    37    2
    31    11    15    1
    32    15    16    2
    33    15    17   am
    34    26    27   ar
    35    27    28   ar
    36    28    19   ar
    37    28    23   ar
    38     8     3    1
    39    14    10   ar
    40    17     6    1
    41    17    18    1
@<TRIPOS>MOLECULE
*****
 37 41 0 0 0
SMALL
GASTEIGER

@<TRIPOS>ATOM
      1 C         -19.7431   -7.5116   -8.3599 C.2     1  UNL1        0.2490
      2 O         -18.8650   -6.6557   -8.6561 O.2     1  UNL1       -0.2699
      3 N         -20.5943   -8.0404   -9.3939 N.am    1  UNL1       -0.2760
      4 C         -20.9372   -7.2002  -10.5471 C.3     1  UNL1        0.0954
      5 C         -22.3348   -7.5636  -11.0605 C.3     1  UNL1        0.0399
      6 C         -22.5139   -9.0926  -11.3698 C.3     1  UNL1        0.0645
      7 C         -21.3131   -9.9261  -10.8321 C.3     1  UNL1        0.0399
      8 C         -20.8899   -9.4814   -9.4278 C.3     1  UNL1        0.0954
      9 C         -22.6127   -9.2940  -12.9245 C.3     1  UNL1        0.0478
     10 C         -23.1638  -10.6493  -13.2598 C.ar    1  UNL1        0.0233
     11 C         -24.0420  -11.3047  -12.4592 C.ar    1  UNL1        0.1516
     12 N         -24.4741  -12.4309  -13.0477 N.ar    1  UNL1       -0.1650
     13 N         -23.8973  -12.5064  -14.2458 N.ar    1  UNL1       -0.2520
     14 C         -23.0807  -11.4201  -14.4025 C.ar    1  UNL1        0.1100
     15 C         -24.4165  -10.7735  -11.1578 C.2     1  UNL1        0.2650
     16 O         -25.3001  -11.3292  -10.4534 O.2     1  UNL1       -0.2684
     17 N         -23.7475   -9.5856  -10.7044 N.am    1  UNL1       -0.3023
     18 H         -24.0071   -9.2187   -9.7604 H       1  UNL1        0.1497
     19 C         -17.8752   -8.0005   -3.7957 C.ar    1  UNL1        0.2248
     20 N         -18.0326   -8.4128   -2.5061 N.ar    1  UNL1       -0.2101
     21 C         -19.1806   -8.9894   -2.0648 C.ar    1  UNL1        0.1021
     22 C         -20.2515   -9.1784   -2.9379 C.ar    1  UNL1        0.0209
     23 C         -20.1315   -8.7697   -4.2718 C.ar    1  UNL1        0.0060
     24 C         -21.1941   -8.9437   -5.1692 C.ar    1  UNL1        0.0003
     25 C         -21.0666   -8.5343   -6.4981 C.ar    1  UNL1        0.0045
     26 C         -19.8722   -7.9548   -6.9546 C.ar    1  UNL1        0.0537
     27 C         -18.8112   -7.7616   -6.0543 C.ar    1  UNL1        0.0092
     28 C         -18.9288   -8.1710   -4.7142 C.ar    1  UNL1        0.0534
     29 C         -15.5036   -8.1662   -4.4989 C.3     1  UNL1        0.2542
     30 O         -16.6725   -7.4109   -4.2042 O.3     1  UNL1       -0.4561
     31 C         -24.1617  -13.6298  -15.1816 C.3     1  UNL1        0.0867
     32 C         -24.4110  -13.1178  -16.6184 C.3     1  UNL1        0.0244
     33 C         -22.9765  -14.6115  -15.1593 C.3     1  UNL1        0.0244
     34 C         -25.4302  -14.3978  -14.7365 C.3     1  UNL1        0.0244
     35 C         -22.2717  -11.0726  -15.5843 C.2     1  UNL1        0.1903
     36 C         -22.6886   -9.9589  -16.4904 C.3     1  UNL1        0.0789
     37 O         -21.1790  -11.6605  -15.7948 O.2     1  UNL1       -0.2897
@<TRIPOS>BOND
     1    29    30    1
     2    30    19    1
     3    19    20   ar
     4    20    21   ar
     5    21    22   ar
     6    22    23   ar
     7    23    24   ar
     8    24    25   ar
     9    25    26   ar
    10    26     1    1
    11     1     2    2
    12     1     3   am
    13     3     4    1
    14     4     5    1
    15     5     6    1
    16     6     7    1
    17     7     8    1
    18     6     9    1
    19     9    10    1
    20    10    11   ar
    21    11    12   ar
    22    12    13   ar
    23    13    31    1
    24    31    32    1
    25    31    33    1
    26    31    34    1
    27    13    14   ar
    28    14    35    1
    29    35    36    1
    30    35    37    2
    31    11    15    1
    32    15    16    2
    33    15    17   am
    34    26    27   ar
    35    27    28   ar
    36    28    19   ar
    37    28    23   ar
    38     8     3    1
    39    14    10   ar
    40    17     6    1
    41    17    18    1
@<TRIPOS>MOLECULE
*****
 37 41 0 0 0
SMALL
GASTEIGER

@<TRIPOS>ATOM
      1 C         -26.6433   -5.0954  -13.3148 C.2     1  UNL1        0.2490
      2 O         -27.0394   -4.7716  -12.1617 O.2     1  UNL1       -0.2699
      3 N         -25.5745   -6.0500  -13.4547 N.am    1  UNL1       -0.2760
      4 C         -24.5400   -6.1332  -12.4172 C.3     1  UNL1        0.0954
      5 C         -23.2049   -6.5502  -13.0438 C.3     1  UNL1        0.0399
      6 C         -23.2932   -7.8656  -13.8965 C.3     1  UNL1        0.0645
      7 C         -24.7722   -8.2965  -14.1259 C.3     1  UNL1        0.0399
      8 C         -25.6687   -7.1040  -14.4770 C.3     1  UNL1        0.0954
      9 C         -22.5425   -9.0195  -13.1400 C.3     1  UNL1        0.0478
     10 C         -22.2586  -10.1724  -14.0583 C.ar    1  UNL1        0.0233
     11 C         -22.0448  -10.0169  -15.3894 C.ar    1  UNL1        0.1516
     12 N         -21.6880  -11.1813  -15.9537 N.ar    1  UNL1       -0.1650
     13 N         -21.6452  -12.0997  -14.9902 N.ar    1  UNL1       -0.2520
     14 C         -21.9954  -11.5049  -13.8090 C.ar    1  UNL1        0.1100
     15 C         -22.1932   -8.7194  -16.0299 C.2     1  UNL1        0.2650
     16 O         -21.9054   -8.5519  -17.2444 O.2     1  UNL1       -0.2684
     17 N         -22.6739   -7.6296  -15.2263 N.am    1  UNL1       -0.3023
     18 H         -22.7963   -6.7038  -15.6962 H       1  UNL1        0.1497
     19 C         -30.7188   -3.6823  -15.7549 C.ar    1  UNL1        0.2248
     20 N         -31.2827   -3.1086  -16.8552 N.ar    1  UNL1       -0.2101
     21 C         -30.5374   -2.6321  -17.8861 C.ar    1  UNL1        0.1021
     22 C         -29.1461   -2.7188  -17.8450 C.ar    1  UNL1        0.0209
     23 C         -28.5262   -3.3017  -16.7331 C.ar    1  UNL1        0.0060
     24 C         -27.1295   -3.3973  -16.6641 C.ar    1  UNL1        0.0003
     25 C         -26.5185   -3.9807  -15.5522 C.ar    1  UNL1        0.0045
     26 C         -27.2929   -4.4879  -14.4968 C.ar    1  UNL1        0.0537
     27 C         -28.6923   -4.3776  -14.5532 C.ar    1  UNL1        0.0092
     28 C         -29.3176   -3.7926  -15.6685 C.ar    1  UNL1        0.0534
     29 C         -32.6100   -3.4102  -14.1751 C.3     1  UNL1        0.2542
     30 O         -31.5287   -4.1591  -14.7168 O.3     1  UNL1       -0.4561
     31 C         -21.2702  -13.5119  -15.2595 C.3     1  UNL1        0.0867
     32 C         -19.9477  -13.8871  -14.5531 C.3     1  UNL1        0.0244
     33 C         -22.4062  -14.4449  -14.8035 C.3     1  UNL1        0.0244
     34 C         -21.0589  -13.7194  -16.7792 C.3     1  UNL1        0.0244
     35 C         -22.0517  -12.1295  -12.4755 C.2     1  UNL1        0.1903
     36 C         -20.8248  -12.2200  -11.6259 C.3     1  UNL1        0.0789
     37 O         -23.1532  -12.5204  -12.0087 O.2     1  UNL1       -0.2897
@<TRIPOS>BOND
     1    29    30    1
     2    30    19    1
     3    19    20   ar
     4    20    21   ar
     5    21    22   ar
     6    22    23   ar
     7    23    24   ar
     8    24    25   ar
     9    25    26   ar
    10    26     1    1
    11     1     2    2
    12     1     3   am
    13     3     4    1
    14     4     5    1
    15     5     6    1
    16     6     7    1
    17     7     8    1
    18     6     9    1
    19     9    10    1
    20    10    11   ar
    21    11    12   ar
    22    12    13   ar
    23    13    31    1
    24    31    32    1
    25    31    33    1
    26    31    34    1
    27    13    14   ar
    28    14    35    1
    29    35    36    1
    30    35    37    2
    31    11    15    1
    32    15    16    2
    33    15    17   am
    34    26    27   ar
    35    27    28   ar
    36    28    19   ar
    37    28    23   ar
    38     8     3    1
    39    14    10   ar
    40    17     6    1
    41    17    18    1
@<TRIPOS>MOLECULE
*****
 37 41 0 0 0
SMALL
GASTEIGER

@<TRIPOS>ATOM
      1 C         -22.6741   -8.4635  -16.0158 C.2     1  UNL1        0.2490
      2 O         -22.1313   -9.0539  -16.9897 O.2     1  UNL1       -0.2699
      3 N         -22.3504   -8.8680  -14.6724 N.am    1  UNL1       -0.2760
      4 C         -21.9923  -10.2658  -14.4054 C.3     1  UNL1        0.0954
      5 C         -22.4380  -10.6581  -12.9925 C.3     1  UNL1        0.0399
      6 C         -21.9111   -9.6896  -11.8746 C.3     1  UNL1        0.0645
      7 C         -21.2780   -8.4051  -12.4869 C.3     1  UNL1        0.0399
      8 C         -22.1184   -7.8456  -13.6400 C.3     1  UNL1        0.0954
      9 C         -20.8208  -10.4333  -11.0227 C.3     1  UNL1        0.0478
     10 C         -20.5659   -9.7179   -9.7280 C.ar    1  UNL1        0.0233
     11 C         -21.5210   -9.0006   -9.0838 C.ar    1  UNL1        0.1516
     12 N         -21.0733   -8.5730   -7.8929 N.ar    1  UNL1       -0.1650
     13 N         -19.8304   -9.0273   -7.7427 N.ar    1  UNL1       -0.2520
     14 C         -19.4902   -9.7360   -8.8624 C.ar    1  UNL1        0.1100
     15 C         -22.8318   -8.7874   -9.6771 C.2     1  UNL1        0.2650
     16 O         -23.7502   -8.2033   -9.0436 O.2     1  UNL1       -0.2684
     17 N         -23.0470   -9.2733  -11.0120 N.am    1  UNL1       -0.3023
     18 H         -23.9849   -9.1010  -11.4406 H       1  UNL1        0.1497
     19 C         -26.4451   -5.5798  -14.5929 C.ar    1  UNL1        0.2248
     20 N         -27.3021   -4.5560  -14.8672 N.ar    1  UNL1       -0.2101
     21 C         -27.2609   -3.8711  -16.0396 C.ar    1  UNL1        0.1021
     22 C         -26.3205   -4.2042  -17.0141 C.ar    1  UNL1        0.0209
     23 C         -25.4215   -5.2502  -16.7730 C.ar    1  UNL1        0.0060
     24 C         -24.4633   -5.6025  -17.7335 C.ar    1  UNL1        0.0003
     25 C         -23.5707   -6.6474  -17.4861 C.ar    1  UNL1        0.0045
     26 C         -23.6279   -7.3643  -16.2805 C.ar    1  UNL1        0.0537
     27 C         -24.5745   -7.0027  -15.3074 C.ar    1  UNL1        0.0092
     28 C         -25.4785   -5.9527  -15.5467 C.ar    1  UNL1        0.0534
     29 C         -26.2801   -5.6237  -12.1196 C.3     1  UNL1        0.2542
     30 O         -26.5260   -6.2566  -13.3696 O.3     1  UNL1       -0.4561
     31 C         -19.0290   -8.7506   -6.5226 C.3     1  UNL1        0.0867
     32 C         -18.0051   -9.8769   -6.2550 C.3     1  UNL1        0.0244
     33 C         -18.3118   -7.3968   -6.6707 C.3     1  UNL1        0.0244
     34 C         -19.9606   -8.6684   -5.2888 C.3     1  UNL1        0.0244
     35 C         -18.2252  -10.4466   -9.1208 C.2     1  UNL1        0.1903
     36 C         -18.1782  -11.9408   -9.1182 C.3     1  UNL1        0.0789
     37 O         -17.1897   -9.7992   -9.4253 O.2     1  UNL1       -0.2897
@<TRIPOS>BOND
     1    29    30    1
     2    30    19    1
     3    19    20   ar
     4    20    21   ar
     5    21    22   ar
     6    22    23   ar
     7    23    24   ar
     8    24    25   ar
     9    25    26   ar
    10    26     1    1
    11     1     2    2
    12     1     3   am
    13     3     4    1
    14     4     5    1
    15     5     6    1
    16     6     7    1
    17     7     8    1
    18     6     9    1
    19     9    10    1
    20    10    11   ar
    21    11    12   ar
    22    12    13   ar
    23    13    31    1
    24    31    32    1
    25    31    33    1
    26    31    34    1
    27    13    14   ar
    28    14    35    1
    29    35    36    1
    30    35    37    2
    31    11    15    1
    32    15    16    2
    33    15    17   am
    34    26    27   ar
    35    27    28   ar
    36    28    19   ar
    37    28    23   ar
    38     8     3    1
    39    14    10   ar
    40    17     6    1
    41    17    18    1
@<TRIPOS>MOLECULE
*****
 37 41 0 0 0
SMALL
GASTEIGER

@<TRIPOS>ATOM
      1 C         -23.4285   -8.0903  -15.0914 C.2     1  UNL1        0.2490
      2 O         -22.9838   -8.6325  -16.1401 O.2     1  UNL1       -0.2699
      3 N         -22.9472   -8.5302  -13.8076 N.am    1  UNL1       -0.2760
      4 C         -22.5281   -9.9256  -13.6328 C.3     1  UNL1        0.0954
      5 C         -22.8037  -10.3770  -12.1943 C.3     1  UNL1        0.0399
      6 C         -22.1786   -9.4321  -11.1073 C.3     1  UNL1        0.0645
      7 C         -21.6488   -8.1108  -11.7390 C.3     1  UNL1        0.0399
      8 C         -22.6260   -7.5368  -12.7709 C.3     1  UNL1        0.0954
      9 C         -20.9825  -10.1731  -10.4089 C.3     1  UNL1        0.0478
     10 C         -20.6019   -9.4945   -9.1254 C.ar    1  UNL1        0.0233
     11 C         -21.4959   -8.8259   -8.3538 C.ar    1  UNL1        0.1516
     12 N         -20.9285   -8.4259   -7.2051 N.ar    1  UNL1       -0.1650
     13 N         -19.6660   -8.8502   -7.2101 N.ar    1  UNL1       -0.2520
     14 C         -19.4361   -9.5114   -8.3855 C.ar    1  UNL1        0.1100
     15 C         -22.8696   -8.6296   -8.7901 C.2     1  UNL1        0.2650
     16 O         -23.7252   -8.0928   -8.0381 O.2     1  UNL1       -0.2684
     17 N         -23.2208   -9.0765  -10.1097 N.am    1  UNL1       -0.3023
     18 H         -24.2046   -8.9162  -10.4252 H       1  UNL1        0.1497
     19 C         -25.8067   -4.6775  -17.7854 C.ar    1  UNL1        0.2248
     20 N         -26.7462   -3.6927  -17.8591 N.ar    1  UNL1       -0.2101
     21 C         -27.4959   -3.3250  -16.7877 C.ar    1  UNL1        0.1021
     22 C         -27.3206   -3.9589  -15.5579 C.ar    1  UNL1        0.0209
     23 C         -26.3654   -4.9756  -15.4384 C.ar    1  UNL1        0.0060
     24 C         -26.1722   -5.6323  -14.2152 C.ar    1  UNL1        0.0003
     25 C         -25.2170   -6.6448  -14.1036 C.ar    1  UNL1        0.0045
     26 C         -24.4320   -7.0099  -15.2088 C.ar    1  UNL1        0.0537
     27 C         -24.6350   -6.3672  -16.4414 C.ar    1  UNL1        0.0092
     28 C         -25.5936   -5.3459  -16.5644 C.ar    1  UNL1        0.0534
     29 C         -25.3151   -6.1907  -19.6867 C.3     1  UNL1        0.2542
     30 O         -25.0580   -5.0220  -18.9175 O.3     1  UNL1       -0.4561
     31 C         -18.7402   -8.5921   -6.0770 C.3     1  UNL1        0.0867
     32 C         -17.8035   -9.7965   -5.8308 C.3     1  UNL1        0.0244
     33 C         -17.9187   -7.3215   -6.3593 C.3     1  UNL1        0.0244
     34 C         -19.5503   -8.3618   -4.7778 C.3     1  UNL1        0.0244
     35 C         -18.1912  -10.1775   -8.8080 C.2     1  UNL1        0.1903
     36 C         -17.8797  -11.5668   -8.3522 C.3     1  UNL1        0.0789
     37 O         -17.4178   -9.6094   -9.6223 O.2     1  UNL1       -0.2897
@<TRIPOS>BOND
     1    29    30    1
     2    30    19    1
     3    19    20   ar
     4    20    21   ar
     5    21    22   ar
     6    22    23   ar
     7    23    24   ar
     8    24    25   ar
     9    25    26   ar
    10    26     1    1
    11     1     2    2
    12     1     3   am
    13     3     4    1
    14     4     5    1
    15     5     6    1
    16     6     7    1
    17     7     8    1
    18     6     9    1
    19     9    10    1
    20    10    11   ar
    21    11    12   ar
    22    12    13   ar
    23    13    31    1
    24    31    32    1
    25    31    33    1
    26    31    34    1
    27    13    14   ar
    28    14    35    1
    29    35    36    1
    30    35    37    2
    31    11    15    1
    32    15    16    2
    33    15    17   am
    34    26    27   ar
    35    27    28   ar
    36    28    19   ar
    37    28    23   ar
    38     8     3    1
    39    14    10   ar
    40    17     6    1
    41    17    18    1
@<TRIPOS>MOLECULE
*****
 37 41 0 0 0
SMALL
GASTEIGER

@<TRIPOS>ATOM
      1 C         -19.0789   -7.2232   -7.8379 C.2     1  UNL1        0.2490
      2 O         -18.3465   -6.2692   -8.2188 O.2     1  UNL1       -0.2699
      3 N         -20.1564   -7.6699   -8.6820 N.am    1  UNL1       -0.2760
      4 C         -20.8295   -6.7089   -9.5634 C.3     1  UNL1        0.0954
      5 C         -22.2987   -7.1061   -9.7434 C.3     1  UNL1        0.0399
      6 C         -22.4960   -8.5876  -10.2248 C.3     1  UNL1        0.0645
      7 C         -21.1637   -9.3911  -10.1529 C.3     1  UNL1        0.0399
      8 C         -20.3948   -9.1113   -8.8570 C.3     1  UNL1        0.0954
      9 C         -23.0025   -8.5814  -11.7117 C.3     1  UNL1        0.0478
     10 C         -23.5714   -9.9167  -12.0942 C.ar    1  UNL1        0.0233
     11 C         -24.1754  -10.7416  -11.2019 C.ar    1  UNL1        0.1516
     12 N         -24.7068  -11.8068  -11.8219 N.ar    1  UNL1       -0.1650
     13 N         -24.4720  -11.6727  -13.1260 N.ar    1  UNL1       -0.2520
     14 C         -23.7701  -10.5150  -13.3228 C.ar    1  UNL1        0.1100
     15 C         -24.2053  -10.4242   -9.7826 C.2     1  UNL1        0.2650
     16 O         -24.8443  -11.1380   -8.9653 O.2     1  UNL1       -0.2684
     17 N         -23.4847   -9.2612   -9.3438 N.am    1  UNL1       -0.3023
     18 H         -23.4940   -9.0482   -8.3202 H       1  UNL1        0.1497
     19 C         -18.8953   -7.0340   -2.8890 C.ar    1  UNL1        0.2248
     20 N         -18.6445   -7.6586   -1.7037 N.ar    1  UNL1       -0.2101
     21 C         -18.2435   -8.9547   -1.6385 C.ar    1  UNL1        0.1021
     22 C         -18.0744   -9.6966   -2.8072 C.ar    1  UNL1        0.0209
     23 C         -18.3207   -9.0931   -4.0464 C.ar    1  UNL1        0.0060
     24 C         -18.1630   -9.8172   -5.2361 C.ar    1  UNL1        0.0003
     25 C         -18.4098   -9.2082   -6.4682 C.ar    1  UNL1        0.0045
     26 C         -18.8071   -7.8632   -6.5323 C.ar    1  UNL1        0.0537
     27 C         -18.9843   -7.1389   -5.3417 C.ar    1  UNL1        0.0092
     28 C         -18.7378   -7.7424   -4.0958 C.ar    1  UNL1        0.0534
     29 C         -19.6328   -4.9733   -1.7245 C.3     1  UNL1        0.2542
     30 O         -19.3070   -5.6957   -2.9059 O.3     1  UNL1       -0.4561
     31 C         -24.9357  -12.6745  -14.1205 C.3     1  UNL1        0.0867
     32 C         -25.8794  -13.7136  -13.4737 C.3     1  UNL1        0.0244
     33 C         -25.6427  -11.9584  -15.2851 C.3     1  UNL1        0.0244
     34 C         -23.7224  -13.4451  -14.6959 C.3     1  UNL1        0.0244
     35 C         -23.3236   -9.9474  -14.6075 C.2     1  UNL1        0.1903
     36 C         -22.0314  -10.3805  -15.2220 C.3     1  UNL1        0.0789
     37 O         -24.0677   -9.1511  -15.2370 O.2     1  UNL1       -0.2897
@<TRIPOS>BOND
     1    29    30    1
     2    30    19    1
     3    19    20   ar
     4    20    21   ar
     5    21    22   ar
     6    22    23   ar
     7    23    24   ar
     8    24    25   ar
     9    25    26   ar
    10    26     1    1
    11     1     2    2
    12     1     3   am
    13     3     4    1
    14     4     5    1
    15     5     6    1
    16     6     7    1
    17     7     8    1
    18     6     9    1
    19     9    10    1
    20    10    11   ar
    21    11    12   ar
    22    12    13   ar
    23    13    31    1
    24    31    32    1
    25    31    33    1
    26    31    34    1
    27    13    14   ar
    28    14    35    1
    29    35    36    1
    30    35    37    2
    31    11    15    1
    32    15    16    2
    33    15    17   am
    34    26    27   ar
    35    27    28   ar
    36    28    19   ar
    37    28    23   ar
    38     8     3    1
    39    14    10   ar
    40    17     6    1
    41    17    18    1
@<TRIPOS>MOLECULE
*****
 37 41 0 0 0
SMALL
GASTEIGER

@<TRIPOS>ATOM
      1 C         -26.9444   -5.1935  -13.1212 C.2     1  UNL1        0.2490
      2 O         -27.2489   -4.8388  -11.9494 O.2     1  UNL1       -0.2699
      3 N         -25.8614   -6.1209  -13.3217 N.am    1  UNL1       -0.2760
      4 C         -24.7383   -6.1350  -12.3774 C.3     1  UNL1        0.0954
      5 C         -23.4500   -6.5355  -13.1045 C.3     1  UNL1        0.0399
      6 C         -23.5694   -7.8838  -13.9003 C.3     1  UNL1        0.0645
      7 C         -25.0479   -8.3662  -13.9833 C.3     1  UNL1        0.0399
      8 C         -26.0099   -7.2145  -14.2949 C.3     1  UNL1        0.0954
      9 C         -22.7184   -8.9863  -13.1736 C.3     1  UNL1        0.0478
     10 C         -22.4783  -10.1636  -14.0731 C.ar    1  UNL1        0.0233
     11 C         -22.3865  -10.0516  -15.4224 C.ar    1  UNL1        0.1516
     12 N         -22.0425  -11.2251  -15.9756 N.ar    1  UNL1       -0.1650
     13 N         -21.8860  -12.1054  -14.9885 N.ar    1  UNL1       -0.2520
     14 C         -22.1512  -11.4776  -13.8022 C.ar    1  UNL1        0.1100
     15 C         -22.6322   -8.7837  -16.0917 C.2     1  UNL1        0.2650
     16 O         -22.4569   -8.6532  -17.3319 O.2     1  UNL1       -0.2684
     17 N         -23.0763   -7.6794  -15.2869 N.am    1  UNL1       -0.3023
     18 H         -23.2692   -6.7757  -15.7758 H       1  UNL1        0.1497
     19 C         -27.1806   -3.6156  -17.8131 C.ar    1  UNL1        0.2248
     20 N         -27.9227   -3.1234  -18.8451 N.ar    1  UNL1       -0.2101
     21 C         -29.2547   -2.8833  -18.7296 C.ar    1  UNL1        0.1021
     22 C         -29.9122   -3.1397  -17.5267 C.ar    1  UNL1        0.0209
     23 C         -29.1869   -3.6453  -16.4409 C.ar    1  UNL1        0.0060
     24 C         -29.8239   -3.9162  -15.2221 C.ar    1  UNL1        0.0003
     25 C         -29.0938   -4.4195  -14.1435 C.ar    1  UNL1        0.0045
     26 C         -27.7139   -4.6498  -14.2614 C.ar    1  UNL1        0.0537
     27 C         -27.0748   -4.3971  -15.4867 C.ar    1  UNL1        0.0092
     28 C         -27.8005   -3.8895  -16.5788 C.ar    1  UNL1        0.0534
     29 C         -25.2889   -5.0742  -18.4768 C.3     1  UNL1        0.2542
     30 O         -25.8097   -3.8471  -17.9801 O.3     1  UNL1       -0.4561
     31 C         -21.4902  -13.5151  -15.2410 C.3     1  UNL1        0.0867
     32 C         -20.1755  -13.8695  -14.5099 C.3     1  UNL1        0.0244
     33 C         -22.6227  -14.4580  -14.7969 C.3     1  UNL1        0.0244
     34 C         -21.2512  -13.7311  -16.7554 C.3     1  UNL1        0.0244
     35 C         -22.0707  -12.0536  -12.4482 C.2     1  UNL1        0.1903
     36 C         -20.7720  -12.0773  -11.7079 C.3     1  UNL1        0.0789
     37 O         -23.1142  -12.4582  -11.8725 O.2     1  UNL1       -0.2897
@<TRIPOS>BOND
     1    29    30    1
     2    30    19    1
     3    19    20   ar
     4    20    21   ar
     5    21    22   ar
     6    22    23   ar
     7    23    24   ar
     8    24    25   ar
     9    25    26   ar
    10    26     1    1
    11     1     2    2
    12     1     3   am
    13     3     4    1
    14     4     5    1
    15     5     6    1
    16     6     7    1
    17     7     8    1
    18     6     9    1
    19     9    10    1
    20    10    11   ar
    21    11    12   ar
    22    12    13   ar
    23    13    31    1
    24    31    32    1
    25    31    33    1
    26    31    34    1
    27    13    14   ar
    28    14    35    1
    29    35    36    1
    30    35    37    2
    31    11    15    1
    32    15    16    2
    33    15    17   am
    34    26    27   ar
    35    27    28   ar
    36    28    19   ar
    37    28    23   ar
    38     8     3    1
    39    14    10   ar
    40    17     6    1
    41    17    18    1
@<TRIPOS>MOLECULE
*****
 37 41 0 0 0
SMALL
GASTEIGER

@<TRIPOS>ATOM
      1 C         -24.1727  -11.1218  -11.5424 C.2     1  UNL1        0.2490
      2 O         -25.1118  -11.9095  -11.2438 O.2     1  UNL1       -0.2699
      3 N         -23.5048  -10.3879  -10.4991 N.am    1  UNL1       -0.2760
      4 C         -24.2494  -10.0073   -9.2933 C.3     1  UNL1        0.0954
      5 C         -23.7039   -8.6871   -8.7380 C.3     1  UNL1        0.0399
      6 C         -22.1528   -8.6995   -8.4948 C.3     1  UNL1        0.0645
      7 C         -21.4886   -9.9603   -9.1233 C.3     1  UNL1        0.0399
      8 C         -22.0390  -10.2612  -10.5216 C.3     1  UNL1        0.0954
      9 C         -21.8751   -8.6999   -6.9487 C.3     1  UNL1        0.0478
     10 C         -20.4518   -8.3244   -6.6553 C.ar    1  UNL1        0.0233
     11 C         -19.7332   -7.4893   -7.4477 C.ar    1  UNL1        0.1516
     12 N         -18.5402   -7.2180   -6.8957 N.ar    1  UNL1       -0.1650
     13 N         -18.4815   -7.8570   -5.7287 N.ar    1  UNL1       -0.2520
     14 C         -19.6480   -8.5505   -5.5555 C.ar    1  UNL1        0.1100
     15 C         -20.2721   -6.9937   -8.7046 C.2     1  UNL1        0.2650
     16 O         -19.6477   -6.1465   -9.3960 O.2     1  UNL1       -0.2684
     17 N         -21.5481   -7.4996   -9.1292 N.am    1  UNL1       -0.3023
     18 H         -21.9221   -7.1542  -10.0423 H       1  UNL1        0.1497
     19 C         -22.3534  -13.0324  -15.7377 C.ar    1  UNL1        0.2248
     20 N         -22.0087  -12.8644  -17.0457 N.ar    1  UNL1       -0.2101
     21 C         -22.1633  -11.6781  -17.6891 C.ar    1  UNL1        0.1021
     22 C         -22.6902  -10.5773  -17.0142 C.ar    1  UNL1        0.0209
     23 C         -23.0567  -10.7064  -15.6690 C.ar    1  UNL1        0.0060
     24 C         -23.5930   -9.6173  -14.9684 C.ar    1  UNL1        0.0003
     25 C         -23.9554   -9.7535  -13.6268 C.ar    1  UNL1        0.0045
     26 C         -23.7777  -10.9764  -12.9605 C.ar    1  UNL1        0.0537
     27 C         -23.2579  -12.0758  -13.6637 C.ar    1  UNL1        0.0092
     28 C         -22.8890  -11.9491  -15.0147 C.ar    1  UNL1        0.0534
     29 C         -23.0905  -15.3532  -15.2720 C.3     1  UNL1        0.2542
     30 O         -22.1756  -14.2750  -15.1171 O.3     1  UNL1       -0.4561
     31 C         -17.2961   -7.7687   -4.8372 C.3     1  UNL1        0.0867
     32 C         -16.5508   -9.1202   -4.7572 C.3     1  UNL1        0.0244
     33 C         -16.3512   -6.6631   -5.3409 C.3     1  UNL1        0.0244
     34 C         -17.7440   -7.4008   -3.4015 C.3     1  UNL1        0.0244
     35 C         -20.0367   -9.3707   -4.3944 C.2     1  UNL1        0.1903
     36 C         -21.2308   -9.0066   -3.5718 C.3     1  UNL1        0.0789
     37 O         -19.4111  -10.4315   -4.1346 O.2     1  UNL1       -0.2897
@<TRIPOS>BOND
     1    29    30    1
     2    30    19    1
     3    19    20   ar
     4    20    21   ar
     5    21    22   ar
     6    22    23   ar
     7    23    24   ar
     8    24    25   ar
     9    25    26   ar
    10    26     1    1
    11     1     2    2
    12     1     3   am
    13     3     4    1
    14     4     5    1
    15     5     6    1
    16     6     7    1
    17     7     8    1
    18     6     9    1
    19     9    10    1
    20    10    11   ar
    21    11    12   ar
    22    12    13   ar
    23    13    31    1
    24    31    32    1
    25    31    33    1
    26    31    34    1
    27    13    14   ar
    28    14    35    1
    29    35    36    1
    30    35    37    2
    31    11    15    1
    32    15    16    2
    33    15    17   am
    34    26    27   ar
    35    27    28   ar
    36    28    19   ar
    37    28    23   ar
    38     8     3    1
    39    14    10   ar
    40    17     6    1
    41    17    18    1
