@<TRIPOS>MOLECULE
*****
 59 63 0 0 0
SMALL
GASTEIGER

@<TRIPOS>ATOM
      1 C         -18.6722   -9.4643   -7.2590 C.ar    1  UNL1        0.0548
      2 C         -18.1469  -10.5172   -8.0274 C.ar    1  UNL1        0.0077
      3 C         -18.4897  -10.6502   -9.3758 C.ar    1  UNL1        0.0390
      4 C         -19.3499   -9.7335   -9.9884 C.ar    1  UNL1        0.1598
      5 C         -19.8426   -8.6420   -9.2350 C.ar    1  UNL1        0.0993
      6 C         -19.5271   -8.5374   -7.8749 C.ar    1  UNL1        0.0235
      7 N         -18.6969   -8.1098   -5.1053 N.am    1  UNL1       -0.3040
      8 C         -18.2824   -9.2777   -5.8403 C.2     1  UNL1        0.2458
      9 O         -17.5700  -10.1554   -5.2821 O.2     1  UNL1       -0.2701
     10 H         -19.0467   -7.2952   -5.6590 H       1  UNL1        0.1496
     11 C         -18.9396   -6.5225   -3.2439 C.3     1  UNL1        0.0196
     12 C         -18.6654   -7.9897   -3.6339 C.3     1  UNL1        0.0572
     13 C         -19.7590   -8.8752   -3.0046 C.3     1  UNL1        0.0196
     14 C         -17.2778   -8.3881   -3.0935 C.3     1  UNL1        0.0196
     15 N         -20.5781   -7.5843   -9.8547 N.pl3   1  UNL1       -0.2120
     16 H         -20.2969   -7.2357  -10.7962 H       1  UNL1        0.1738
     17 S         -22.0440   -6.9975   -9.1468 S.O2    1  UNL1        0.0745
     18 O         -21.7727   -5.6777   -8.4811 O.2     1  UNL1       -0.1499
     19 O         -22.5211   -7.9570   -8.0936 O.2     1  UNL1       -0.1499
     20 C         -23.2541   -6.7745  -10.4184 C.ar    1  UNL1        0.1356
     21 C         -23.0381   -5.7746  -11.3754 C.ar    1  UNL1        0.0207
     22 C         -23.9007   -5.6310  -12.4628 C.ar    1  UNL1       -0.0028
     23 C         -24.9981   -6.4876  -12.6270 C.ar    1  UNL1       -0.0208
     24 C         -25.2209   -7.4908  -11.6609 C.ar    1  UNL1        0.0085
     25 C         -24.3606   -7.6388  -10.5664 C.ar    1  UNL1        0.0762
     26 CL        -24.6845   -8.9609   -9.4490 Cl      1  UNL1       -0.0809
     27 C         -25.8678   -6.2918  -13.8578 C.3     1  UNL1        0.0328
     28 C         -27.3684   -6.4736  -13.6670 C.3     1  UNL1        0.0159
     29 C         -26.7913   -5.0795  -13.8927 C.3     1  UNL1        0.0572
     30 I         -27.1396   -4.3094  -15.8596 I       1  UNL1       -0.0750
     31 O         -19.6707   -9.9264  -11.3427 O.3     1  UNL1       -0.4513
     32 C         -20.9775   -9.8813  -11.8387 C.ar    1  UNL1        0.1580
     33 C         -21.8647  -10.9089  -11.5044 C.ar    1  UNL1        0.0677
     34 C         -23.1131  -10.9918  -12.1263 C.ar    1  UNL1        0.1398
     35 F         -23.9185  -12.0508  -11.8583 F       1  UNL1       -0.2044
     36 C         -23.4995  -10.0196  -13.0662 C.ar    1  UNL1        0.0175
     37 C         -22.6430   -8.9392  -13.3311 C.ar    1  UNL1        0.0130
     38 C         -21.3941   -8.8565  -12.7091 C.ar    1  UNL1        0.0919
     39 CL        -20.3586   -7.4800  -13.0603 Cl      1  UNL1       -0.0791
     40 C         -24.7471  -10.2045  -13.8870 C.3     1  UNL1        0.1382
     41 C         -24.3816  -10.3862  -15.3288 C.2     1  UNL1        0.3234
     42 O         -23.6985   -9.5032  -15.9147 O.2     1  UNL1       -0.2497
     43 O         -24.8058  -11.5361  -16.0088 O.3     1  UNL1       -0.4215
     44 C         -23.9202  -12.5014  -16.5784 C.3     1  UNL1        0.3207
     45 O         -24.5927  -13.7522  -16.6932 O.3     1  UNL1       -0.3070
     46 C         -24.5377  -14.5673  -15.5305 C.3     1  UNL1        0.2456
     47 C         -23.0795  -14.9053  -15.0924 C.3     1  UNL1        0.1781
     48 O         -22.7754  -16.2557  -15.3461 O.3     1  UNL1       -0.3790
     49 C         -22.0482  -13.9934  -15.7789 C.3     1  UNL1        0.1733
     50 O         -20.8346  -14.0556  -15.0732 O.3     1  UNL1       -0.3793
     51 C         -22.5796  -12.5587  -15.7970 C.3     1  UNL1        0.2106
     52 O         -21.6306  -11.7208  -16.4082 O.3     1  UNL1       -0.3766
     53 H         -22.8742  -16.4085  -16.3227 H       1  UNL1        0.2106
     54 H         -20.1185  -13.7800  -15.7033 H       1  UNL1        0.2105
     55 H         -21.6917  -10.8359  -15.9631 H       1  UNL1        0.2107
     56 C         -25.3924  -14.0220  -14.4101 C.2     1  UNL1        0.3439
     57 O         -25.1728  -14.3444  -13.2115 O.2     1  UNL1       -0.2475
     58 O         -26.4369  -13.1516  -14.7063 O.3     1  UNL1       -0.4785
     59 H         -27.0283  -12.7807  -13.9731 H       1  UNL1        0.2951
@<TRIPOS>BOND
     1    11    12    1
     2    12    13    1
     3    12    14    1
     4    12     7    1
     5     7     8   am
     6     8     9    2
     7     8     1    1
     8     1     2   ar
     9     2     3   ar
    10     3     4   ar
    11     4    31    1
    12    31    32    1
    13    32    33   ar
    14    33    34   ar
    15    34    35    1
    16    34    36   ar
    17    36    40    1
    18    40    41    1
    19    41    42    2
    20    41    43    1
    21    43    44    1
    22    44    45    1
    23    45    46    1
    24    46    56    1
    25    56    57    2
    26    56    58    1
    27    46    47    1
    28    47    48    1
    29    47    49    1
    30    49    50    1
    31    49    51    1
    32    51    52    1
    33    36    37   ar
    34    37    38   ar
    35    38    39    1
    36     4     5   ar
    37     5    15    1
    38    15    17    1
    39    17    18    2
    40    17    19    2
    41    17    20    1
    42    20    21   ar
    43    21    22   ar
    44    22    23   ar
    45    23    27    1
    46    27    28    1
    47    28    29    1
    48    29    30    1
    49    23    24   ar
    50    24    25   ar
    51    25    26    1
    52     5     6   ar
    53     6     1   ar
    54    38    32   ar
    55    25    20   ar
    56    51    44    1
    57    29    27    1
    58     7    10    1
    59    58    59    1
    60    48    53    1
    61    50    54    1
    62    52    55    1
    63    15    16    1
@<TRIPOS>MOLECULE
*****
 59 63 0 0 0
SMALL
GASTEIGER

@<TRIPOS>ATOM
      1 C         -18.9699   -8.4614   -6.2004 C.ar    1  UNL1        0.0548
      2 C         -18.1117   -9.5023   -6.5941 C.ar    1  UNL1        0.0077
      3 C         -18.2978  -10.1497   -7.8187 C.ar    1  UNL1        0.0390
      4 C         -19.3312   -9.7670   -8.6796 C.ar    1  UNL1        0.1598
      5 C         -20.1679   -8.6865   -8.3134 C.ar    1  UNL1        0.0993
      6 C         -20.0008   -8.0690   -7.0680 C.ar    1  UNL1        0.0235
      7 N         -19.7495   -7.7622   -3.8815 N.am    1  UNL1       -0.3040
      8 C         -18.7593   -7.7297   -4.9278 C.2     1  UNL1        0.2458
      9 O         -17.6991   -7.0651   -4.7735 O.2     1  UNL1       -0.2701
     10 H         -20.7081   -8.0888   -4.1401 H       1  UNL1        0.1496
     11 C         -20.7597   -7.6811   -1.6419 C.3     1  UNL1        0.0196
     12 C         -19.5010   -7.3730   -2.4790 C.3     1  UNL1        0.0572
     13 C         -18.3215   -8.1816   -1.9037 C.3     1  UNL1        0.0196
     14 C         -19.2097   -5.8622   -2.3860 C.3     1  UNL1        0.0196
     15 N         -21.1212   -8.1425   -9.2295 N.pl3   1  UNL1       -0.2120
     16 H         -20.7971   -7.5927  -10.0539 H       1  UNL1        0.1738
     17 S         -22.8000   -8.5396   -9.0939 S.O2    1  UNL1        0.0745
     18 O         -23.3611   -7.8832   -7.8639 O.2     1  UNL1       -0.1499
     19 O         -22.9614  -10.0254   -8.9394 O.2     1  UNL1       -0.1499
     20 C         -23.6558   -7.9382  -10.5212 C.ar    1  UNL1        0.1356
     21 C         -24.6163   -8.7642  -11.1190 C.ar    1  UNL1        0.0207
     22 C         -25.3995   -8.2972  -12.1751 C.ar    1  UNL1       -0.0028
     23 C         -25.2490   -6.9896  -12.6574 C.ar    1  UNL1       -0.0208
     24 C         -24.2777   -6.1586  -12.0611 C.ar    1  UNL1        0.0085
     25 C         -23.4872   -6.6218  -11.0026 C.ar    1  UNL1        0.0762
     26 CL        -22.3472   -5.4895  -10.2816 Cl      1  UNL1       -0.0809
     27 C         -26.1662   -6.5432  -13.7839 C.3     1  UNL1        0.0328
     28 C         -27.5750   -6.1197  -13.3876 C.3     1  UNL1        0.0159
     29 C         -26.5624   -5.0723  -13.8404 C.3     1  UNL1        0.0572
     30 I         -26.9055   -4.3408  -15.8228 I       1  UNL1       -0.0750
     31 O         -19.4790  -10.4638   -9.8908 O.3     1  UNL1       -0.4513
     32 C         -20.0315   -9.8964  -11.0434 C.ar    1  UNL1        0.1580
     33 C         -19.7861   -8.5478  -11.3190 C.ar    1  UNL1        0.0677
     34 C         -20.4675   -7.9055  -12.3559 C.ar    1  UNL1        0.1398
     35 F         -20.2859   -6.5736  -12.5438 F       1  UNL1       -0.2044
     36 C         -21.3780   -8.6223  -13.1528 C.ar    1  UNL1        0.0175
     37 C         -21.5531   -9.9974  -12.9310 C.ar    1  UNL1        0.0130
     38 C         -20.8717  -10.6399  -11.8936 C.ar    1  UNL1        0.0919
     39 CL        -21.1110  -12.3656  -11.6594 Cl      1  UNL1       -0.0791
     40 C         -22.2626   -7.9038  -14.1357 C.3     1  UNL1        0.1382
     41 C         -22.3406   -8.6860  -15.4114 C.2     1  UNL1        0.3234
     42 O         -21.4675   -8.5116  -16.3040 O.2     1  UNL1       -0.2497
     43 O         -23.3856   -9.6016  -15.5968 O.3     1  UNL1       -0.4215
     44 C         -23.2938  -10.7646  -16.4210 C.3     1  UNL1        0.3207
     45 O         -24.5614  -11.4134  -16.4684 O.3     1  UNL1       -0.3070
     46 C         -24.8012  -12.3311  -15.4104 C.3     1  UNL1        0.2456
     47 C         -23.7400  -13.4721  -15.3420 C.3     1  UNL1        0.1781
     48 O         -24.2903  -14.6999  -15.7543 O.3     1  UNL1       -0.3790
     49 C         -22.4913  -13.1452  -16.1786 C.3     1  UNL1        0.1733
     50 O         -21.4338  -13.9779  -15.7749 O.3     1  UNL1       -0.3793
     51 C         -22.1190  -11.6755  -15.9723 C.3     1  UNL1        0.2106
     52 O         -20.9675  -11.3795  -16.7225 O.3     1  UNL1       -0.3766
     53 H         -24.6028  -14.5907  -16.6909 H       1  UNL1        0.2106
     54 H         -20.7907  -14.0169  -16.5303 H       1  UNL1        0.2105
     55 H         -20.4528  -10.7010  -16.2130 H       1  UNL1        0.2107
     56 C         -25.0217  -11.6333  -14.0884 C.2     1  UNL1        0.3439
     57 O         -24.5772  -12.1225  -13.0151 O.2     1  UNL1       -0.2475
     58 O         -25.7258  -10.4335  -14.0560 O.3     1  UNL1       -0.4785
     59 H         -25.8935   -9.9527  -13.1809 H       1  UNL1        0.2951
@<TRIPOS>BOND
     1    11    12    1
     2    12    13    1
     3    12    14    1
     4    12     7    1
     5     7     8   am
     6     8     9    2
     7     8     1    1
     8     1     2   ar
     9     2     3   ar
    10     3     4   ar
    11     4    31    1
    12    31    32    1
    13    32    33   ar
    14    33    34   ar
    15    34    35    1
    16    34    36   ar
    17    36    40    1
    18    40    41    1
    19    41    42    2
    20    41    43    1
    21    43    44    1
    22    44    45    1
    23    45    46    1
    24    46    56    1
    25    56    57    2
    26    56    58    1
    27    46    47    1
    28    47    48    1
    29    47    49    1
    30    49    50    1
    31    49    51    1
    32    51    52    1
    33    36    37   ar
    34    37    38   ar
    35    38    39    1
    36     4     5   ar
    37     5    15    1
    38    15    17    1
    39    17    18    2
    40    17    19    2
    41    17    20    1
    42    20    21   ar
    43    21    22   ar
    44    22    23   ar
    45    23    27    1
    46    27    28    1
    47    28    29    1
    48    29    30    1
    49    23    24   ar
    50    24    25   ar
    51    25    26    1
    52     5     6   ar
    53     6     1   ar
    54    38    32   ar
    55    25    20   ar
    56    51    44    1
    57    29    27    1
    58     7    10    1
    59    58    59    1
    60    48    53    1
    61    50    54    1
    62    52    55    1
    63    15    16    1
@<TRIPOS>MOLECULE
*****
 59 63 0 0 0
SMALL
GASTEIGER

@<TRIPOS>ATOM
      1 C         -17.9483  -11.3519   -9.4632 C.ar    1  UNL1        0.0548
      2 C         -18.8042  -12.2830  -10.0759 C.ar    1  UNL1        0.0077
      3 C         -20.0671  -11.8930  -10.5302 C.ar    1  UNL1        0.0390
      4 C         -20.4978  -10.5694  -10.3956 C.ar    1  UNL1        0.1598
      5 C         -19.6224   -9.6151   -9.8259 C.ar    1  UNL1        0.0993
      6 C         -18.3748  -10.0208   -9.3370 C.ar    1  UNL1        0.0235
      7 N         -15.6408  -12.3119   -9.9405 N.am    1  UNL1       -0.3040
      8 C         -16.5861  -11.7344   -9.0190 C.2     1  UNL1        0.2458
      9 O         -16.2642  -11.5559   -7.8132 O.2     1  UNL1       -0.2701
     10 H         -16.0179  -12.6871  -10.8402 H       1  UNL1        0.1496
     11 C         -13.5932  -13.4846  -10.6300 C.3     1  UNL1        0.0196
     12 C         -14.1864  -12.4037   -9.7027 C.3     1  UNL1        0.0572
     13 C         -13.5087  -11.0573  -10.0256 C.3     1  UNL1        0.0196
     14 C         -13.9069  -12.8063   -8.2412 C.3     1  UNL1        0.0196
     15 N         -19.9419   -8.2216   -9.8263 N.pl3   1  UNL1       -0.2120
     16 H         -19.4178   -7.5667  -10.4455 H       1  UNL1        0.1738
     17 S         -21.3125   -7.6313   -8.9503 S.O2    1  UNL1        0.0745
     18 O         -20.9398   -6.3471   -8.2644 O.2     1  UNL1       -0.1499
     19 O         -21.7069   -8.6228   -7.8926 O.2     1  UNL1       -0.1499
     20 C         -22.6381   -7.3275  -10.0824 C.ar    1  UNL1        0.1356
     21 C         -22.4241   -6.4246  -11.1318 C.ar    1  UNL1        0.0207
     22 C         -23.3940   -6.2341  -12.1167 C.ar    1  UNL1       -0.0028
     23 C         -24.6008   -6.9466  -12.0835 C.ar    1  UNL1       -0.0208
     24 C         -24.8209   -7.8513  -11.0240 C.ar    1  UNL1        0.0085
     25 C         -23.8528   -8.0453  -10.0315 C.ar    1  UNL1        0.0762
     26 CL        -24.1924   -9.2431   -8.7858 Cl      1  UNL1       -0.0809
     27 C         -25.5897   -6.7122  -13.2135 C.3     1  UNL1        0.0328
     28 C         -27.0676   -6.7758  -12.8490 C.3     1  UNL1        0.0159
     29 C         -26.4204   -5.4346  -13.1804 C.3     1  UNL1        0.0572
     30 I         -26.9355   -4.6831  -15.1177 I       1  UNL1       -0.0750
     31 O         -21.7832  -10.2390  -10.8572 O.3     1  UNL1       -0.4513
     32 C         -22.0667   -9.9309  -12.1914 C.ar    1  UNL1        0.1580
     33 C         -21.1306   -9.2031  -12.9324 C.ar    1  UNL1        0.0677
     34 C         -21.4577   -8.7228  -14.2029 C.ar    1  UNL1        0.1398
     35 F         -20.5697   -7.9373  -14.8638 F       1  UNL1       -0.2044
     36 C         -22.7190   -9.0006  -14.7596 C.ar    1  UNL1        0.0175
     37 C         -23.6218   -9.8085  -14.0504 C.ar    1  UNL1        0.0130
     38 C         -23.2947  -10.2888  -12.7793 C.ar    1  UNL1        0.0919
     39 CL        -24.4498  -11.3077  -11.9318 Cl      1  UNL1       -0.0791
     40 C         -23.1573   -8.3264  -16.0315 C.3     1  UNL1        0.1382
     41 C         -23.5107   -9.3609  -17.0563 C.2     1  UNL1        0.3234
     42 O         -23.4812   -9.0612  -18.2806 O.2     1  UNL1       -0.2497
     43 O         -23.8716  -10.6497  -16.6400 O.3     1  UNL1       -0.4215
     44 C         -23.1831  -11.8389  -17.0303 C.3     1  UNL1        0.3207
     45 O         -24.1271  -12.8839  -17.2467 O.3     1  UNL1       -0.3070
     46 C         -24.4820  -13.6171  -16.0824 C.3     1  UNL1        0.2456
     47 C         -23.2565  -14.2862  -15.3873 C.3     1  UNL1        0.1781
     48 O         -23.2740  -15.6820  -15.5652 O.3     1  UNL1       -0.3790
     49 C         -21.9238  -13.7059  -15.8908 C.3     1  UNL1        0.1733
     50 O         -20.9048  -14.0312  -14.9796 O.3     1  UNL1       -0.3793
     51 C         -22.0548  -12.1871  -16.0219 C.3     1  UNL1        0.2106
     52 O         -20.8322  -11.6532  -16.4651 O.3     1  UNL1       -0.3766
     53 H         -23.2428  -15.8617  -16.5417 H       1  UNL1        0.2106
     54 H         -20.0460  -13.9827  -15.4755 H       1  UNL1        0.2105
     55 H         -20.7364  -10.7572  -16.0495 H       1  UNL1        0.2107
     56 C         -25.3428  -12.8092  -15.1392 C.2     1  UNL1        0.3439
     57 O         -25.4719  -13.1448  -13.9312 O.2     1  UNL1       -0.2475
     58 O         -26.0021  -11.6786  -15.6118 O.3     1  UNL1       -0.4785
     59 H         -26.5913  -11.1270  -15.0006 H       1  UNL1        0.2951
@<TRIPOS>BOND
     1    11    12    1
     2    12    13    1
     3    12    14    1
     4    12     7    1
     5     7     8   am
     6     8     9    2
     7     8     1    1
     8     1     2   ar
     9     2     3   ar
    10     3     4   ar
    11     4    31    1
    12    31    32    1
    13    32    33   ar
    14    33    34   ar
    15    34    35    1
    16    34    36   ar
    17    36    40    1
    18    40    41    1
    19    41    42    2
    20    41    43    1
    21    43    44    1
    22    44    45    1
    23    45    46    1
    24    46    56    1
    25    56    57    2
    26    56    58    1
    27    46    47    1
    28    47    48    1
    29    47    49    1
    30    49    50    1
    31    49    51    1
    32    51    52    1
    33    36    37   ar
    34    37    38   ar
    35    38    39    1
    36     4     5   ar
    37     5    15    1
    38    15    17    1
    39    17    18    2
    40    17    19    2
    41    17    20    1
    42    20    21   ar
    43    21    22   ar
    44    22    23   ar
    45    23    27    1
    46    27    28    1
    47    28    29    1
    48    29    30    1
    49    23    24   ar
    50    24    25   ar
    51    25    26    1
    52     5     6   ar
    53     6     1   ar
    54    38    32   ar
    55    25    20   ar
    56    51    44    1
    57    29    27    1
    58     7    10    1
    59    58    59    1
    60    48    53    1
    61    50    54    1
    62    52    55    1
    63    15    16    1
@<TRIPOS>MOLECULE
*****
 59 63 0 0 0
SMALL
GASTEIGER

@<TRIPOS>ATOM
      1 C         -28.8985   -3.5963  -16.7417 C.ar    1  UNL1        0.0548
      2 C         -28.4068   -3.4909  -18.0539 C.ar    1  UNL1        0.0077
      3 C         -27.0956   -3.8717  -18.3524 C.ar    1  UNL1        0.0390
      4 C         -26.2533   -4.3755  -17.3562 C.ar    1  UNL1        0.1598
      5 C         -26.7567   -4.5324  -16.0434 C.ar    1  UNL1        0.0993
      6 C         -28.0579   -4.1118  -15.7430 C.ar    1  UNL1        0.0235
      7 N         -31.0384   -3.9816  -15.4203 N.am    1  UNL1       -0.3040
      8 C         -30.3013   -3.2438  -16.4145 C.2     1  UNL1        0.2458
      9 O         -30.8501   -2.2887  -17.0279 O.2     1  UNL1       -0.2701
     10 H         -30.6566   -4.9115  -15.1340 H       1  UNL1        0.1496
     11 C         -32.7875   -4.5992  -13.8070 C.3     1  UNL1        0.0196
     12 C         -32.2842   -3.5135  -14.7807 C.3     1  UNL1        0.0572
     13 C         -32.0185   -2.2237  -13.9795 C.3     1  UNL1        0.0196
     14 C         -33.3728   -3.2679  -15.8441 C.3     1  UNL1        0.0196
     15 N         -25.9995   -5.2036  -15.0335 N.pl3   1  UNL1       -0.2120
     16 H         -24.9579   -5.1615  -15.0485 H       1  UNL1        0.1738
     17 S         -26.7898   -5.9324  -13.6776 S.O2    1  UNL1        0.0745
     18 O         -27.7989   -6.9285  -14.1756 O.2     1  UNL1       -0.1499
     19 O         -27.5245   -4.8836  -12.8917 O.2     1  UNL1       -0.1499
     20 C         -25.5862   -6.7650  -12.6829 C.ar    1  UNL1        0.1356
     21 C         -24.2330   -6.4630  -12.8826 C.ar    1  UNL1        0.0207
     22 C         -23.2520   -7.0040  -12.0508 C.ar    1  UNL1       -0.0028
     23 C         -23.5978   -7.8556  -10.9923 C.ar    1  UNL1       -0.0208
     24 C         -24.9592   -8.1661  -10.7937 C.ar    1  UNL1        0.0085
     25 C         -25.9481   -7.6284  -11.6260 C.ar    1  UNL1        0.0762
     26 CL        -27.6247   -8.0233  -11.2589 Cl      1  UNL1       -0.0809
     27 C         -22.4755   -8.3727  -10.1075 C.3     1  UNL1        0.0328
     28 C         -22.6872   -9.7392   -9.4682 C.3     1  UNL1        0.0159
     29 C         -21.6762   -9.5742  -10.5988 C.3     1  UNL1        0.0572
     30 I         -19.6384   -9.5886   -9.9431 I       1  UNL1       -0.0750
     31 O         -24.9405   -4.7281  -17.7121 O.3     1  UNL1       -0.4513
     32 C         -24.4172   -6.0144  -17.5481 C.ar    1  UNL1        0.1580
     33 C         -23.7379   -6.3237  -16.3658 C.ar    1  UNL1        0.0677
     34 C         -23.0480   -7.5327  -16.2454 C.ar    1  UNL1        0.1398
     35 F         -22.3161   -7.7701  -15.1274 F       1  UNL1       -0.2044
     36 C         -23.0637   -8.4626  -17.3004 C.ar    1  UNL1        0.0175
     37 C         -23.8220   -8.1876  -18.4494 C.ar    1  UNL1        0.0130
     38 C         -24.5120   -6.9781  -18.5699 C.ar    1  UNL1        0.0919
     39 CL        -25.4595   -6.6802  -20.0204 Cl      1  UNL1       -0.0791
     40 C         -22.1676   -9.6710  -17.2664 C.3     1  UNL1        0.1382
     41 C         -22.9990  -10.9176  -17.2781 C.2     1  UNL1        0.3234
     42 O         -22.7759  -11.8077  -18.1426 O.2     1  UNL1       -0.2497
     43 O         -24.0166  -11.0774  -16.3275 O.3     1  UNL1       -0.4215
     44 C         -24.7652  -12.2812  -16.1512 C.3     1  UNL1        0.3207
     45 O         -25.8950  -12.0199  -15.3235 O.3     1  UNL1       -0.3070
     46 C         -25.6459  -12.1143  -13.9277 C.3     1  UNL1        0.2456
     47 C         -25.1167  -13.5169  -13.4973 C.3     1  UNL1        0.1781
     48 O         -26.0966  -14.2293  -12.7813 O.3     1  UNL1       -0.3790
     49 C         -24.6371  -14.3438  -14.7024 C.3     1  UNL1        0.1733
     50 O         -23.8212  -15.3933  -14.2471 O.3     1  UNL1       -0.3793
     51 C         -23.8548  -13.4370  -15.6546 C.3     1  UNL1        0.2106
     52 O         -23.4007  -14.1950  -16.7480 O.3     1  UNL1       -0.3766
     53 H         -26.8847  -14.3383  -13.3761 H       1  UNL1        0.2106
     54 H         -23.8309  -16.0942  -14.9503 H       1  UNL1        0.2105
     55 H         -22.5279  -13.8133  -17.0263 H       1  UNL1        0.2107
     56 C         -24.8005  -10.9695  -13.4199 C.2     1  UNL1        0.3439
     57 O         -24.0636  -11.1075  -12.4067 O.2     1  UNL1       -0.2475
     58 O         -24.8366   -9.7454  -14.0808 O.3     1  UNL1       -0.4785
     59 H         -24.2857   -8.9616  -13.7536 H       1  UNL1        0.2951
@<TRIPOS>BOND
     1    11    12    1
     2    12    13    1
     3    12    14    1
     4    12     7    1
     5     7     8   am
     6     8     9    2
     7     8     1    1
     8     1     2   ar
     9     2     3   ar
    10     3     4   ar
    11     4    31    1
    12    31    32    1
    13    32    33   ar
    14    33    34   ar
    15    34    35    1
    16    34    36   ar
    17    36    40    1
    18    40    41    1
    19    41    42    2
    20    41    43    1
    21    43    44    1
    22    44    45    1
    23    45    46    1
    24    46    56    1
    25    56    57    2
    26    56    58    1
    27    46    47    1
    28    47    48    1
    29    47    49    1
    30    49    50    1
    31    49    51    1
    32    51    52    1
    33    36    37   ar
    34    37    38   ar
    35    38    39    1
    36     4     5   ar
    37     5    15    1
    38    15    17    1
    39    17    18    2
    40    17    19    2
    41    17    20    1
    42    20    21   ar
    43    21    22   ar
    44    22    23   ar
    45    23    27    1
    46    27    28    1
    47    28    29    1
    48    29    30    1
    49    23    24   ar
    50    24    25   ar
    51    25    26    1
    52     5     6   ar
    53     6     1   ar
    54    38    32   ar
    55    25    20   ar
    56    51    44    1
    57    29    27    1
    58     7    10    1
    59    58    59    1
    60    48    53    1
    61    50    54    1
    62    52    55    1
    63    15    16    1
@<TRIPOS>MOLECULE
*****
 59 63 0 0 0
SMALL
GASTEIGER

@<TRIPOS>ATOM
      1 C         -27.1345   -5.7862  -13.9597 C.ar    1  UNL1        0.0548
      2 C         -27.0944   -5.3932  -12.6111 C.ar    1  UNL1        0.0077
      3 C         -26.7403   -6.3088  -11.6162 C.ar    1  UNL1        0.0390
      4 C         -26.4077   -7.6270  -11.9437 C.ar    1  UNL1        0.1598
      5 C         -26.3964   -8.0168  -13.3037 C.ar    1  UNL1        0.0993
      6 C         -26.7906   -7.1058  -14.2911 C.ar    1  UNL1        0.0235
      7 N         -28.7687   -4.7905  -15.6366 N.am    1  UNL1       -0.3040
      8 C         -27.4600   -4.8175  -15.0345 C.2     1  UNL1        0.2458
      9 O         -26.5681   -4.0169  -15.4258 O.2     1  UNL1       -0.2701
     10 H         -29.3826   -5.6227  -15.4845 H       1  UNL1        0.1496
     11 C         -29.9673   -4.2419  -17.7116 C.3     1  UNL1        0.0196
     12 C         -29.2981   -3.6729  -16.4434 C.3     1  UNL1        0.0572
     13 C         -30.3572   -2.8922  -15.6402 C.3     1  UNL1        0.0196
     14 C         -28.1538   -2.7339  -16.8737 C.3     1  UNL1        0.0196
     15 N         -25.8957   -9.2941  -13.7054 N.pl3   1  UNL1       -0.2120
     16 H         -26.5089  -10.1354  -13.6501 H       1  UNL1        0.1738
     17 S         -24.3442   -9.4356  -14.4586 S.O2    1  UNL1        0.0745
     18 O         -23.8984   -8.0770  -14.9214 O.2     1  UNL1       -0.1499
     19 O         -24.4427  -10.3256  -15.6651 O.2     1  UNL1       -0.1499
     20 C         -23.1824  -10.0639  -13.2811 C.ar    1  UNL1        0.1356
     21 C         -23.5492  -11.1755  -12.5115 C.ar    1  UNL1        0.0207
     22 C         -22.6320  -11.7802  -11.6512 C.ar    1  UNL1       -0.0028
     23 C         -21.3214  -11.2948  -11.5424 C.ar    1  UNL1       -0.0208
     24 C         -20.9523  -10.1716  -12.3115 C.ar    1  UNL1        0.0085
     25 C         -21.8683   -9.5589  -13.1749 C.ar    1  UNL1        0.0762
     26 CL        -21.2950   -8.2027  -14.1411 Cl      1  UNL1       -0.0809
     27 C         -20.3711  -12.0319  -10.6133 C.3     1  UNL1        0.0328
     28 C         -19.5042  -13.1139  -11.2446 C.3     1  UNL1        0.0159
     29 C         -18.8752  -11.7995  -10.7927 C.3     1  UNL1        0.0572
     30 I         -17.7477  -11.9608   -8.9801 I       1  UNL1       -0.0750
     31 O         -26.0744   -8.5068  -10.9000 O.3     1  UNL1       -0.4513
     32 C         -24.8275   -8.5133  -10.2668 C.ar    1  UNL1        0.1580
     33 C         -23.8528   -7.6003  -10.6807 C.ar    1  UNL1        0.0677
     34 C         -22.5448   -7.7001  -10.1998 C.ar    1  UNL1        0.1398
     35 F         -21.5932   -6.8646  -10.6881 F       1  UNL1       -0.2044
     36 C         -22.2096   -8.6981   -9.2673 C.ar    1  UNL1        0.0175
     37 C         -23.2120   -9.5548   -8.7855 C.ar    1  UNL1        0.0130
     38 C         -24.5204   -9.4551   -9.2667 C.ar    1  UNL1        0.0919
     39 CL        -25.7470  -10.5397   -8.6266 Cl      1  UNL1       -0.0791
     40 C         -20.7723   -8.9439   -8.8956 C.3     1  UNL1        0.1382
     41 C         -20.3891   -8.0614   -7.7468 C.2     1  UNL1        0.3234
     42 O         -20.2652   -6.8200   -7.9286 O.2     1  UNL1       -0.2497
     43 O         -20.1713   -8.6285   -6.4836 O.3     1  UNL1       -0.4215
     44 C         -18.8860   -8.7527   -5.8729 C.3     1  UNL1        0.3207
     45 O         -18.9618   -9.6787   -4.7928 O.3     1  UNL1       -0.3070
     46 C         -19.3623   -9.1150   -3.5514 C.3     1  UNL1        0.2456
     47 C         -18.4170   -7.9724   -3.0684 C.3     1  UNL1        0.1781
     48 O         -17.6438   -8.3869   -1.9681 O.3     1  UNL1       -0.3790
     49 C         -17.5019   -7.4689   -4.1978 C.3     1  UNL1        0.1733
     50 O         -16.9788   -6.2138   -3.8434 O.3     1  UNL1       -0.3793
     51 C         -18.3126   -7.3611   -5.4909 C.3     1  UNL1        0.2106
     52 O         -17.4821   -6.8843   -6.5200 O.3     1  UNL1       -0.3766
     53 H         -17.1023   -9.1678   -2.2575 H       1  UNL1        0.2106
     54 H         -16.1490   -6.0854   -4.3733 H       1  UNL1        0.2105
     55 H         -18.0475   -6.3320   -7.1201 H       1  UNL1        0.2107
     56 C         -20.8239   -8.7317   -3.5436 C.2     1  UNL1        0.3439
     57 O         -21.2701   -7.8948   -2.7133 O.2     1  UNL1       -0.2475
     58 O         -21.6892   -9.3112   -4.4665 O.3     1  UNL1       -0.4785
     59 H         -22.6740   -9.0764   -4.4743 H       1  UNL1        0.2951
@<TRIPOS>BOND
     1    11    12    1
     2    12    13    1
     3    12    14    1
     4    12     7    1
     5     7     8   am
     6     8     9    2
     7     8     1    1
     8     1     2   ar
     9     2     3   ar
    10     3     4   ar
    11     4    31    1
    12    31    32    1
    13    32    33   ar
    14    33    34   ar
    15    34    35    1
    16    34    36   ar
    17    36    40    1
    18    40    41    1
    19    41    42    2
    20    41    43    1
    21    43    44    1
    22    44    45    1
    23    45    46    1
    24    46    56    1
    25    56    57    2
    26    56    58    1
    27    46    47    1
    28    47    48    1
    29    47    49    1
    30    49    50    1
    31    49    51    1
    32    51    52    1
    33    36    37   ar
    34    37    38   ar
    35    38    39    1
    36     4     5   ar
    37     5    15    1
    38    15    17    1
    39    17    18    2
    40    17    19    2
    41    17    20    1
    42    20    21   ar
    43    21    22   ar
    44    22    23   ar
    45    23    27    1
    46    27    28    1
    47    28    29    1
    48    29    30    1
    49    23    24   ar
    50    24    25   ar
    51    25    26    1
    52     5     6   ar
    53     6     1   ar
    54    38    32   ar
    55    25    20   ar
    56    51    44    1
    57    29    27    1
    58     7    10    1
    59    58    59    1
    60    48    53    1
    61    50    54    1
    62    52    55    1
    63    15    16    1
@<TRIPOS>MOLECULE
*****
 59 63 0 0 0
SMALL
GASTEIGER

@<TRIPOS>ATOM
      1 C         -22.8148  -11.2932  -12.8979 C.ar    1  UNL1        0.0548
      2 C         -21.5296  -10.9539  -13.3538 C.ar    1  UNL1        0.0077
      3 C         -20.6914  -10.1493  -12.5772 C.ar    1  UNL1        0.0390
      4 C         -21.1094   -9.6774  -11.3288 C.ar    1  UNL1        0.1598
      5 C         -22.3820  -10.0563  -10.8404 C.ar    1  UNL1        0.0993
      6 C         -23.2317  -10.8294  -11.6407 C.ar    1  UNL1        0.0235
      7 N         -23.1561  -13.1030  -14.6536 N.am    1  UNL1       -0.3040
      8 C         -23.7001  -12.1856  -13.6847 C.2     1  UNL1        0.2458
      9 O         -24.9462  -12.1258  -13.5019 O.2     1  UNL1       -0.2701
     10 H         -22.1723  -12.9400  -14.9669 H       1  UNL1        0.1496
     11 C         -24.4261  -13.8615  -16.6169 C.3     1  UNL1        0.0196
     12 C         -23.8877  -14.2513  -15.2248 C.3     1  UNL1        0.0572
     13 C         -22.9415  -15.4574  -15.3868 C.3     1  UNL1        0.0196
     14 C         -25.0826  -14.6259  -14.3257 C.3     1  UNL1        0.0196
     15 N         -22.7850   -9.7499   -9.5035 N.pl3   1  UNL1       -0.2120
     16 H         -22.2241  -10.0989   -8.6969 H       1  UNL1        0.1738
     17 S         -24.0881   -8.6510   -9.2055 S.O2    1  UNL1        0.0745
     18 O         -23.5937   -7.5285   -8.3372 O.2     1  UNL1       -0.1499
     19 O         -25.1904   -9.3558   -8.4669 O.2     1  UNL1       -0.1499
     20 C         -24.6563   -7.9930  -10.7467 C.ar    1  UNL1        0.1356
     21 C         -25.8875   -8.4364  -11.2468 C.ar    1  UNL1        0.0207
     22 C         -26.4354   -7.8680  -12.3974 C.ar    1  UNL1       -0.0028
     23 C         -25.7711   -6.8361  -13.0749 C.ar    1  UNL1       -0.0208
     24 C         -24.5282   -6.3929  -12.5767 C.ar    1  UNL1        0.0085
     25 C         -23.9720   -6.9604  -11.4241 C.ar    1  UNL1        0.0762
     26 CL        -22.4478   -6.2961  -10.8434 Cl      1  UNL1       -0.0809
     27 C         -26.4514   -6.2427  -14.2975 C.3     1  UNL1        0.0328
     28 C         -27.8508   -5.6772  -14.0906 C.3     1  UNL1        0.0159
     29 C         -26.6746   -4.7350  -14.3278 C.3     1  UNL1        0.0572
     30 I         -26.6290   -3.8896  -16.2940 I       1  UNL1       -0.0750
     31 O         -20.2297   -8.8600  -10.5992 O.3     1  UNL1       -0.4513
     32 C         -19.3942   -9.3399   -9.5856 C.ar    1  UNL1        0.1580
     33 C         -18.5839  -10.4497   -9.8443 C.ar    1  UNL1        0.0677
     34 C         -17.8786  -11.0641   -8.8064 C.ar    1  UNL1        0.1398
     35 F         -17.1758  -12.1967   -9.0619 F       1  UNL1       -0.2044
     36 C         -17.9507  -10.5466   -7.5007 C.ar    1  UNL1        0.0175
     37 C         -18.6924   -9.3786   -7.2629 C.ar    1  UNL1        0.0130
     38 C         -19.3981   -8.7641   -8.3011 C.ar    1  UNL1        0.0919
     39 CL        -20.3036   -7.2960   -7.9617 Cl      1  UNL1       -0.0791
     40 C         -17.3634  -11.3090   -6.3439 C.3     1  UNL1        0.1382
     41 C         -17.1045  -10.3743   -5.2016 C.2     1  UNL1        0.3234
     42 O         -15.9583   -9.8697   -5.0565 O.2     1  UNL1       -0.2497
     43 O         -18.1410  -10.0740   -4.3071 O.3     1  UNL1       -0.4215
     44 C         -18.0124   -9.1720   -3.2069 C.3     1  UNL1        0.3207
     45 O         -19.1276   -9.3270   -2.3339 O.3     1  UNL1       -0.3070
     46 C         -20.2671   -8.5514   -2.6791 C.3     1  UNL1        0.2456
     47 C         -19.9706   -7.0209   -2.7251 C.3     1  UNL1        0.1781
     48 O         -20.5696   -6.3568   -1.6385 O.3     1  UNL1       -0.3790
     49 C         -18.4604   -6.7297   -2.7550 C.3     1  UNL1        0.1733
     50 O         -18.2530   -5.4111   -3.1942 O.3     1  UNL1       -0.3793
     51 C         -17.7767   -7.7189   -3.7010 C.3     1  UNL1        0.2106
     52 O         -16.3989   -7.4429   -3.7432 O.3     1  UNL1       -0.3766
     53 H         -20.1942   -6.7444   -0.8044 H       1  UNL1        0.2106
     54 H         -17.3581   -5.1335   -2.8656 H       1  UNL1        0.2105
     55 H         -16.0854   -7.6574   -4.6600 H       1  UNL1        0.2107
     56 C         -20.9555   -9.0694   -3.9205 C.2     1  UNL1        0.3439
     57 O         -20.9143   -8.4232   -5.0019 O.2     1  UNL1       -0.2475
     58 O         -21.6447  -10.2771   -3.8684 O.3     1  UNL1       -0.4785
     59 H         -22.1210  -10.6395   -4.6850 H       1  UNL1        0.2951
@<TRIPOS>BOND
     1    11    12    1
     2    12    13    1
     3    12    14    1
     4    12     7    1
     5     7     8   am
     6     8     9    2
     7     8     1    1
     8     1     2   ar
     9     2     3   ar
    10     3     4   ar
    11     4    31    1
    12    31    32    1
    13    32    33   ar
    14    33    34   ar
    15    34    35    1
    16    34    36   ar
    17    36    40    1
    18    40    41    1
    19    41    42    2
    20    41    43    1
    21    43    44    1
    22    44    45    1
    23    45    46    1
    24    46    56    1
    25    56    57    2
    26    56    58    1
    27    46    47    1
    28    47    48    1
    29    47    49    1
    30    49    50    1
    31    49    51    1
    32    51    52    1
    33    36    37   ar
    34    37    38   ar
    35    38    39    1
    36     4     5   ar
    37     5    15    1
    38    15    17    1
    39    17    18    2
    40    17    19    2
    41    17    20    1
    42    20    21   ar
    43    21    22   ar
    44    22    23   ar
    45    23    27    1
    46    27    28    1
    47    28    29    1
    48    29    30    1
    49    23    24   ar
    50    24    25   ar
    51    25    26    1
    52     5     6   ar
    53     6     1   ar
    54    38    32   ar
    55    25    20   ar
    56    51    44    1
    57    29    27    1
    58     7    10    1
    59    58    59    1
    60    48    53    1
    61    50    54    1
    62    52    55    1
    63    15    16    1
@<TRIPOS>MOLECULE
*****
 59 63 0 0 0
SMALL
GASTEIGER

@<TRIPOS>ATOM
      1 C         -28.3613   -4.4664  -15.3299 C.ar    1  UNL1        0.0548
      2 C         -27.0982   -4.1344  -15.8486 C.ar    1  UNL1        0.0077
      3 C         -25.9851   -4.9319  -15.5691 C.ar    1  UNL1        0.0390
      4 C         -26.1084   -6.0799  -14.7800 C.ar    1  UNL1        0.1598
      5 C         -27.3856   -6.4488  -14.2961 C.ar    1  UNL1        0.0993
      6 C         -28.4888   -5.6239  -14.5466 C.ar    1  UNL1        0.0235
      7 N         -30.8550   -4.0071  -15.1190 N.am    1  UNL1       -0.3040
      8 C         -29.5632   -3.6608  -15.6551 C.2     1  UNL1        0.2458
      9 O         -29.4430   -2.6660  -16.4203 O.2     1  UNL1       -0.2701
     10 H         -30.9657   -4.9668  -14.7200 H       1  UNL1        0.1496
     11 C         -33.2528   -3.8860  -14.5907 C.3     1  UNL1        0.0196
     12 C         -32.0217   -3.1025  -15.0912 C.3     1  UNL1        0.0572
     13 C         -31.7626   -1.9299  -14.1247 C.3     1  UNL1        0.0196
     14 C         -32.3221   -2.5722  -16.5071 C.3     1  UNL1        0.0196
     15 N         -27.5967   -7.7001  -13.6376 N.pl3   1  UNL1       -0.2120
     16 H         -27.9680   -8.5145  -14.1723 H       1  UNL1        0.1738
     17 S         -27.0701   -7.9378  -12.0065 S.O2    1  UNL1        0.0745
     18 O         -28.2349   -8.4020  -11.1782 O.2     1  UNL1       -0.1499
     19 O         -26.5844   -6.6367  -11.4331 O.2     1  UNL1       -0.1499
     20 C         -25.8030   -9.1726  -11.9798 C.ar    1  UNL1        0.1356
     21 C         -25.6492   -9.9936  -13.1043 C.ar    1  UNL1        0.0207
     22 C         -24.5956  -10.9052  -13.1821 C.ar    1  UNL1       -0.0028
     23 C         -23.6630  -11.0154  -12.1413 C.ar    1  UNL1       -0.0208
     24 C         -23.8200  -10.1943  -11.0054 C.ar    1  UNL1        0.0085
     25 C         -24.8762   -9.2793  -10.9201 C.ar    1  UNL1        0.0762
     26 CL        -24.9510   -8.2530   -9.4908 Cl      1  UNL1       -0.0809
     27 C         -22.5221  -12.0037  -12.3183 C.3     1  UNL1        0.0328
     28 C         -21.6368  -11.8093  -13.5429 C.3     1  UNL1        0.0159
     29 C         -21.0980  -11.4856  -12.1528 C.3     1  UNL1        0.0572
     30 I         -19.7253  -12.9448  -11.3981 I       1  UNL1       -0.0750
     31 O         -24.9520   -6.8346  -14.5201 O.3     1  UNL1       -0.4513
     32 C         -24.0942   -6.5838  -13.4445 C.ar    1  UNL1        0.1580
     33 C         -24.4176   -5.5648  -12.5434 C.ar    1  UNL1        0.0677
     34 C         -23.4979   -5.1676  -11.5695 C.ar    1  UNL1        0.1398
     35 F         -23.7942   -4.1127  -10.7686 F       1  UNL1       -0.2044
     36 C         -22.2545   -5.8165  -11.4663 C.ar    1  UNL1        0.0175
     37 C         -21.9705   -6.8994  -12.3134 C.ar    1  UNL1        0.0130
     38 C         -22.8904   -7.2965  -13.2878 C.ar    1  UNL1        0.0919
     39 CL        -22.4994   -8.6656  -14.3189 Cl      1  UNL1       -0.0791
     40 C         -21.1818   -5.2720  -10.5622 C.3     1  UNL1        0.1382
     41 C         -21.4256   -5.7291   -9.1561 C.2     1  UNL1        0.3234
     42 O         -22.4720   -5.3647   -8.5546 O.2     1  UNL1       -0.2497
     43 O         -20.4851   -6.5557   -8.5263 O.3     1  UNL1       -0.4215
     44 C         -20.5124   -7.9830   -8.5777 C.3     1  UNL1        0.3207
     45 O         -20.6157   -8.5032   -7.2554 O.3     1  UNL1       -0.3070
     46 C         -19.3754   -8.6725   -6.5828 C.3     1  UNL1        0.2456
     47 C         -18.3971   -9.6224   -7.3399 C.3     1  UNL1        0.1781
     48 O         -18.2657  -10.8523   -6.6688 O.3     1  UNL1       -0.3790
     49 C         -18.8376   -9.8586   -8.7947 C.3     1  UNL1        0.1733
     50 O         -17.7525  -10.3663   -9.5292 O.3     1  UNL1       -0.3793
     51 C         -19.3141   -8.5350   -9.3966 C.3     1  UNL1        0.2106
     52 O         -19.7004   -8.7456  -10.7317 O.3     1  UNL1       -0.3766
     53 H         -19.1666  -11.2686   -6.6234 H       1  UNL1        0.2106
     54 H         -18.1309  -10.8401  -10.3154 H       1  UNL1        0.2105
     55 H         -19.4823   -7.9176  -11.2335 H       1  UNL1        0.2107
     56 C         -18.7524   -7.3522   -6.1931 C.2     1  UNL1        0.3439
     57 O         -18.9744   -6.8391   -5.0634 O.2     1  UNL1       -0.2475
     58 O         -17.9219   -6.6937   -7.0948 O.3     1  UNL1       -0.4785
     59 H         -17.5006   -5.8038   -6.8591 H       1  UNL1        0.2951
@<TRIPOS>BOND
     1    11    12    1
     2    12    13    1
     3    12    14    1
     4    12     7    1
     5     7     8   am
     6     8     9    2
     7     8     1    1
     8     1     2   ar
     9     2     3   ar
    10     3     4   ar
    11     4    31    1
    12    31    32    1
    13    32    33   ar
    14    33    34   ar
    15    34    35    1
    16    34    36   ar
    17    36    40    1
    18    40    41    1
    19    41    42    2
    20    41    43    1
    21    43    44    1
    22    44    45    1
    23    45    46    1
    24    46    56    1
    25    56    57    2
    26    56    58    1
    27    46    47    1
    28    47    48    1
    29    47    49    1
    30    49    50    1
    31    49    51    1
    32    51    52    1
    33    36    37   ar
    34    37    38   ar
    35    38    39    1
    36     4     5   ar
    37     5    15    1
    38    15    17    1
    39    17    18    2
    40    17    19    2
    41    17    20    1
    42    20    21   ar
    43    21    22   ar
    44    22    23   ar
    45    23    27    1
    46    27    28    1
    47    28    29    1
    48    29    30    1
    49    23    24   ar
    50    24    25   ar
    51    25    26    1
    52     5     6   ar
    53     6     1   ar
    54    38    32   ar
    55    25    20   ar
    56    51    44    1
    57    29    27    1
    58     7    10    1
    59    58    59    1
    60    48    53    1
    61    50    54    1
    62    52    55    1
    63    15    16    1
@<TRIPOS>MOLECULE
*****
 59 63 0 0 0
SMALL
GASTEIGER

@<TRIPOS>ATOM
      1 C         -28.7775   -3.6709  -16.8299 C.ar    1  UNL1        0.0548
      2 C         -28.2866   -3.6892  -18.1465 C.ar    1  UNL1        0.0077
      3 C         -26.9734   -4.0897  -18.4079 C.ar    1  UNL1        0.0390
      4 C         -26.1282   -4.4910  -17.3685 C.ar    1  UNL1        0.1598
      5 C         -26.6305   -4.5238  -16.0464 C.ar    1  UNL1        0.0993
      6 C         -27.9340   -4.0835  -15.7869 C.ar    1  UNL1        0.0235
      7 N         -30.9328   -3.9770  -15.5128 N.am    1  UNL1       -0.3040
      8 C         -30.1822   -3.2962  -16.5371 C.2     1  UNL1        0.2458
      9 O         -30.7205   -2.3735  -17.2067 O.2     1  UNL1       -0.2701
     10 H         -30.5579   -4.8916  -15.1730 H       1  UNL1        0.1496
     11 C         -31.8742   -2.1854  -14.1174 C.3     1  UNL1        0.0196
     12 C         -32.1833   -3.4708  -14.9126 C.3     1  UNL1        0.0572
     13 C         -33.2029   -3.1289  -16.0170 C.3     1  UNL1        0.0196
     14 C         -32.7736   -4.5148  -13.9442 C.3     1  UNL1        0.0196
     15 N         -25.8695   -5.0909  -14.9773 N.pl3   1  UNL1       -0.2120
     16 H         -24.8615   -4.8480  -14.8688 H       1  UNL1        0.1738
     17 S         -26.6422   -6.0317  -13.7476 S.O2    1  UNL1        0.0745
     18 O         -27.6981   -6.8936  -14.3808 O.2     1  UNL1       -0.1499
     19 O         -27.3181   -5.1232  -12.7600 O.2     1  UNL1       -0.1499
     20 C         -25.4374   -7.0629  -12.9626 C.ar    1  UNL1        0.1356
     21 C         -25.4681   -8.4391  -13.2219 C.ar    1  UNL1        0.0207
     22 C         -24.4744   -9.2808  -12.7207 C.ar    1  UNL1       -0.0028
     23 C         -23.4192   -8.7685  -11.9530 C.ar    1  UNL1       -0.0208
     24 C         -23.3903   -7.3840  -11.6853 C.ar    1  UNL1        0.0085
     25 C         -24.3853   -6.5345  -12.1833 C.ar    1  UNL1        0.0762
     26 CL        -24.2277   -4.8124  -11.8498 Cl      1  UNL1       -0.0809
     27 C         -22.3554   -9.7436  -11.4765 C.3     1  UNL1        0.0328
     28 C         -21.5151  -10.4152  -12.5554 C.3     1  UNL1        0.0159
     29 C         -20.8941   -9.3492  -11.6580 C.3     1  UNL1        0.0572
     30 I         -19.5885  -10.1391  -10.1565 I       1  UNL1       -0.0750
     31 O         -24.8135   -4.8688  -17.6898 O.3     1  UNL1       -0.4513
     32 C         -24.2965   -6.1444  -17.4424 C.ar    1  UNL1        0.1580
     33 C         -23.7028   -6.4062  -16.2038 C.ar    1  UNL1        0.0677
     34 C         -23.0170   -7.6046  -15.9908 C.ar    1  UNL1        0.1398
     35 F         -22.3666   -7.7965  -14.8151 F       1  UNL1       -0.2044
     36 C         -22.9514   -8.5714  -17.0100 C.ar    1  UNL1        0.0175
     37 C         -23.6262   -8.3433  -18.2198 C.ar    1  UNL1        0.0130
     38 C         -24.3121   -7.1443  -18.4330 C.ar    1  UNL1        0.0919
     39 CL        -25.1538   -6.9056  -19.9578 Cl      1  UNL1       -0.0791
     40 C         -22.0537   -9.7707  -16.8681 C.3     1  UNL1        0.1382
     41 C         -22.7877  -11.0052  -17.2955 C.2     1  UNL1        0.3234
     42 O         -23.2682  -11.0734  -18.4591 O.2     1  UNL1       -0.2497
     43 O         -22.9323  -12.0690  -16.3943 O.3     1  UNL1       -0.4215
     44 C         -23.6586  -11.9851  -15.1671 C.3     1  UNL1        0.3207
     45 O         -23.0508  -12.8339  -14.1976 O.3     1  UNL1       -0.3070
     46 C         -23.4933  -14.1839  -14.2261 C.3     1  UNL1        0.2456
     47 C         -25.0318  -14.3248  -14.0122 C.3     1  UNL1        0.1781
     48 O         -25.3188  -14.8669  -12.7456 O.3     1  UNL1       -0.3790
     49 C         -25.7612  -12.9822  -14.1900 C.3     1  UNL1        0.1733
     50 O         -27.1314  -13.2235  -14.3873 O.3     1  UNL1       -0.3793
     51 C         -25.1721  -12.2463  -15.3953 C.3     1  UNL1        0.2106
     52 O         -25.8495  -11.0269  -15.5700 O.3     1  UNL1       -0.3766
     53 H         -24.9419  -14.2520  -12.0624 H       1  UNL1        0.2106
     54 H         -27.6115  -12.3916  -14.1358 H       1  UNL1        0.2105
     55 H         -25.8762  -10.8441  -16.5450 H       1  UNL1        0.2107
     56 C         -22.9832  -14.9264  -15.4392 C.2     1  UNL1        0.3439
     57 O         -23.6745  -15.8276  -15.9858 O.2     1  UNL1       -0.2475
     58 O         -21.7320  -14.6105  -15.9599 O.3     1  UNL1       -0.4785
     59 H         -21.3657  -15.1007  -16.7665 H       1  UNL1        0.2951
@<TRIPOS>BOND
     1    11    12    1
     2    12    13    1
     3    12    14    1
     4    12     7    1
     5     7     8   am
     6     8     9    2
     7     8     1    1
     8     1     2   ar
     9     2     3   ar
    10     3     4   ar
    11     4    31    1
    12    31    32    1
    13    32    33   ar
    14    33    34   ar
    15    34    35    1
    16    34    36   ar
    17    36    40    1
    18    40    41    1
    19    41    42    2
    20    41    43    1
    21    43    44    1
    22    44    45    1
    23    45    46    1
    24    46    56    1
    25    56    57    2
    26    56    58    1
    27    46    47    1
    28    47    48    1
    29    47    49    1
    30    49    50    1
    31    49    51    1
    32    51    52    1
    33    36    37   ar
    34    37    38   ar
    35    38    39    1
    36     4     5   ar
    37     5    15    1
    38    15    17    1
    39    17    18    2
    40    17    19    2
    41    17    20    1
    42    20    21   ar
    43    21    22   ar
    44    22    23   ar
    45    23    27    1
    46    27    28    1
    47    28    29    1
    48    29    30    1
    49    23    24   ar
    50    24    25   ar
    51    25    26    1
    52     5     6   ar
    53     6     1   ar
    54    38    32   ar
    55    25    20   ar
    56    51    44    1
    57    29    27    1
    58     7    10    1
    59    58    59    1
    60    48    53    1
    61    50    54    1
    62    52    55    1
    63    15    16    1
@<TRIPOS>MOLECULE
*****
 59 63 0 0 0
SMALL
GASTEIGER

@<TRIPOS>ATOM
      1 C         -23.8846  -10.5269  -14.8597 C.ar    1  UNL1        0.0548
      2 C         -22.6795  -10.0020  -15.3568 C.ar    1  UNL1        0.0077
      3 C         -22.1486   -8.8222  -14.8280 C.ar    1  UNL1        0.0390
      4 C         -22.7979   -8.1494  -13.7882 C.ar    1  UNL1        0.1598
      5 C         -23.9847   -8.6984  -13.2480 C.ar    1  UNL1        0.0993
      6 C         -24.5319   -9.8587  -13.8090 C.ar    1  UNL1        0.0235
      7 N         -23.6986  -13.0335  -15.2547 N.am    1  UNL1       -0.3040
      8 C         -24.4386  -11.8029  -15.3736 C.2     1  UNL1        0.2458
      9 O         -25.5703  -11.7977  -15.9292 O.2     1  UNL1       -0.2701
     10 H         -22.6782  -12.9594  -15.0409 H       1  UNL1        0.1496
     11 C         -23.2322  -15.4330  -14.9935 C.3     1  UNL1        0.0196
     12 C         -24.2818  -14.3813  -15.4086 C.3     1  UNL1        0.0572
     13 C         -25.5147  -14.5347  -14.4961 C.3     1  UNL1        0.0196
     14 C         -24.6702  -14.6321  -16.8791 C.3     1  UNL1        0.0196
     15 N         -24.5888   -8.1499  -12.0742 N.pl3   1  UNL1       -0.2120
     16 H         -23.9914   -7.8160  -11.2877 H       1  UNL1        0.1738
     17 S         -26.2937   -7.8598  -12.0137 S.O2    1  UNL1        0.0745
     18 O         -26.6647   -7.4058  -10.6300 O.2     1  UNL1       -0.1499
     19 O         -27.0378   -9.1339  -12.2973 O.2     1  UNL1       -0.1499
     20 C         -26.7085   -6.5927  -13.1771 C.ar    1  UNL1        0.1356
     21 C         -25.7220   -5.6621  -13.5283 C.ar    1  UNL1        0.0207
     22 C         -25.9597   -4.7134  -14.5235 C.ar    1  UNL1       -0.0028
     23 C         -27.1870   -4.6739  -15.1997 C.ar    1  UNL1       -0.0208
     24 C         -28.1838   -5.6058  -14.8429 C.ar    1  UNL1        0.0085
     25 C         -27.9525   -6.5588  -13.8437 C.ar    1  UNL1        0.0762
     26 CL        -29.2345   -7.7205  -13.5139 Cl      1  UNL1       -0.0809
     27 C         -27.3545   -3.6365  -16.2976 C.3     1  UNL1        0.0328
     28 C         -26.6231   -3.9063  -17.6065 C.3     1  UNL1        0.0159
     29 C         -28.1418   -4.0346  -17.5407 C.3     1  UNL1        0.0572
     30 I         -29.1859   -2.4101  -18.4647 I       1  UNL1       -0.0750
     31 O         -22.2251   -6.9600  -13.3069 O.3     1  UNL1       -0.4513
     32 C         -21.5293   -6.8749  -12.0969 C.ar    1  UNL1        0.1580
     33 C         -20.5012   -7.7874  -11.8410 C.ar    1  UNL1        0.0677
     34 C         -19.9120   -7.8480  -10.5756 C.ar    1  UNL1        0.1398
     35 F         -18.9842   -8.8053  -10.3213 F       1  UNL1       -0.2044
     36 C         -20.3246   -6.9651   -9.5617 C.ar    1  UNL1        0.0175
     37 C         -21.2927   -5.9900   -9.8497 C.ar    1  UNL1        0.0130
     38 C         -21.8824   -5.9296  -11.1154 C.ar    1  UNL1        0.0919
     39 CL        -23.0812   -4.6846  -11.4366 Cl      1  UNL1       -0.0791
     40 C         -19.8460   -7.1499   -8.1470 C.3     1  UNL1        0.1382
     41 C         -20.7282   -8.1326   -7.4390 C.2     1  UNL1        0.3234
     42 O         -21.7931   -8.5236   -7.9892 O.2     1  UNL1       -0.2497
     43 O         -20.3586   -8.6039   -6.1718 O.3     1  UNL1       -0.4215
     44 C         -19.0063   -8.7517   -5.7360 C.3     1  UNL1        0.3207
     45 O         -18.9584   -9.6586   -4.6382 O.3     1  UNL1       -0.3070
     46 C         -19.1757   -9.0655   -3.3653 C.3     1  UNL1        0.2456
     47 C         -18.1477   -7.9403   -3.0345 C.3     1  UNL1        0.1781
     48 O         -17.2440   -8.3574   -2.0396 O.3     1  UNL1       -0.3790
     49 C         -17.3806   -7.4781   -4.2852 C.3     1  UNL1        0.1733
     50 O         -16.7855   -6.2315   -4.0276 O.3     1  UNL1       -0.3793
     51 C         -18.3545   -7.3695   -5.4603 C.3     1  UNL1        0.2106
     52 O         -17.6584   -6.9303   -6.5998 O.3     1  UNL1       -0.3766
     53 H         -16.7646   -9.1564   -2.3840 H       1  UNL1        0.2106
     54 H         -16.0314   -6.1328   -4.6658 H       1  UNL1        0.2105
     55 H         -18.2860   -6.3730   -7.1293 H       1  UNL1        0.2107
     56 C         -20.6137   -8.6445   -3.1696 C.2     1  UNL1        0.3439
     57 O         -20.9103   -7.6852   -2.4077 O.2     1  UNL1       -0.2475
     58 O         -21.6245   -9.3262   -3.8403 O.3     1  UNL1       -0.4785
     59 H         -22.5957   -9.0677   -3.7177 H       1  UNL1        0.2951
@<TRIPOS>BOND
     1    11    12    1
     2    12    13    1
     3    12    14    1
     4    12     7    1
     5     7     8   am
     6     8     9    2
     7     8     1    1
     8     1     2   ar
     9     2     3   ar
    10     3     4   ar
    11     4    31    1
    12    31    32    1
    13    32    33   ar
    14    33    34   ar
    15    34    35    1
    16    34    36   ar
    17    36    40    1
    18    40    41    1
    19    41    42    2
    20    41    43    1
    21    43    44    1
    22    44    45    1
    23    45    46    1
    24    46    56    1
    25    56    57    2
    26    56    58    1
    27    46    47    1
    28    47    48    1
    29    47    49    1
    30    49    50    1
    31    49    51    1
    32    51    52    1
    33    36    37   ar
    34    37    38   ar
    35    38    39    1
    36     4     5   ar
    37     5    15    1
    38    15    17    1
    39    17    18    2
    40    17    19    2
    41    17    20    1
    42    20    21   ar
    43    21    22   ar
    44    22    23   ar
    45    23    27    1
    46    27    28    1
    47    28    29    1
    48    29    30    1
    49    23    24   ar
    50    24    25   ar
    51    25    26    1
    52     5     6   ar
    53     6     1   ar
    54    38    32   ar
    55    25    20   ar
    56    51    44    1
    57    29    27    1
    58     7    10    1
    59    58    59    1
    60    48    53    1
    61    50    54    1
    62    52    55    1
    63    15    16    1
