@<TRIPOS>MOLECULE
*****
 45 50 0 0 0
SMALL
GASTEIGER

@<TRIPOS>ATOM
      1 C          11.6770   80.5949   25.1963 C.ar    1  UNL1        0.0702
      2 C          11.0877   81.8494   25.0048 C.ar    1  UNL1        0.0191
      3 C          11.8634   82.9395   24.6078 C.ar    1  UNL1        0.0356
      4 C          13.2479   82.7773   24.4167 C.ar    1  UNL1        0.1318
      5 N          13.8000   81.5505   24.6365 N.ar    1  UNL1       -0.2279
      6 C          13.0639   80.4743   25.0195 C.ar    1  UNL1        0.1149
      7 N          14.0863   83.8794   23.9952 N.pl3   1  UNL1       -0.2932
      8 C          13.9441   85.2110   24.6117 C.3     1  UNL1        0.0923
      9 C          14.6628   86.2981   23.7987 C.3     1  UNL1        0.0252
     10 C          14.4023   86.0911   22.2966 C.3     1  UNL1        0.0472
     11 C          14.9209   84.7099   21.8122 C.3     1  UNL1        0.0252
     12 C          15.1043   83.6905   22.9493 C.3     1  UNL1        0.0923
     13 C          15.0173   87.2421   21.4776 C.3     1  UNL1        0.2054
     14 O          14.1127   87.6956   20.4688 O.3     1  UNL1       -0.4755
     15 C          14.2184   87.4265   19.0941 C.ar    1  UNL1        0.1388
     16 C          14.1128   88.4262   18.1134 C.ar    1  UNL1        0.0374
     17 C          14.2279   88.0989   16.7628 C.ar    1  UNL1        0.0100
     18 C          14.4479   86.7763   16.3626 C.ar    1  UNL1        0.0410
     19 BR         14.6551   86.4715   14.4770 Br      1  UNL1       -0.0488
     20 C          14.5530   85.7539   17.3390 C.ar    1  UNL1        0.0847
     21 C          14.4448   86.1043   18.6984 C.ar    1  UNL1        0.0438
     22 C          14.7719   84.3264   16.9940 C.2     1  UNL1        0.3386
     23 O          15.9080   83.9060   16.6496 O.2     1  UNL1       -0.2451
     24 O          13.7021   83.4348   17.0180 O.3     1  UNL1       -0.4771
     25 H          13.8310   82.4598   16.7748 H       1  UNL1        0.2954
     26 C          11.3972   78.2831   26.2076 C.2     1  UNL1        0.2839
     27 O          12.6304   78.0329   26.1366 O.2     1  UNL1       -0.2665
     28 N          10.8684   79.4865   25.6269 N.am    1  UNL1       -0.2766
     29 H           9.8430   79.5253   25.4278 H       1  UNL1        0.1553
     30 C           8.2738   77.8884   25.6063 C.3     1  UNL1        0.0345
     31 C           9.1218   77.1431   26.5926 C.ar    1  UNL1        0.0202
     32 C          10.4855   77.3192   26.8526 C.ar    1  UNL1        0.1946
     33 O          10.8797   76.4748   27.7892 O.2     1  UNL1       -0.4492
     34 C           9.8419   75.7604   28.1504 C.ar    1  UNL1        0.1452
     35 C           9.8033   74.7519   29.1068 C.ar    1  UNL1        0.0375
     36 C           8.5754   74.1080   29.3378 C.ar    1  UNL1        0.0031
     37 C           7.4104   74.4794   28.6138 C.ar    1  UNL1        0.0002
     38 C           7.4928   75.5120   27.6488 C.ar    1  UNL1        0.0028
     39 C           8.7278   76.1297   27.4455 C.ar    1  UNL1        0.0337
     40 C           6.1186   73.7918   28.8663 C.ar    1  UNL1        0.0000
     41 C           5.7172   72.7057   28.0652 C.ar    1  UNL1        0.0000
     42 C           4.4999   72.0608   28.3048 C.ar    1  UNL1        0.0000
     43 C           3.6716   72.4902   29.3439 C.ar    1  UNL1        0.0000
     44 C           4.0585   73.5662   30.1458 C.ar    1  UNL1        0.0000
     45 C           5.2743   74.2155   29.9103 C.ar    1  UNL1        0.0000
@<TRIPOS>BOND
     1    30    31    1
     2    31    32   ar
     3    32    26    1
     4    26    27    2
     5    26    28   am
     6    28     1    1
     7     1     2   ar
     8     2     3   ar
     9     3     4   ar
    10     4     7    1
    11     7     8    1
    12     8     9    1
    13     9    10    1
    14    10    13    1
    15    13    14    1
    16    14    15    1
    17    15    16   ar
    18    16    17   ar
    19    17    18   ar
    20    18    19    1
    21    18    20   ar
    22    20    22    1
    23    22    23    2
    24    22    24    1
    25    20    21   ar
    26    10    11    1
    27    11    12    1
    28     4     5   ar
    29     5     6   ar
    30    32    33   ar
    31    33    34   ar
    32    34    35   ar
    33    35    36   ar
    34    36    37   ar
    35    37    40    1
    36    40    41   ar
    37    41    42   ar
    38    42    43   ar
    39    43    44   ar
    40    44    45   ar
    41    37    38   ar
    42    38    39   ar
    43    39    31   ar
    44     6     1   ar
    45    39    34   ar
    46    12     7    1
    47    45    40   ar
    48    21    15   ar
    49    28    29    1
    50    24    25    1
@<TRIPOS>MOLECULE
*****
 45 50 0 0 0
SMALL
GASTEIGER

@<TRIPOS>ATOM
      1 C          11.9004   80.6226   25.0808 C.ar    1  UNL1        0.0702
      2 C          11.2214   81.8257   24.8591 C.ar    1  UNL1        0.0191
      3 C          11.9217   82.9702   24.4750 C.ar    1  UNL1        0.0356
      4 C          13.3198   82.9153   24.3278 C.ar    1  UNL1        0.1318
      5 N          13.9588   81.7372   24.5764 N.ar    1  UNL1       -0.2279
      6 C          13.2972   80.6096   24.9475 C.ar    1  UNL1        0.1149
      7 N          14.0825   84.0764   23.9210 N.pl3   1  UNL1       -0.2932
      8 C          13.7908   85.4048   24.4901 C.3     1  UNL1        0.0923
      9 C          14.4580   86.5311   23.6866 C.3     1  UNL1        0.0252
     10 C          14.3023   86.2660   22.1791 C.3     1  UNL1        0.0472
     11 C          14.9651   84.9245   21.7638 C.3     1  UNL1        0.0252
     12 C          15.1709   83.9528   22.9382 C.3     1  UNL1        0.0923
     13 C          14.8612   87.4466   21.3621 C.3     1  UNL1        0.2054
     14 O          13.9680   87.8104   20.3078 O.3     1  UNL1       -0.4755
     15 C          14.1220   87.4744   18.9525 C.ar    1  UNL1        0.1388
     16 C          14.0469   88.4240   17.9205 C.ar    1  UNL1        0.0374
     17 C          14.2097   88.0311   16.5924 C.ar    1  UNL1        0.0100
     18 C          14.4479   86.6915   16.2659 C.ar    1  UNL1        0.0410
     19 BR         14.7210   86.2952   14.4059 Br      1  UNL1       -0.0488
     20 C          14.5226   85.7191   17.2947 C.ar    1  UNL1        0.0847
     21 C          14.3665   86.1355   18.6306 C.ar    1  UNL1        0.0438
     22 C          14.7582   84.2774   17.0284 C.2     1  UNL1        0.3386
     23 O          15.9251   83.8064   16.9770 O.2     1  UNL1       -0.2451
     24 O          13.6779   83.4287   16.7989 O.3     1  UNL1       -0.4771
     25 H          13.8207   82.4447   16.6046 H       1  UNL1        0.2954
     26 C          10.1680   79.4632   26.5298 C.2     1  UNL1        0.2839
     27 O          10.0606   80.4519   27.3040 O.2     1  UNL1       -0.2665
     28 N          11.1677   79.4576   25.4976 N.am    1  UNL1       -0.2766
     29 H          11.4390   78.5374   25.0828 H       1  UNL1        0.1553
     30 C           8.2609   78.8456   29.0307 C.3     1  UNL1        0.0345
     31 C           8.4580   78.0161   27.7976 C.ar    1  UNL1        0.0202
     32 C           9.2925   78.2892   26.7079 C.ar    1  UNL1        0.1946
     33 O           9.1956   77.3236   25.8113 O.2     1  UNL1       -0.4492
     34 C           8.3417   76.4381   26.2635 C.ar    1  UNL1        0.1452
     35 C           7.9383   75.2612   25.6427 C.ar    1  UNL1        0.0375
     36 C           7.0028   74.4507   26.3087 C.ar    1  UNL1        0.0031
     37 C           6.4870   74.8261   27.5786 C.ar    1  UNL1        0.0002
     38 C           6.9245   76.0325   28.1762 C.ar    1  UNL1        0.0028
     39 C           7.8543   76.8126   27.4869 C.ar    1  UNL1        0.0337
     40 C           5.4988   73.9618   28.2727 C.ar    1  UNL1        0.0000
     41 C           4.7554   74.4562   29.3615 C.ar    1  UNL1        0.0000
     42 C           3.8264   73.6398   30.0137 C.ar    1  UNL1        0.0000
     43 C           3.6281   72.3246   29.5880 C.ar    1  UNL1        0.0000
     44 C           4.3590   71.8224   28.5091 C.ar    1  UNL1        0.0000
     45 C           5.2901   72.6340   27.8537 C.ar    1  UNL1        0.0000
@<TRIPOS>BOND
     1    30    31    1
     2    31    32   ar
     3    32    26    1
     4    26    27    2
     5    26    28   am
     6    28     1    1
     7     1     2   ar
     8     2     3   ar
     9     3     4   ar
    10     4     7    1
    11     7     8    1
    12     8     9    1
    13     9    10    1
    14    10    13    1
    15    13    14    1
    16    14    15    1
    17    15    16   ar
    18    16    17   ar
    19    17    18   ar
    20    18    19    1
    21    18    20   ar
    22    20    22    1
    23    22    23    2
    24    22    24    1
    25    20    21   ar
    26    10    11    1
    27    11    12    1
    28     4     5   ar
    29     5     6   ar
    30    32    33   ar
    31    33    34   ar
    32    34    35   ar
    33    35    36   ar
    34    36    37   ar
    35    37    40    1
    36    40    41   ar
    37    41    42   ar
    38    42    43   ar
    39    43    44   ar
    40    44    45   ar
    41    37    38   ar
    42    38    39   ar
    43    39    31   ar
    44     6     1   ar
    45    39    34   ar
    46    12     7    1
    47    45    40   ar
    48    21    15   ar
    49    28    29    1
    50    24    25    1
@<TRIPOS>MOLECULE
*****
 45 50 0 0 0
SMALL
GASTEIGER

@<TRIPOS>ATOM
      1 C          11.9002   80.8592   25.1175 C.ar    1  UNL1        0.0702
      2 C          11.1871   82.0439   24.9042 C.ar    1  UNL1        0.0191
      3 C          11.8572   83.2167   24.5531 C.ar    1  UNL1        0.0356
      4 C          13.2588   83.2088   24.4307 C.ar    1  UNL1        0.1318
      5 N          13.9305   82.0473   24.6705 N.ar    1  UNL1       -0.2279
      6 C          13.2989   80.8928   25.0097 C.ar    1  UNL1        0.1149
      7 N          13.9910   84.4006   24.0583 N.pl3   1  UNL1       -0.2932
      8 C          14.2054   85.4865   25.0321 C.3     1  UNL1        0.0923
      9 C          14.6850   86.7782   24.3532 C.3     1  UNL1        0.0252
     10 C          13.8858   87.0221   23.0613 C.3     1  UNL1        0.0472
     11 C          14.0636   85.8561   22.0513 C.3     1  UNL1        0.0252
     12 C          14.5446   84.5484   22.7027 C.3     1  UNL1        0.0923
     13 C          14.2729   88.3747   22.4334 C.3     1  UNL1        0.2054
     14 O          14.6871   88.2113   21.0757 O.3     1  UNL1       -0.4755
     15 C          13.9074   88.4966   19.9425 C.ar    1  UNL1        0.1388
     16 C          12.6113   89.0310   20.0263 C.ar    1  UNL1        0.0374
     17 C          11.8851   89.2953   18.8656 C.ar    1  UNL1        0.0100
     18 C          12.4307   89.0331   17.6041 C.ar    1  UNL1        0.0410
     19 BR         11.3527   89.5059   16.0857 Br      1  UNL1       -0.0488
     20 C          13.7361   88.4898   17.5011 C.ar    1  UNL1        0.0847
     21 C          14.4587   88.2392   18.6832 C.ar    1  UNL1        0.0438
     22 C          14.3786   88.1714   16.2009 C.2     1  UNL1        0.3386
     23 O          14.2491   87.0364   15.6706 O.2     1  UNL1       -0.2451
     24 O          15.1663   89.1272   15.5637 O.3     1  UNL1       -0.4771
     25 H          15.6212   88.9233   14.6817 H       1  UNL1        0.2954
     26 C          10.3456   79.5670   26.6533 C.2     1  UNL1        0.2839
     27 O          10.3701   80.4642   27.5381 O.2     1  UNL1       -0.2665
     28 N          11.1978   79.6642   25.5004 N.am    1  UNL1       -0.2766
     29 H          11.3857   78.7928   24.9547 H       1  UNL1        0.1553
     30 C           8.2338   79.0580   29.0099 C.3     1  UNL1        0.0345
     31 C           8.5460   78.1659   27.8463 C.ar    1  UNL1        0.0202
     32 C           9.4697   78.3916   26.8196 C.ar    1  UNL1        0.1946
     33 O           9.4610   77.3775   25.9728 O.2     1  UNL1       -0.4492
     34 C           8.5797   76.5054   26.3976 C.ar    1  UNL1        0.1452
     35 C           8.2438   75.2907   25.8103 C.ar    1  UNL1        0.0375
     36 C           7.2618   74.5038   26.4366 C.ar    1  UNL1        0.0031
     37 C           6.6334   74.9399   27.6344 C.ar    1  UNL1        0.0002
     38 C           7.0051   76.1833   28.1999 C.ar    1  UNL1        0.0028
     39 C           7.9837   76.9384   27.5516 C.ar    1  UNL1        0.0337
     40 C           5.5971   74.1001   28.2870 C.ar    1  UNL1        0.0000
     41 C           5.3110   72.8099   27.8014 C.ar    1  UNL1        0.0000
     42 C           4.3340   72.0219   28.4174 C.ar    1  UNL1        0.0000
     43 C           3.6335   72.5101   29.5225 C.ar    1  UNL1        0.0000
     44 C           3.9082   73.7882   30.0140 C.ar    1  UNL1        0.0000
     45 C           4.8835   74.5811   29.4014 C.ar    1  UNL1        0.0000
@<TRIPOS>BOND
     1    30    31    1
     2    31    32   ar
     3    32    26    1
     4    26    27    2
     5    26    28   am
     6    28     1    1
     7     1     2   ar
     8     2     3   ar
     9     3     4   ar
    10     4     7    1
    11     7     8    1
    12     8     9    1
    13     9    10    1
    14    10    13    1
    15    13    14    1
    16    14    15    1
    17    15    16   ar
    18    16    17   ar
    19    17    18   ar
    20    18    19    1
    21    18    20   ar
    22    20    22    1
    23    22    23    2
    24    22    24    1
    25    20    21   ar
    26    10    11    1
    27    11    12    1
    28     4     5   ar
    29     5     6   ar
    30    32    33   ar
    31    33    34   ar
    32    34    35   ar
    33    35    36   ar
    34    36    37   ar
    35    37    40    1
    36    40    41   ar
    37    41    42   ar
    38    42    43   ar
    39    43    44   ar
    40    44    45   ar
    41    37    38   ar
    42    38    39   ar
    43    39    31   ar
    44     6     1   ar
    45    39    34   ar
    46    12     7    1
    47    45    40   ar
    48    21    15   ar
    49    28    29    1
    50    24    25    1
@<TRIPOS>MOLECULE
*****
 45 50 0 0 0
SMALL
GASTEIGER

@<TRIPOS>ATOM
      1 C          10.9371   81.3634   24.7697 C.ar    1  UNL1        0.0702
      2 C          10.7393   80.8720   26.0648 C.ar    1  UNL1        0.0191
      3 C          10.0312   79.6868   26.2687 C.ar    1  UNL1        0.0356
      4 C           9.4995   78.9938   25.1657 C.ar    1  UNL1        0.1318
      5 N           9.6841   79.5094   23.9175 N.ar    1  UNL1       -0.2279
      6 C          10.3733   80.6593   23.6948 C.ar    1  UNL1        0.1149
      7 N           8.7680   77.7560   25.3328 N.pl3   1  UNL1       -0.2932
      8 C           8.0449   77.1510   24.1994 C.3     1  UNL1        0.0923
      9 C           7.0684   76.0588   24.6606 C.3     1  UNL1        0.0252
     10 C           6.3166   76.5223   25.9204 C.3     1  UNL1        0.0472
     11 C           7.2926   76.8171   27.0916 C.3     1  UNL1        0.0252
     12 C           8.7393   77.0712   26.6351 C.3     1  UNL1        0.0923
     13 C           5.2490   75.4875   26.3242 C.3     1  UNL1        0.2054
     14 O           3.9504   76.0813   26.3736 O.3     1  UNL1       -0.4755
     15 C           3.3210   76.7613   25.3177 C.ar    1  UNL1        0.1388
     16 C           2.5450   77.9157   25.5121 C.ar    1  UNL1        0.0374
     17 C           1.9453   78.5493   24.4243 C.ar    1  UNL1        0.0100
     18 C           2.1036   78.0486   23.1273 C.ar    1  UNL1        0.0410
     19 BR          1.2817   79.0537   21.7112 Br      1  UNL1       -0.0488
     20 C           2.8800   76.8820   22.9133 C.ar    1  UNL1        0.0847
     21 C           3.4868   76.2615   24.0221 C.ar    1  UNL1        0.0438
     22 C           3.0835   76.2817   21.5706 C.2     1  UNL1        0.3386
     23 O           2.5925   75.1597   21.2771 O.2     1  UNL1       -0.2451
     24 O           3.8557   76.9485   20.6223 O.3     1  UNL1       -0.4771
     25 H           4.0142   76.5485   19.7051 H       1  UNL1        0.2954
     26 C          12.7867   82.9996   25.3586 C.2     1  UNL1        0.2839
     27 O          13.0654   82.3977   26.4303 O.2     1  UNL1       -0.2665
     28 N          11.6497   82.5975   24.5774 N.am    1  UNL1       -0.2766
     29 H          11.2654   83.2789   23.8843 H       1  UNL1        0.1553
     30 C          15.0202   83.0105   23.0598 C.3     1  UNL1        0.0345
     31 C          14.5806   84.1566   23.9203 C.ar    1  UNL1        0.0202
     32 C          13.6052   84.1474   24.9238 C.ar    1  UNL1        0.1946
     33 O          13.4970   85.3501   25.4599 O.2     1  UNL1       -0.4492
     34 C          14.3522   86.1388   24.8563 C.ar    1  UNL1        0.1452
     35 C          14.5738   87.4892   25.1024 C.ar    1  UNL1        0.0375
     36 C          15.5453   88.1501   24.3310 C.ar    1  UNL1        0.0031
     37 C          16.2774   87.4554   23.3305 C.ar    1  UNL1        0.0002
     38 C          16.0214   86.0804   23.1121 C.ar    1  UNL1        0.0028
     39 C          15.0501   85.4561   23.8965 C.ar    1  UNL1        0.0337
     40 C          17.3013   88.1643   22.5215 C.ar    1  UNL1        0.0000
     41 C          17.0220   88.5580   21.1989 C.ar    1  UNL1        0.0000
     42 C          17.9884   89.2244   20.4393 C.ar    1  UNL1        0.0000
     43 C          19.2410   89.5057   20.9890 C.ar    1  UNL1        0.0000
     44 C          19.5303   89.1206   22.2999 C.ar    1  UNL1        0.0000
     45 C          18.5681   88.4531   23.0639 C.ar    1  UNL1        0.0000
@<TRIPOS>BOND
     1    30    31    1
     2    31    32   ar
     3    32    26    1
     4    26    27    2
     5    26    28   am
     6    28     1    1
     7     1     2   ar
     8     2     3   ar
     9     3     4   ar
    10     4     7    1
    11     7     8    1
    12     8     9    1
    13     9    10    1
    14    10    13    1
    15    13    14    1
    16    14    15    1
    17    15    16   ar
    18    16    17   ar
    19    17    18   ar
    20    18    19    1
    21    18    20   ar
    22    20    22    1
    23    22    23    2
    24    22    24    1
    25    20    21   ar
    26    10    11    1
    27    11    12    1
    28     4     5   ar
    29     5     6   ar
    30    32    33   ar
    31    33    34   ar
    32    34    35   ar
    33    35    36   ar
    34    36    37   ar
    35    37    40    1
    36    40    41   ar
    37    41    42   ar
    38    42    43   ar
    39    43    44   ar
    40    44    45   ar
    41    37    38   ar
    42    38    39   ar
    43    39    31   ar
    44     6     1   ar
    45    39    34   ar
    46    12     7    1
    47    45    40   ar
    48    21    15   ar
    49    28    29    1
    50    24    25    1
@<TRIPOS>MOLECULE
*****
 45 50 0 0 0
SMALL
GASTEIGER

@<TRIPOS>ATOM
      1 C          11.9925   80.8498   25.4733 C.ar    1  UNL1        0.0702
      2 C          13.3825   80.9705   25.3696 C.ar    1  UNL1        0.0191
      3 C          13.9503   82.1055   24.7891 C.ar    1  UNL1        0.0356
      4 C          13.1177   83.1242   24.2905 C.ar    1  UNL1        0.1318
      5 N          11.7666   82.9682   24.3802 N.ar    1  UNL1       -0.2279
      6 C          11.1917   81.8738   24.9447 C.ar    1  UNL1        0.1149
      7 N          13.6662   84.3219   23.6906 N.pl3   1  UNL1       -0.2932
      8 C          14.8667   84.2537   22.8375 C.3     1  UNL1        0.0923
      9 C          15.4764   85.6424   22.5948 C.3     1  UNL1        0.0252
     10 C          15.4823   86.4511   23.9036 C.3     1  UNL1        0.0472
     11 C          14.0457   86.6495   24.4587 C.3     1  UNL1        0.0252
     12 C          13.0310   85.6308   23.9124 C.3     1  UNL1        0.0923
     13 C          16.1994   87.7998   23.7026 C.3     1  UNL1        0.2054
     14 O          15.3025   88.7873   23.1906 O.3     1  UNL1       -0.4755
     15 C          14.9032   88.9133   21.8497 C.ar    1  UNL1        0.1388
     16 C          15.7572   89.3948   20.8441 C.ar    1  UNL1        0.0374
     17 C          15.3050   89.4963   19.5289 C.ar    1  UNL1        0.0100
     18 C          13.9997   89.1237   19.1895 C.ar    1  UNL1        0.0410
     19 BR         13.5251   89.2484   17.3320 Br      1  UNL1       -0.0488
     20 C          13.1229   88.6395   20.1927 C.ar    1  UNL1        0.0847
     21 C          13.5998   88.5338   21.5132 C.ar    1  UNL1        0.0438
     22 C          11.7206   88.2377   19.9151 C.2     1  UNL1        0.3386
     23 O          10.9030   89.0421   19.3950 O.2     1  UNL1       -0.2451
     24 O          11.2831   86.9614   20.2612 O.3     1  UNL1       -0.4771
     25 H          10.3269   86.6741   20.0894 H       1  UNL1        0.2954
     26 C          10.6083   79.6606   27.2383 C.2     1  UNL1        0.2839
     27 O          10.5612   80.6792   27.9791 O.2     1  UNL1       -0.2665
     28 N          11.4219   79.6643   26.0539 N.am    1  UNL1       -0.2766
     29 H          11.6848   78.7427   25.6368 H       1  UNL1        0.1553
     30 C           7.4230   79.3254   27.3583 C.3     1  UNL1        0.0345
     31 C           8.4682   78.2943   27.6610 C.ar    1  UNL1        0.0202
     32 C           9.8585   78.4451   27.6081 C.ar    1  UNL1        0.1946
     33 O          10.4491   77.3115   27.9423 O.2     1  UNL1       -0.4492
     34 C           9.5137   76.4334   28.2098 C.ar    1  UNL1        0.1452
     35 C           9.6853   75.1103   28.6016 C.ar    1  UNL1        0.0375
     36 C           8.5354   74.3372   28.8372 C.ar    1  UNL1        0.0031
     37 C           7.2377   74.8944   28.6788 C.ar    1  UNL1        0.0002
     38 C           7.1071   76.2461   28.2789 C.ar    1  UNL1        0.0028
     39 C           8.2701   76.9843   28.0538 C.ar    1  UNL1        0.0337
     40 C           6.0300   74.0677   28.9304 C.ar    1  UNL1        0.0000
     41 C           5.7371   72.9606   28.1113 C.ar    1  UNL1        0.0000
     42 C           4.5987   72.1847   28.3500 C.ar    1  UNL1        0.0000
     43 C           3.7421   72.5027   29.4061 C.ar    1  UNL1        0.0000
     44 C           4.0218   73.5982   30.2259 C.ar    1  UNL1        0.0000
     45 C           5.1583   74.3783   29.9914 C.ar    1  UNL1        0.0000
@<TRIPOS>BOND
     1    30    31    1
     2    31    32   ar
     3    32    26    1
     4    26    27    2
     5    26    28   am
     6    28     1    1
     7     1     2   ar
     8     2     3   ar
     9     3     4   ar
    10     4     7    1
    11     7     8    1
    12     8     9    1
    13     9    10    1
    14    10    13    1
    15    13    14    1
    16    14    15    1
    17    15    16   ar
    18    16    17   ar
    19    17    18   ar
    20    18    19    1
    21    18    20   ar
    22    20    22    1
    23    22    23    2
    24    22    24    1
    25    20    21   ar
    26    10    11    1
    27    11    12    1
    28     4     5   ar
    29     5     6   ar
    30    32    33   ar
    31    33    34   ar
    32    34    35   ar
    33    35    36   ar
    34    36    37   ar
    35    37    40    1
    36    40    41   ar
    37    41    42   ar
    38    42    43   ar
    39    43    44   ar
    40    44    45   ar
    41    37    38   ar
    42    38    39   ar
    43    39    31   ar
    44     6     1   ar
    45    39    34   ar
    46    12     7    1
    47    45    40   ar
    48    21    15   ar
    49    28    29    1
    50    24    25    1
@<TRIPOS>MOLECULE
*****
 45 50 0 0 0
SMALL
GASTEIGER

@<TRIPOS>ATOM
      1 C          10.5056   80.8726   24.8699 C.ar    1  UNL1        0.0702
      2 C          10.2422   80.3792   26.1524 C.ar    1  UNL1        0.0191
      3 C           9.5237   79.1943   26.3181 C.ar    1  UNL1        0.0356
      4 C           9.0478   78.5038   25.1884 C.ar    1  UNL1        0.1318
      5 N           9.2957   79.0214   23.9520 N.ar    1  UNL1       -0.2279
      6 C           9.9962   80.1711   23.7665 C.ar    1  UNL1        0.1149
      7 N           8.3078   77.2663   25.3160 N.pl3   1  UNL1       -0.2932
      8 C           8.9854   75.9659   25.1644 C.3     1  UNL1        0.0923
      9 C           7.9833   74.8150   24.9894 C.3     1  UNL1        0.0252
     10 C           6.8593   75.2371   24.0272 C.3     1  UNL1        0.0472
     11 C           6.0827   76.4706   24.5626 C.3     1  UNL1        0.0252
     12 C           6.8656   77.2813   25.6093 C.3     1  UNL1        0.0923
     13 C           5.9131   74.0535   23.7489 C.3     1  UNL1        0.2054
     14 O           5.9377   73.6898   22.3673 O.3     1  UNL1       -0.4755
     15 C           5.2584   74.3558   21.3337 C.ar    1  UNL1        0.1388
     16 C           5.5347   74.1324   19.9749 C.ar    1  UNL1        0.0374
     17 C           4.8259   74.8226   18.9922 C.ar    1  UNL1        0.0100
     18 C           3.8336   75.7457   19.3400 C.ar    1  UNL1        0.0410
     19 BR          2.8863   76.5773   17.8901 Br      1  UNL1       -0.0488
     20 C           3.5446   75.9866   20.7068 C.ar    1  UNL1        0.0847
     21 C           4.2628   75.2729   21.6852 C.ar    1  UNL1        0.0438
     22 C           2.5170   76.9597   21.1562 C.2     1  UNL1        0.3386
     23 O           2.8397   78.1068   21.5636 O.2     1  UNL1       -0.2451
     24 O           1.1723   76.5962   21.1610 O.3     1  UNL1       -0.4771
     25 H           0.4589   77.2435   21.4748 H       1  UNL1        0.2954
     26 C          12.6595   82.2137   24.7830 C.2     1  UNL1        0.2839
     27 O          13.3470   81.2593   25.2356 O.2     1  UNL1       -0.2665
     28 N          11.2281   82.1064   24.7160 N.am    1  UNL1       -0.2766
     29 H          10.6736   82.9887   24.6348 H       1  UNL1        0.1553
     30 C          15.5671   82.4991   23.4649 C.3     1  UNL1        0.0345
     31 C          14.5898   83.5909   23.7815 C.ar    1  UNL1        0.0202
     32 C          13.3211   83.4620   24.3579 C.ar    1  UNL1        0.1946
     33 O          12.7569   84.6505   24.4792 O.2     1  UNL1       -0.4492
     34 C          13.5944   85.5437   24.0117 C.ar    1  UNL1        0.1452
     35 C          13.4090   86.9200   23.9433 C.ar    1  UNL1        0.0375
     36 C          14.4442   87.6993   23.3985 C.ar    1  UNL1        0.0031
     37 C          15.6431   87.0950   22.9326 C.ar    1  UNL1        0.0002
     38 C          15.7918   85.6900   23.0210 C.ar    1  UNL1        0.0028
     39 C          14.7440   84.9474   23.5677 C.ar    1  UNL1        0.0337
     40 C          16.7299   87.9286   22.3587 C.ar    1  UNL1        0.0000
     41 C          16.6289   88.4332   21.0482 C.ar    1  UNL1        0.0000
     42 C          17.6542   89.2169   20.5101 C.ar    1  UNL1        0.0000
     43 C          18.7887   89.5063   21.2714 C.ar    1  UNL1        0.0000
     44 C          18.9007   89.0120   22.5728 C.ar    1  UNL1        0.0000
     45 C          17.8789   88.2269   23.1157 C.ar    1  UNL1        0.0000
@<TRIPOS>BOND
     1    30    31    1
     2    31    32   ar
     3    32    26    1
     4    26    27    2
     5    26    28   am
     6    28     1    1
     7     1     2   ar
     8     2     3   ar
     9     3     4   ar
    10     4     7    1
    11     7     8    1
    12     8     9    1
    13     9    10    1
    14    10    13    1
    15    13    14    1
    16    14    15    1
    17    15    16   ar
    18    16    17   ar
    19    17    18   ar
    20    18    19    1
    21    18    20   ar
    22    20    22    1
    23    22    23    2
    24    22    24    1
    25    20    21   ar
    26    10    11    1
    27    11    12    1
    28     4     5   ar
    29     5     6   ar
    30    32    33   ar
    31    33    34   ar
    32    34    35   ar
    33    35    36   ar
    34    36    37   ar
    35    37    40    1
    36    40    41   ar
    37    41    42   ar
    38    42    43   ar
    39    43    44   ar
    40    44    45   ar
    41    37    38   ar
    42    38    39   ar
    43    39    31   ar
    44     6     1   ar
    45    39    34   ar
    46    12     7    1
    47    45    40   ar
    48    21    15   ar
    49    28    29    1
    50    24    25    1
@<TRIPOS>MOLECULE
*****
 45 50 0 0 0
SMALL
GASTEIGER

@<TRIPOS>ATOM
      1 C          11.4884   81.0950   25.7542 C.ar    1  UNL1        0.0702
      2 C          11.2821   81.5950   24.4638 C.ar    1  UNL1        0.0191
      3 C          12.0964   82.6119   23.9631 C.ar    1  UNL1        0.0356
      4 C          13.1181   83.1471   24.7687 C.ar    1  UNL1        0.1318
      5 N          13.2794   82.6599   26.0315 N.ar    1  UNL1       -0.2279
      6 C          12.5012   81.6678   26.5385 C.ar    1  UNL1        0.1149
      7 N          13.9913   84.1949   24.2840 N.pl3   1  UNL1       -0.2932
      8 C          13.9286   85.5514   24.8580 C.3     1  UNL1        0.0923
      9 C          14.6691   86.5768   23.9864 C.3     1  UNL1        0.0252
     10 C          14.3519   86.3321   22.5009 C.3     1  UNL1        0.0472
     11 C          14.7924   84.9132   22.0493 C.3     1  UNL1        0.0252
     12 C          14.9660   83.9249   23.2150 C.3     1  UNL1        0.0923
     13 C          14.9915   87.4257   21.6242 C.3     1  UNL1        0.2054
     14 O          14.4456   87.4106   20.3039 O.3     1  UNL1       -0.4755
     15 C          14.3314   86.2795   19.4786 C.ar    1  UNL1        0.1388
     16 C          13.1137   85.8747   18.9077 C.ar    1  UNL1        0.0374
     17 C          13.0621   84.7430   18.0946 C.ar    1  UNL1        0.0100
     18 C          14.2152   83.9940   17.8354 C.ar    1  UNL1        0.0410
     19 BR         14.0199   82.4985   16.6453 Br      1  UNL1       -0.0488
     20 C          15.4519   84.3859   18.4069 C.ar    1  UNL1        0.0847
     21 C          15.4874   85.5372   19.2167 C.ar    1  UNL1        0.0438
     22 C          16.7154   83.6364   18.1910 C.2     1  UNL1        0.3386
     23 O          17.6048   84.0691   17.4113 O.2     1  UNL1       -0.2451
     24 O          16.9171   82.4169   18.8329 O.3     1  UNL1       -0.4771
     25 H          17.7683   81.8867   18.6886 H       1  UNL1        0.2954
     26 C          10.0262   80.0885   27.5691 C.2     1  UNL1        0.2839
     27 O          10.4309   80.9069   28.4380 O.2     1  UNL1       -0.2665
     28 N          10.6270   80.0626   26.2641 N.am    1  UNL1       -0.2766
     29 H          10.4991   79.2037   25.6824 H       1  UNL1        0.1553
     30 C          10.0260   76.9370   26.9856 C.3     1  UNL1        0.0345
     31 C           8.9562   77.7489   27.6516 C.ar    1  UNL1        0.0202
     32 C           8.9599   79.1254   27.9038 C.ar    1  UNL1        0.1946
     33 O           7.8402   79.4767   28.5107 O.2     1  UNL1       -0.4492
     34 C           7.1102   78.3992   28.6647 C.ar    1  UNL1        0.1452
     35 C           5.8553   78.3075   29.2566 C.ar    1  UNL1        0.0375
     36 C           5.2460   77.0425   29.3195 C.ar    1  UNL1        0.0031
     37 C           5.8959   75.8937   28.7927 C.ar    1  UNL1        0.0002
     38 C           7.1731   76.0308   28.1977 C.ar    1  UNL1        0.0028
     39 C           7.7483   77.3017   28.1522 C.ar    1  UNL1        0.0337
     40 C           5.2424   74.5622   28.8651 C.ar    1  UNL1        0.0000
     41 C           4.2588   74.2994   29.8377 C.ar    1  UNL1        0.0000
     42 C           3.6460   73.0444   29.9040 C.ar    1  UNL1        0.0000
     43 C           4.0056   72.0400   29.0029 C.ar    1  UNL1        0.0000
     44 C           4.9796   72.2882   28.0333 C.ar    1  UNL1        0.0000
     45 C           5.5966   73.5410   27.9628 C.ar    1  UNL1        0.0000
@<TRIPOS>BOND
     1    30    31    1
     2    31    32   ar
     3    32    26    1
     4    26    27    2
     5    26    28   am
     6    28     1    1
     7     1     2   ar
     8     2     3   ar
     9     3     4   ar
    10     4     7    1
    11     7     8    1
    12     8     9    1
    13     9    10    1
    14    10    13    1
    15    13    14    1
    16    14    15    1
    17    15    16   ar
    18    16    17   ar
    19    17    18   ar
    20    18    19    1
    21    18    20   ar
    22    20    22    1
    23    22    23    2
    24    22    24    1
    25    20    21   ar
    26    10    11    1
    27    11    12    1
    28     4     5   ar
    29     5     6   ar
    30    32    33   ar
    31    33    34   ar
    32    34    35   ar
    33    35    36   ar
    34    36    37   ar
    35    37    40    1
    36    40    41   ar
    37    41    42   ar
    38    42    43   ar
    39    43    44   ar
    40    44    45   ar
    41    37    38   ar
    42    38    39   ar
    43    39    31   ar
    44     6     1   ar
    45    39    34   ar
    46    12     7    1
    47    45    40   ar
    48    21    15   ar
    49    28    29    1
    50    24    25    1
@<TRIPOS>MOLECULE
*****
 45 50 0 0 0
SMALL
GASTEIGER

@<TRIPOS>ATOM
      1 C           8.4982   78.0559   22.8764 C.ar    1  UNL1        0.0702
      2 C           8.8838   79.3203   22.4180 C.ar    1  UNL1        0.0191
      3 C           9.8337   80.0649   23.1189 C.ar    1  UNL1        0.0356
      4 C          10.3917   79.5462   24.3018 C.ar    1  UNL1        0.1318
      5 N           9.9778   78.3236   24.7398 N.ar    1  UNL1       -0.2279
      6 C           9.0575   77.5795   24.0719 C.ar    1  UNL1        0.1149
      7 N          11.3871   80.2814   25.0528 N.pl3   1  UNL1       -0.2932
      8 C          10.9870   81.3494   25.9869 C.3     1  UNL1        0.0923
      9 C          12.1807   82.2203   26.4063 C.3     1  UNL1        0.0252
     10 C          13.0623   82.5293   25.1838 C.3     1  UNL1        0.0472
     11 C          13.6199   81.2313   24.5392 C.3     1  UNL1        0.0252
     12 C          12.8182   79.9710   24.9061 C.3     1  UNL1        0.0923
     13 C          14.1961   83.4998   25.5664 C.3     1  UNL1        0.2054
     14 O          13.9607   84.8026   25.0289 O.3     1  UNL1       -0.4755
     15 C          14.0267   85.1511   23.6696 C.ar    1  UNL1        0.1388
     16 C          14.9792   84.6092   22.7912 C.ar    1  UNL1        0.0374
     17 C          14.9951   84.9922   21.4505 C.ar    1  UNL1        0.0100
     18 C          14.0688   85.9188   20.9593 C.ar    1  UNL1        0.0410
     19 BR         14.1561   86.3087   19.0801 Br      1  UNL1       -0.0488
     20 C          13.1030   86.4790   21.8329 C.ar    1  UNL1        0.0847
     21 C          13.0951   86.0727   23.1810 C.ar    1  UNL1        0.0438
     22 C          12.0966   87.4775   21.3915 C.2     1  UNL1        0.3386
     23 O          12.1625   88.6783   21.7653 O.2     1  UNL1       -0.2451
     24 O          11.0394   87.0827   20.5751 O.3     1  UNL1       -0.4771
     25 H          10.3375   87.7481   20.2735 H       1  UNL1        0.2954
     26 C           6.2505   76.8860   22.7196 C.2     1  UNL1        0.2839
     27 O           6.0688   76.9300   23.9660 O.2     1  UNL1       -0.2665
     28 N           7.5021   77.3103   22.1554 N.am    1  UNL1       -0.2766
     29 H           7.7398   76.9864   21.1905 H       1  UNL1        0.1553
     30 C           3.1845   76.3648   23.4947 C.3     1  UNL1        0.0345
     31 C           3.8514   76.1307   22.1727 C.ar    1  UNL1        0.0202
     32 C           5.1910   76.3590   21.8385 C.ar    1  UNL1        0.1946
     33 O           5.4038   76.0332   20.5759 O.2     1  UNL1       -0.4492
     34 C           4.2714   75.6049   20.0741 C.ar    1  UNL1        0.1452
     35 C           4.0374   75.1607   18.7774 C.ar    1  UNL1        0.0375
     36 C           2.7362   74.7442   18.4470 C.ar    1  UNL1        0.0031
     37 C           1.6935   74.7774   19.4120 C.ar    1  UNL1        0.0002
     38 C           1.9743   75.2363   20.7214 C.ar    1  UNL1        0.0028
     39 C           3.2772   75.6418   21.0147 C.ar    1  UNL1        0.0337
     40 C           0.3226   74.3351   19.0512 C.ar    1  UNL1        0.0000
     41 C          -0.7482   75.2494   19.0530 C.ar    1  UNL1        0.0000
     42 C          -2.0382   74.8298   18.7138 C.ar    1  UNL1        0.0000
     43 C          -2.2741   73.4972   18.3691 C.ar    1  UNL1        0.0000
     44 C          -1.2204   72.5807   18.3633 C.ar    1  UNL1        0.0000
     45 C           0.0715   72.9944   18.7024 C.ar    1  UNL1        0.0000
@<TRIPOS>BOND
     1    30    31    1
     2    31    32   ar
     3    32    26    1
     4    26    27    2
     5    26    28   am
     6    28     1    1
     7     1     2   ar
     8     2     3   ar
     9     3     4   ar
    10     4     7    1
    11     7     8    1
    12     8     9    1
    13     9    10    1
    14    10    13    1
    15    13    14    1
    16    14    15    1
    17    15    16   ar
    18    16    17   ar
    19    17    18   ar
    20    18    19    1
    21    18    20   ar
    22    20    22    1
    23    22    23    2
    24    22    24    1
    25    20    21   ar
    26    10    11    1
    27    11    12    1
    28     4     5   ar
    29     5     6   ar
    30    32    33   ar
    31    33    34   ar
    32    34    35   ar
    33    35    36   ar
    34    36    37   ar
    35    37    40    1
    36    40    41   ar
    37    41    42   ar
    38    42    43   ar
    39    43    44   ar
    40    44    45   ar
    41    37    38   ar
    42    38    39   ar
    43    39    31   ar
    44     6     1   ar
    45    39    34   ar
    46    12     7    1
    47    45    40   ar
    48    21    15   ar
    49    28    29    1
    50    24    25    1
@<TRIPOS>MOLECULE
*****
 45 50 0 0 0
SMALL
GASTEIGER

@<TRIPOS>ATOM
      1 C          10.0813   80.3410   25.8098 C.ar    1  UNL1        0.0702
      2 C           9.5991   79.8359   27.0222 C.ar    1  UNL1        0.0191
      3 C           8.6017   78.8598   27.0324 C.ar    1  UNL1        0.0356
      4 C           8.0678   78.3958   25.8162 C.ar    1  UNL1        0.1318
      5 N           8.5371   78.9248   24.6509 N.ar    1  UNL1       -0.2279
      6 C           9.5102   79.8728   24.6166 C.ar    1  UNL1        0.1149
      7 N           7.0400   77.3772   25.7824 N.pl3   1  UNL1       -0.2932
      8 C           6.8584   76.5314   24.5886 C.3     1  UNL1        0.0923
      9 C           5.5224   75.7743   24.6209 C.3     1  UNL1        0.0252
     10 C           4.3996   76.7078   25.1058 C.3     1  UNL1        0.0472
     11 C           4.6806   77.2440   26.5359 C.3     1  UNL1        0.0252
     12 C           6.1615   77.1587   26.9428 C.3     1  UNL1        0.0923
     13 C           3.0348   75.9972   25.0292 C.3     1  UNL1        0.2054
     14 O           2.2327   76.5370   23.9772 O.3     1  UNL1       -0.4755
     15 C           2.7001   76.9349   22.7136 C.ar    1  UNL1        0.1388
     16 C           3.1303   78.2434   22.4396 C.ar    1  UNL1        0.0374
     17 C           3.5861   78.5796   21.1653 C.ar    1  UNL1        0.0100
     18 C           3.6215   77.6255   20.1425 C.ar    1  UNL1        0.0410
     19 BR          4.3343   78.2010   18.4537 Br      1  UNL1       -0.0488
     20 C           3.1871   76.3010   20.4004 C.ar    1  UNL1        0.0847
     21 C           2.7401   75.9767   21.6956 C.ar    1  UNL1        0.0438
     22 C           3.1810   75.2364   19.3653 C.2     1  UNL1        0.3386
     23 O           4.1674   75.0646   18.6014 O.2     1  UNL1       -0.2451
     24 O           2.0572   74.4288   19.2072 O.3     1  UNL1       -0.4771
     25 H           2.0314   73.7050   18.4988 H       1  UNL1        0.2954
     26 C          12.0468   81.5564   24.7585 C.2     1  UNL1        0.2839
     27 O          12.2052   80.6701   23.8764 O.2     1  UNL1       -0.2665
     28 N          11.0935   81.3624   25.8161 N.am    1  UNL1       -0.2766
     29 H          11.1941   81.9431   26.6793 H       1  UNL1        0.1553
     30 C          13.6960   82.8233   27.1972 C.3     1  UNL1        0.0345
     31 C          13.5928   83.3359   25.7923 C.ar    1  UNL1        0.0202
     32 C          12.8707   82.7798   24.7302 C.ar    1  UNL1        0.1946
     33 O          13.0251   83.5162   23.6442 O.2     1  UNL1       -0.4492
     34 C          13.8097   84.5214   23.9471 C.ar    1  UNL1        0.1452
     35 C          14.2380   85.5412   23.1046 C.ar    1  UNL1        0.0375
     36 C          15.0858   86.5267   23.6391 C.ar    1  UNL1        0.0031
     37 C          15.4909   86.4790   25.0004 C.ar    1  UNL1        0.0002
     38 C          15.0316   85.4235   25.8244 C.ar    1  UNL1        0.0028
     39 C          14.1909   84.4625   25.2607 C.ar    1  UNL1        0.0337
     40 C          16.3872   87.5257   25.5539 C.ar    1  UNL1        0.0000
     41 C          17.5246   87.9458   24.8383 C.ar    1  UNL1        0.0000
     42 C          18.3671   88.9309   25.3625 C.ar    1  UNL1        0.0000
     43 C          18.0852   89.5072   26.6029 C.ar    1  UNL1        0.0000
     44 C          16.9599   89.0993   27.3224 C.ar    1  UNL1        0.0000
     45 C          16.1143   88.1140   26.8036 C.ar    1  UNL1        0.0000
@<TRIPOS>BOND
     1    30    31    1
     2    31    32   ar
     3    32    26    1
     4    26    27    2
     5    26    28   am
     6    28     1    1
     7     1     2   ar
     8     2     3   ar
     9     3     4   ar
    10     4     7    1
    11     7     8    1
    12     8     9    1
    13     9    10    1
    14    10    13    1
    15    13    14    1
    16    14    15    1
    17    15    16   ar
    18    16    17   ar
    19    17    18   ar
    20    18    19    1
    21    18    20   ar
    22    20    22    1
    23    22    23    2
    24    22    24    1
    25    20    21   ar
    26    10    11    1
    27    11    12    1
    28     4     5   ar
    29     5     6   ar
    30    32    33   ar
    31    33    34   ar
    32    34    35   ar
    33    35    36   ar
    34    36    37   ar
    35    37    40    1
    36    40    41   ar
    37    41    42   ar
    38    42    43   ar
    39    43    44   ar
    40    44    45   ar
    41    37    38   ar
    42    38    39   ar
    43    39    31   ar
    44     6     1   ar
    45    39    34   ar
    46    12     7    1
    47    45    40   ar
    48    21    15   ar
    49    28    29    1
    50    24    25    1
