@<TRIPOS>MOLECULE
*****
 50 55 0 0 0
SMALL
GASTEIGER

@<TRIPOS>ATOM
      1 O          10.0547   76.3721   26.7330 O.2     1  UNL1       -0.2701
      2 C           8.9882   77.0459   26.7249 C.2     1  UNL1        0.2483
      3 N           8.7816   78.0666   27.7144 N.am    1  UNL1       -0.2945
      4 H           7.8280   78.4815   27.8162 H       1  UNL1        0.1501
      5 C           7.9507   76.7471   25.7128 C.ar    1  UNL1        0.0808
      6 C           8.3343   76.2913   24.4414 C.ar    1  UNL1        0.0080
      7 C           7.3731   75.9971   23.4714 C.ar    1  UNL1        0.0148
      8 C           6.0044   76.1609   23.7476 C.ar    1  UNL1        0.0502
      9 C           5.6225   76.6391   25.0131 C.ar    1  UNL1        0.0443
     10 C           6.5824   76.9325   25.9868 C.ar    1  UNL1        0.1457
     11 F           6.1701   77.4418   27.1753 F       1  UNL1       -0.2040
     12 N           5.0089   75.8613   22.7436 N.pl3   1  UNL1       -0.3040
     13 C           5.2866   74.8650   21.6992 C.3     1  UNL1        0.1123
     14 C           4.0003   74.1462   21.2779 C.3     1  UNL1        0.1136
     15 N           2.9144   75.0945   20.9769 N.pl3   1  UNL1       -0.2897
     16 C           3.0636   76.5109   21.3405 C.3     1  UNL1        0.1136
     17 C           3.7661   76.6473   22.6948 C.3     1  UNL1        0.1123
     18 C           1.7674   74.6718   20.2050 C.ar    1  UNL1        0.1341
     19 C           1.1085   75.5525   19.3303 C.ar    1  UNL1        0.0344
     20 C           0.0039   75.1074   18.6026 C.ar    1  UNL1        0.0106
     21 C          -0.4514   73.7866   18.7424 C.ar    1  UNL1        0.1173
     22 C           0.2392   72.9342   19.6194 C.ar    1  UNL1        0.2273
     23 F          -0.1525   71.6454   19.7810 F       1  UNL1       -0.1832
     24 N           1.3122   73.3924   20.3164 N.ar    1  UNL1       -0.2031
     25 C          -1.6376   73.2723   17.9636 C.3     1  UNL1        0.4221
     26 F          -1.6641   71.8910   18.0254 F       1  UNL1       -0.1657
     27 F          -2.8046   73.7716   18.5133 F       1  UNL1       -0.1657
     28 F          -1.5814   73.6538   16.6340 F       1  UNL1       -0.1657
     29 C           9.8540   78.4979   28.6201 C.3     1  UNL1        0.1535
     30 C          10.0083   80.0024   28.5706 C.2     1  UNL1        0.2443
     31 O           9.8083   80.6768   29.6171 O.2     1  UNL1       -0.2730
     32 N          10.5126   80.6728   27.4037 N.am    1  UNL1       -0.2825
     33 H          10.9902   81.5924   27.5397 H       1  UNL1        0.1549
     34 C          10.5188   80.1037   26.0876 C.ar    1  UNL1        0.0535
     35 C          11.5812   79.2834   25.6904 C.ar    1  UNL1        0.0353
     36 C          11.5897   78.7449   24.4012 C.ar    1  UNL1        0.1002
     37 N          10.5823   79.0341   23.5348 N.ar    1  UNL1       -0.2422
     38 C           9.5523   79.8490   23.8865 C.ar    1  UNL1        0.1002
     39 C           9.5072   80.4086   25.1656 C.ar    1  UNL1        0.0353
     40 C           9.5592   78.0597   30.0662 C.3     1  UNL1        0.0569
     41 C           8.1018   77.7501   30.2494 C.ar    1  UNL1       -0.0017
     42 C           7.0870   78.6559   30.5432 C.ar    1  UNL1        0.0681
     43 N           5.8861   78.0326   30.5496 N.ar    1  UNL1       -0.3523
     44 C           6.1336   76.7451   30.2518 C.ar    1  UNL1        0.0563
     45 C           5.2047   75.7138   30.1179 C.ar    1  UNL1        0.0170
     46 C           5.6852   74.4363   29.7748 C.ar    1  UNL1        0.0015
     47 C           7.0669   74.2214   29.5732 C.ar    1  UNL1        0.0001
     48 C           7.9805   75.2812   29.7144 C.ar    1  UNL1        0.0012
     49 C           7.4745   76.5349   30.0580 C.ar    1  UNL1        0.0131
     50 H           4.9559   78.4704   30.7326 H       1  UNL1        0.1660
@<TRIPOS>BOND
     1     1     2    2
     2     2     3   am
     3     3    29    1
     4    29    40    1
     5    40    41    1
     6    41    42   ar
     7    42    43   ar
     8    43    44   ar
     9    44    45   ar
    10    45    46   ar
    11    46    47   ar
    12    47    48   ar
    13    48    49   ar
    14    29    30    1
    15    30    31    2
    16    30    32   am
    17    32    34    1
    18    34    35   ar
    19    35    36   ar
    20    36    37   ar
    21    37    38   ar
    22    38    39   ar
    23     2     5    1
    24     5     6   ar
    25     6     7   ar
    26     7     8   ar
    27     8    12    1
    28    12    13    1
    29    13    14    1
    30    14    15    1
    31    15    18    1
    32    18    19   ar
    33    19    20   ar
    34    20    21   ar
    35    21    25    1
    36    25    26    1
    37    25    27    1
    38    25    28    1
    39    21    22   ar
    40    22    23    1
    41    22    24   ar
    42    15    16    1
    43    16    17    1
    44     8     9   ar
    45     9    10   ar
    46    10    11    1
    47    49    41   ar
    48    39    34   ar
    49    10     5   ar
    50    49    44   ar
    51    17    12    1
    52    24    18   ar
    53     3     4    1
    54    43    50    1
    55    32    33    1
@<TRIPOS>MOLECULE
*****
 50 55 0 0 0
SMALL
GASTEIGER

@<TRIPOS>ATOM
      1 O           9.0295   74.6219   28.0294 O.2     1  UNL1       -0.2701
      2 C           8.4619   75.7442   27.9301 C.2     1  UNL1        0.2483
      3 N           7.1073   75.9011   28.3817 N.am    1  UNL1       -0.2945
      4 H           6.5892   76.7707   28.1226 H       1  UNL1        0.1501
      5 C           9.1942   76.8740   27.3157 C.ar    1  UNL1        0.0808
      6 C          10.5410   77.0895   27.6489 C.ar    1  UNL1        0.0080
      7 C          11.2548   78.1456   27.0776 C.ar    1  UNL1        0.0148
      8 C          10.6349   79.0176   26.1656 C.ar    1  UNL1        0.0502
      9 C           9.2801   78.8148   25.8502 C.ar    1  UNL1        0.0443
     10 C           8.5636   77.7571   26.4190 C.ar    1  UNL1        0.1457
     11 F           7.2443   77.6320   26.1260 F       1  UNL1       -0.2040
     12 N          11.3707   80.1136   25.5771 N.pl3   1  UNL1       -0.3040
     13 C          10.6923   81.0698   24.6905 C.3     1  UNL1        0.1123
     14 C          11.3214   82.4622   24.8096 C.3     1  UNL1        0.1136
     15 N          12.7882   82.4145   24.6870 N.pl3   1  UNL1       -0.2897
     16 C          13.4807   81.1187   24.7329 C.3     1  UNL1        0.1136
     17 C          12.8273   80.1963   25.7667 C.3     1  UNL1        0.1123
     18 C          13.5360   83.6140   24.3833 C.ar    1  UNL1        0.1341
     19 C          13.6968   84.6370   25.3333 C.ar    1  UNL1        0.0344
     20 C          14.4252   85.7805   25.0023 C.ar    1  UNL1        0.0106
     21 C          14.9951   85.9129   23.7260 C.ar    1  UNL1        0.1173
     22 C          14.8202   84.8649   22.8073 C.ar    1  UNL1        0.2273
     23 F          15.3610   84.9380   21.5653 F       1  UNL1       -0.1832
     24 N          14.1064   83.7619   23.1547 N.ar    1  UNL1       -0.2031
     25 C          15.7954   87.1329   23.3398 C.3     1  UNL1        0.4221
     26 F          15.7345   88.0645   24.3600 F       1  UNL1       -0.1657
     27 F          17.1155   86.7749   23.1332 F       1  UNL1       -0.1657
     28 F          15.3130   87.7156   22.1803 F       1  UNL1       -0.1657
     29 C           6.4169   74.8527   29.1436 C.3     1  UNL1        0.1535
     30 C           5.3797   75.4667   30.0586 C.2     1  UNL1        0.2443
     31 O           4.3502   74.8021   30.3561 O.2     1  UNL1       -0.2730
     32 N           5.5992   76.7280   30.7115 N.am    1  UNL1       -0.2825
     33 H           5.0987   76.9029   31.6121 H       1  UNL1        0.1549
     34 C           6.5553   77.7041   30.2768 C.ar    1  UNL1        0.0535
     35 C           7.7958   77.7954   30.9189 C.ar    1  UNL1        0.0353
     36 C           8.7171   78.7594   30.5015 C.ar    1  UNL1        0.1002
     37 N           8.3998   79.6141   29.4925 N.ar    1  UNL1       -0.2422
     38 C           7.1922   79.5639   28.8698 C.ar    1  UNL1        0.1002
     39 C           6.2427   78.6157   29.2581 C.ar    1  UNL1        0.0353
     40 C           5.7356   73.8468   28.1980 C.3     1  UNL1        0.0569
     41 C           5.7849   74.3249   26.7759 C.ar    1  UNL1       -0.0017
     42 C           6.5041   73.7563   25.7289 C.ar    1  UNL1        0.0681
     43 N           6.2410   74.4034   24.5702 N.ar    1  UNL1       -0.3523
     44 C           5.3545   75.3672   24.8753 C.ar    1  UNL1        0.0563
     45 C           4.7653   76.2818   24.0031 C.ar    1  UNL1        0.0170
     46 C           3.8380   77.1960   24.5370 C.ar    1  UNL1        0.0015
     47 C           3.5224   77.1741   25.9138 C.ar    1  UNL1        0.0001
     48 C           4.1321   76.2392   26.7694 C.ar    1  UNL1        0.0012
     49 C           5.0491   75.3482   26.2116 C.ar    1  UNL1        0.0131
     50 H           6.6359   74.1843   23.6286 H       1  UNL1        0.1660
@<TRIPOS>BOND
     1     1     2    2
     2     2     3   am
     3     3    29    1
     4    29    40    1
     5    40    41    1
     6    41    42   ar
     7    42    43   ar
     8    43    44   ar
     9    44    45   ar
    10    45    46   ar
    11    46    47   ar
    12    47    48   ar
    13    48    49   ar
    14    29    30    1
    15    30    31    2
    16    30    32   am
    17    32    34    1
    18    34    35   ar
    19    35    36   ar
    20    36    37   ar
    21    37    38   ar
    22    38    39   ar
    23     2     5    1
    24     5     6   ar
    25     6     7   ar
    26     7     8   ar
    27     8    12    1
    28    12    13    1
    29    13    14    1
    30    14    15    1
    31    15    18    1
    32    18    19   ar
    33    19    20   ar
    34    20    21   ar
    35    21    25    1
    36    25    26    1
    37    25    27    1
    38    25    28    1
    39    21    22   ar
    40    22    23    1
    41    22    24   ar
    42    15    16    1
    43    16    17    1
    44     8     9   ar
    45     9    10   ar
    46    10    11    1
    47    49    41   ar
    48    39    34   ar
    49    10     5   ar
    50    49    44   ar
    51    17    12    1
    52    24    18   ar
    53     3     4    1
    54    43    50    1
    55    32    33    1
@<TRIPOS>MOLECULE
*****
 50 55 0 0 0
SMALL
GASTEIGER

@<TRIPOS>ATOM
      1 O           9.0200   74.5729   27.7152 O.2     1  UNL1       -0.2701
      2 C           8.5423   75.7361   27.8160 C.2     1  UNL1        0.2483
      3 N           7.2845   75.9358   28.4805 N.am    1  UNL1       -0.2945
      4 H           6.8112   76.8630   28.3913 H       1  UNL1        0.1501
      5 C           9.2735   76.8736   27.2145 C.ar    1  UNL1        0.0808
      6 C          10.6331   77.0583   27.5123 C.ar    1  UNL1        0.0080
      7 C          11.3459   78.1211   26.9521 C.ar    1  UNL1        0.0148
      8 C          10.7124   79.0307   26.0874 C.ar    1  UNL1        0.0502
      9 C           9.3454   78.8582   25.8082 C.ar    1  UNL1        0.0443
     10 C           8.6299   77.7940   26.3658 C.ar    1  UNL1        0.1457
     11 F           7.3005   77.6980   26.1102 F       1  UNL1       -0.2040
     12 N          11.4472   80.1335   25.5108 N.pl3   1  UNL1       -0.3040
     13 C          10.7811   81.0675   24.5918 C.3     1  UNL1        0.1123
     14 C          11.3809   82.4724   24.7154 C.3     1  UNL1        0.1136
     15 N          12.8516   82.4503   24.6410 N.pl3   1  UNL1       -0.2897
     16 C          13.5653   81.1679   24.7242 C.3     1  UNL1        0.1136
     17 C          12.8952   80.2449   25.7466 C.3     1  UNL1        0.1123
     18 C          13.5873   83.6598   24.3482 C.ar    1  UNL1        0.1341
     19 C          13.7317   84.6790   25.3050 C.ar    1  UNL1        0.0344
     20 C          14.4488   85.8325   24.9844 C.ar    1  UNL1        0.0106
     21 C          15.0236   85.9789   23.7118 C.ar    1  UNL1        0.1173
     22 C          14.8651   84.9345   22.7862 C.ar    1  UNL1        0.2273
     23 F          15.4114   85.0210   21.5474 F       1  UNL1       -0.1832
     24 N          14.1621   83.8214   23.1235 N.ar    1  UNL1       -0.2031
     25 C          15.8119   87.2101   23.3369 C.3     1  UNL1        0.4221
     26 F          15.7714   88.1173   24.3799 F       1  UNL1       -0.1657
     27 F          17.1280   86.8612   23.0927 F       1  UNL1       -0.1657
     28 F          15.3023   87.8184   22.2025 F       1  UNL1       -0.1657
     29 C           6.6227   74.8595   29.2288 C.3     1  UNL1        0.1535
     30 C           5.7520   75.4399   30.3219 C.2     1  UNL1        0.2443
     31 O           4.7923   74.7572   30.7725 O.2     1  UNL1       -0.2730
     32 N           6.0707   76.6875   30.9601 N.am    1  UNL1       -0.2825
     33 H           5.7292   76.8351   31.9368 H       1  UNL1        0.1549
     34 C           6.9326   77.6841   30.3947 C.ar    1  UNL1        0.0535
     35 C           8.2380   77.8294   30.8789 C.ar    1  UNL1        0.0353
     36 C           9.0678   78.8132   30.3351 C.ar    1  UNL1        0.1002
     37 N           8.6010   79.6349   29.3574 N.ar    1  UNL1       -0.2422
     38 C           7.3292   79.5322   28.8877 C.ar    1  UNL1        0.1002
     39 C           6.4673   78.5627   29.4058 C.ar    1  UNL1        0.0353
     40 C           5.7616   73.9913   28.2935 C.3     1  UNL1        0.0569
     41 C           5.3128   74.7732   27.0933 C.ar    1  UNL1       -0.0017
     42 C           4.4332   75.8515   27.0812 C.ar    1  UNL1        0.0681
     43 N           4.3293   76.3611   25.8321 N.ar    1  UNL1       -0.3523
     44 C           5.1434   75.6209   25.0594 C.ar    1  UNL1        0.0563
     45 C           5.3916   75.7795   23.6965 C.ar    1  UNL1        0.0170
     46 C           6.3064   74.9001   23.0879 C.ar    1  UNL1        0.0015
     47 C           6.9470   73.8954   23.8469 C.ar    1  UNL1        0.0001
     48 C           6.6775   73.7599   25.2205 C.ar    1  UNL1        0.0012
     49 C           5.7640   74.6442   25.7946 C.ar    1  UNL1        0.0131
     50 H           3.7463   77.1753   25.5359 H       1  UNL1        0.1660
@<TRIPOS>BOND
     1     1     2    2
     2     2     3   am
     3     3    29    1
     4    29    40    1
     5    40    41    1
     6    41    42   ar
     7    42    43   ar
     8    43    44   ar
     9    44    45   ar
    10    45    46   ar
    11    46    47   ar
    12    47    48   ar
    13    48    49   ar
    14    29    30    1
    15    30    31    2
    16    30    32   am
    17    32    34    1
    18    34    35   ar
    19    35    36   ar
    20    36    37   ar
    21    37    38   ar
    22    38    39   ar
    23     2     5    1
    24     5     6   ar
    25     6     7   ar
    26     7     8   ar
    27     8    12    1
    28    12    13    1
    29    13    14    1
    30    14    15    1
    31    15    18    1
    32    18    19   ar
    33    19    20   ar
    34    20    21   ar
    35    21    25    1
    36    25    26    1
    37    25    27    1
    38    25    28    1
    39    21    22   ar
    40    22    23    1
    41    22    24   ar
    42    15    16    1
    43    16    17    1
    44     8     9   ar
    45     9    10   ar
    46    10    11    1
    47    49    41   ar
    48    39    34   ar
    49    10     5   ar
    50    49    44   ar
    51    17    12    1
    52    24    18   ar
    53     3     4    1
    54    43    50    1
    55    32    33    1
@<TRIPOS>MOLECULE
*****
 50 55 0 0 0
SMALL
GASTEIGER

@<TRIPOS>ATOM
      1 O          14.2862   86.3816   27.0190 O.2     1  UNL1       -0.2701
      2 C          14.2402   85.8993   25.8542 C.2     1  UNL1        0.2483
      3 N          14.5011   86.7436   24.7217 N.am    1  UNL1       -0.2945
      4 H          14.2750   86.3861   23.7662 H       1  UNL1        0.1501
      5 C          13.8828   84.4745   25.6741 C.ar    1  UNL1        0.0808
      6 C          13.3053   84.0527   24.4658 C.ar    1  UNL1        0.0080
      7 C          12.9648   82.7122   24.2701 C.ar    1  UNL1        0.0148
      8 C          13.1856   81.7626   25.2830 C.ar    1  UNL1        0.0502
      9 C          13.7426   82.1901   26.5008 C.ar    1  UNL1        0.0443
     10 C          14.0865   83.5311   26.6988 C.ar    1  UNL1        0.1457
     11 F          14.5720   83.9072   27.9091 F       1  UNL1       -0.2040
     12 N          12.8296   80.3761   25.0839 N.pl3   1  UNL1       -0.3040
     13 C          11.4694   79.9096   25.3883 C.3     1  UNL1        0.1123
     14 C          11.0661   78.7632   24.4544 C.3     1  UNL1        0.1136
     15 N          12.0978   77.7141   24.3952 N.pl3   1  UNL1       -0.2897
     16 C          13.4264   77.9665   24.9713 C.3     1  UNL1        0.1136
     17 C          13.8669   79.4075   24.6960 C.3     1  UNL1        0.1123
     18 C          11.7718   76.3948   23.9019 C.ar    1  UNL1        0.1341
     19 C          11.2075   75.4183   24.7402 C.ar    1  UNL1        0.0344
     20 C          10.9073   74.1556   24.2271 C.ar    1  UNL1        0.0106
     21 C          11.1682   73.8576   22.8801 C.ar    1  UNL1        0.1173
     22 C          11.7241   74.8629   22.0720 C.ar    1  UNL1        0.2273
     23 F          11.9838   74.6300   20.7610 F       1  UNL1       -0.1832
     24 N          12.0071   76.0844   22.5962 N.ar    1  UNL1       -0.2031
     25 C          10.8474   72.5047   22.2928 C.3     1  UNL1        0.4221
     26 F           9.5883   72.5381   21.7221 F       1  UNL1       -0.1657
     27 F          11.7771   72.1906   21.3179 F       1  UNL1       -0.1657
     28 F          10.8695   71.5104   23.2558 F       1  UNL1       -0.1657
     29 C          15.0193   88.1090   24.8746 C.3     1  UNL1        0.1535
     30 C          16.5165   88.1289   24.6559 C.2     1  UNL1        0.2443
     31 O          17.2465   88.7805   25.4512 O.2     1  UNL1       -0.2730
     32 N          17.1451   87.3137   23.6530 N.am    1  UNL1       -0.2825
     33 H          18.1402   87.0340   23.8074 H       1  UNL1        0.1549
     34 C          16.4600   86.7539   22.5247 C.ar    1  UNL1        0.0535
     35 C          15.8060   85.5225   22.6498 C.ar    1  UNL1        0.0353
     36 C          15.1540   84.9744   21.5424 C.ar    1  UNL1        0.1002
     37 N          15.1738   85.6249   20.3484 N.ar    1  UNL1       -0.2422
     38 C          15.8237   86.8090   20.1932 C.ar    1  UNL1        0.1002
     39 C          16.4890   87.3900   21.2753 C.ar    1  UNL1        0.0353
     40 C          14.3424   89.0668   23.8773 C.3     1  UNL1        0.0569
     41 C          13.4177   88.3230   22.9581 C.ar    1  UNL1       -0.0017
     42 C          12.5276   87.3123   23.3088 C.ar    1  UNL1        0.0681
     43 N          11.7960   86.9350   22.2351 N.ar    1  UNL1       -0.3523
     44 C          12.2090   87.7058   21.2139 C.ar    1  UNL1        0.0563
     45 C          11.7314   87.7023   19.9039 C.ar    1  UNL1        0.0170
     46 C          12.2953   88.6177   18.9958 C.ar    1  UNL1        0.0015
     47 C          13.3102   89.5074   19.4133 C.ar    1  UNL1        0.0001
     48 C          13.7715   89.4886   20.7416 C.ar    1  UNL1        0.0012
     49 C          13.1955   88.5682   21.6174 C.ar    1  UNL1        0.0131
     50 H          11.0504   86.2041   22.2126 H       1  UNL1        0.1660
@<TRIPOS>BOND
     1     1     2    2
     2     2     3   am
     3     3    29    1
     4    29    40    1
     5    40    41    1
     6    41    42   ar
     7    42    43   ar
     8    43    44   ar
     9    44    45   ar
    10    45    46   ar
    11    46    47   ar
    12    47    48   ar
    13    48    49   ar
    14    29    30    1
    15    30    31    2
    16    30    32   am
    17    32    34    1
    18    34    35   ar
    19    35    36   ar
    20    36    37   ar
    21    37    38   ar
    22    38    39   ar
    23     2     5    1
    24     5     6   ar
    25     6     7   ar
    26     7     8   ar
    27     8    12    1
    28    12    13    1
    29    13    14    1
    30    14    15    1
    31    15    18    1
    32    18    19   ar
    33    19    20   ar
    34    20    21   ar
    35    21    25    1
    36    25    26    1
    37    25    27    1
    38    25    28    1
    39    21    22   ar
    40    22    23    1
    41    22    24   ar
    42    15    16    1
    43    16    17    1
    44     8     9   ar
    45     9    10   ar
    46    10    11    1
    47    49    41   ar
    48    39    34   ar
    49    10     5   ar
    50    49    44   ar
    51    17    12    1
    52    24    18   ar
    53     3     4    1
    54    43    50    1
    55    32    33    1
@<TRIPOS>MOLECULE
*****
 50 55 0 0 0
SMALL
GASTEIGER

@<TRIPOS>ATOM
      1 O          10.1987   75.1013   25.9644 O.2     1  UNL1       -0.2701
      2 C           9.0557   75.5396   26.2693 C.2     1  UNL1        0.2483
      3 N           8.8202   76.0629   27.5862 N.am    1  UNL1       -0.2945
      4 H           7.8357   76.2429   27.8863 H       1  UNL1        0.1501
      5 C           7.9652   75.4741   25.2710 C.ar    1  UNL1        0.0808
      6 C           7.5471   74.2258   24.7829 C.ar    1  UNL1        0.0080
      7 C           6.5159   74.1381   23.8447 C.ar    1  UNL1        0.0148
      8 C           5.8841   75.2988   23.3651 C.ar    1  UNL1        0.0502
      9 C           6.3190   76.5495   23.8373 C.ar    1  UNL1        0.0443
     10 C           7.3497   76.6402   24.7781 C.ar    1  UNL1        0.1457
     11 F           7.7718   77.8706   25.1651 F       1  UNL1       -0.2040
     12 N           4.8202   75.2101   22.3910 N.pl3   1  UNL1       -0.3040
     13 C           4.9650   74.3431   21.2130 C.3     1  UNL1        0.1123
     14 C           3.6055   73.7844   20.7788 C.3     1  UNL1        0.1136
     15 N           2.5874   74.8426   20.6660 N.pl3   1  UNL1       -0.2897
     16 C           2.8691   76.1832   21.1990 C.3     1  UNL1        0.1136
     17 C           3.6449   76.0862   22.5162 C.3     1  UNL1        0.1123
     18 C           1.3739   74.6127   19.9147 C.ar    1  UNL1        0.1341
     19 C           0.6340   75.6784   19.3745 C.ar    1  UNL1        0.0344
     20 C          -0.5331   75.4163   18.6556 C.ar    1  UNL1        0.0106
     21 C          -0.9707   74.0948   18.4721 C.ar    1  UNL1        0.1173
     22 C          -0.1991   73.0566   19.0193 C.ar    1  UNL1        0.2273
     23 F          -0.5714   71.7618   18.8598 F       1  UNL1       -0.1832
     24 N           0.9336   73.3388   19.7152 N.ar    1  UNL1       -0.2031
     25 C          -2.2237   73.7775   17.6928 C.3     1  UNL1        0.4221
     26 F          -2.6951   72.5325   18.0673 F       1  UNL1       -0.1657
     27 F          -3.1916   74.7275   17.9649 F       1  UNL1       -0.1657
     28 F          -1.9895   73.7689   16.3284 F       1  UNL1       -0.1657
     29 C           9.9155   76.2951   28.5363 C.3     1  UNL1        0.1535
     30 C          10.4452   74.9770   29.0578 C.2     1  UNL1        0.2443
     31 O          11.6810   74.7374   28.9841 O.2     1  UNL1       -0.2730
     32 N           9.6034   74.0492   29.7620 N.am    1  UNL1       -0.2825
     33 H          10.0583   73.4016   30.4446 H       1  UNL1        0.1549
     34 C           8.1716   74.0431   29.6857 C.ar    1  UNL1        0.0535
     35 C           7.5382   73.5044   28.5597 C.ar    1  UNL1        0.0353
     36 C           6.1431   73.5160   28.4838 C.ar    1  UNL1        0.1002
     37 N           5.4102   74.0656   29.4887 N.ar    1  UNL1       -0.2422
     38 C           6.0012   74.6190   30.5810 C.ar    1  UNL1        0.1002
     39 C           7.3934   74.6287   30.6946 C.ar    1  UNL1        0.0353
     40 C          11.0602   77.0811   27.8715 C.3     1  UNL1        0.0569
     41 C          10.5797   78.4112   27.3681 C.ar    1  UNL1       -0.0017
     42 C          10.0949   79.4674   28.1337 C.ar    1  UNL1        0.0681
     43 N           9.8363   80.5387   27.3488 N.ar    1  UNL1       -0.3523
     44 C          10.1640   80.1711   26.0977 C.ar    1  UNL1        0.0563
     45 C          10.0938   80.9477   24.9417 C.ar    1  UNL1        0.0170
     46 C          10.5135   80.3648   23.7314 C.ar    1  UNL1        0.0015
     47 C          10.9908   79.0354   23.7046 C.ar    1  UNL1        0.0001
     48 C          11.0511   78.2764   24.8870 C.ar    1  UNL1        0.0012
     49 C          10.6253   78.8803   26.0701 C.ar    1  UNL1        0.0131
     50 H           9.4720   81.4670   27.6588 H       1  UNL1        0.1660
@<TRIPOS>BOND
     1     1     2    2
     2     2     3   am
     3     3    29    1
     4    29    40    1
     5    40    41    1
     6    41    42   ar
     7    42    43   ar
     8    43    44   ar
     9    44    45   ar
    10    45    46   ar
    11    46    47   ar
    12    47    48   ar
    13    48    49   ar
    14    29    30    1
    15    30    31    2
    16    30    32   am
    17    32    34    1
    18    34    35   ar
    19    35    36   ar
    20    36    37   ar
    21    37    38   ar
    22    38    39   ar
    23     2     5    1
    24     5     6   ar
    25     6     7   ar
    26     7     8   ar
    27     8    12    1
    28    12    13    1
    29    13    14    1
    30    14    15    1
    31    15    18    1
    32    18    19   ar
    33    19    20   ar
    34    20    21   ar
    35    21    25    1
    36    25    26    1
    37    25    27    1
    38    25    28    1
    39    21    22   ar
    40    22    23    1
    41    22    24   ar
    42    15    16    1
    43    16    17    1
    44     8     9   ar
    45     9    10   ar
    46    10    11    1
    47    49    41   ar
    48    39    34   ar
    49    10     5   ar
    50    49    44   ar
    51    17    12    1
    52    24    18   ar
    53     3     4    1
    54    43    50    1
    55    32    33    1
@<TRIPOS>MOLECULE
*****
 50 55 0 0 0
SMALL
GASTEIGER

@<TRIPOS>ATOM
      1 O          11.4197   74.5881   24.8988 O.2     1  UNL1       -0.2701
      2 C          10.7929   75.6247   24.5462 C.2     1  UNL1        0.2483
      3 N          11.2917   76.9202   24.9155 N.am    1  UNL1       -0.2945
      4 H          10.6726   77.7520   24.7863 H       1  UNL1        0.1501
      5 C           9.5314   75.4841   23.7852 C.ar    1  UNL1        0.0808
      6 C           9.5436   75.6387   22.3897 C.ar    1  UNL1        0.0080
      7 C           8.3667   75.5048   21.6492 C.ar    1  UNL1        0.0148
      8 C           7.1471   75.2222   22.2887 C.ar    1  UNL1        0.0502
      9 C           7.1320   75.0905   23.6882 C.ar    1  UNL1        0.0443
     10 C           8.3090   75.2218   24.4319 C.ar    1  UNL1        0.1457
     11 F           8.2372   75.1392   25.7847 F       1  UNL1       -0.2040
     12 N           5.9278   75.0881   21.5244 N.pl3   1  UNL1       -0.3040
     13 C           5.7183   73.9152   20.6637 C.3     1  UNL1        0.1123
     14 C           4.2308   73.5539   20.5896 C.3     1  UNL1        0.1136
     15 N           3.3957   74.7263   20.2780 N.pl3   1  UNL1       -0.2897
     16 C           3.9823   76.0730   20.3326 C.3     1  UNL1        0.1136
     17 C           4.9523   76.1894   21.5125 C.3     1  UNL1        0.1123
     18 C           2.0474   74.5536   19.7855 C.ar    1  UNL1        0.1341
     19 C           1.3647   75.5978   19.1386 C.ar    1  UNL1        0.0344
     20 C           0.0635   75.3928   18.6777 C.ar    1  UNL1        0.0106
     21 C          -0.5651   74.1505   18.8591 C.ar    1  UNL1        0.1173
     22 C           0.1533   73.1291   19.5019 C.ar    1  UNL1        0.2273
     23 F          -0.4039   71.9066   19.6908 F       1  UNL1       -0.1832
     24 N           1.4194   73.3545   19.9413 N.ar    1  UNL1       -0.2031
     25 C          -1.9680   73.8943   18.3650 C.3     1  UNL1        0.4221
     26 F          -2.8757   74.3138   19.3203 F       1  UNL1       -0.1657
     27 F          -2.1838   74.6011   17.1956 F       1  UNL1       -0.1657
     28 F          -2.1838   72.5506   18.1108 F       1  UNL1       -0.1657
     29 C          12.6181   77.0978   25.5199 C.3     1  UNL1        0.1535
     30 C          13.5366   77.8268   24.5634 C.2     1  UNL1        0.2443
     31 O          14.6734   77.3428   24.3119 O.2     1  UNL1       -0.2730
     32 N          13.0985   78.9791   23.8248 N.am    1  UNL1       -0.2825
     33 H          13.5693   79.1804   22.9136 H       1  UNL1        0.1549
     34 C          11.9754   79.7915   24.1915 C.ar    1  UNL1        0.0535
     35 C          10.7122   79.5129   23.6564 C.ar    1  UNL1        0.0353
     36 C           9.6248   80.3181   24.0049 C.ar    1  UNL1        0.1002
     37 N           9.7999   81.3757   24.8415 N.ar    1  UNL1       -0.2422
     38 C          11.0209   81.6838   25.3542 C.ar    1  UNL1        0.1002
     39 C          12.1338   80.9047   25.0295 C.ar    1  UNL1        0.0353
     40 C          12.5184   77.8875   26.8377 C.3     1  UNL1        0.0569
     41 C          11.1285   77.8233   27.4010 C.ar    1  UNL1       -0.0017
     42 C          10.1488   78.8083   27.3194 C.ar    1  UNL1        0.0681
     43 N           8.9915   78.3685   27.8652 N.ar    1  UNL1       -0.3523
     44 C           9.2297   77.1119   28.2800 C.ar    1  UNL1        0.0563
     45 C           8.3302   76.2363   28.8871 C.ar    1  UNL1        0.0170
     46 C           8.7893   74.9483   29.2202 C.ar    1  UNL1        0.0015
     47 C          10.1207   74.5681   28.9400 C.ar    1  UNL1        0.0001
     48 C          11.0053   75.4725   28.3259 C.ar    1  UNL1        0.0012
     49 C          10.5222   76.7426   28.0105 C.ar    1  UNL1        0.0131
     50 H           8.0927   78.8957   27.9331 H       1  UNL1        0.1660
@<TRIPOS>BOND
     1     1     2    2
     2     2     3   am
     3     3    29    1
     4    29    40    1
     5    40    41    1
     6    41    42   ar
     7    42    43   ar
     8    43    44   ar
     9    44    45   ar
    10    45    46   ar
    11    46    47   ar
    12    47    48   ar
    13    48    49   ar
    14    29    30    1
    15    30    31    2
    16    30    32   am
    17    32    34    1
    18    34    35   ar
    19    35    36   ar
    20    36    37   ar
    21    37    38   ar
    22    38    39   ar
    23     2     5    1
    24     5     6   ar
    25     6     7   ar
    26     7     8   ar
    27     8    12    1
    28    12    13    1
    29    13    14    1
    30    14    15    1
    31    15    18    1
    32    18    19   ar
    33    19    20   ar
    34    20    21   ar
    35    21    25    1
    36    25    26    1
    37    25    27    1
    38    25    28    1
    39    21    22   ar
    40    22    23    1
    41    22    24   ar
    42    15    16    1
    43    16    17    1
    44     8     9   ar
    45     9    10   ar
    46    10    11    1
    47    49    41   ar
    48    39    34   ar
    49    10     5   ar
    50    49    44   ar
    51    17    12    1
    52    24    18   ar
    53     3     4    1
    54    43    50    1
    55    32    33    1
@<TRIPOS>MOLECULE
*****
 50 55 0 0 0
SMALL
GASTEIGER

@<TRIPOS>ATOM
      1 O           9.2896   74.7634   25.6747 O.2     1  UNL1       -0.2701
      2 C           9.0481   75.7799   26.3818 C.2     1  UNL1        0.2483
      3 N           8.0554   75.7088   27.4177 N.am    1  UNL1       -0.2945
      4 H           7.7306   76.5963   27.8635 H       1  UNL1        0.1501
      5 C           9.7709   77.0416   26.1066 C.ar    1  UNL1        0.0808
      6 C          11.1669   77.0219   25.9577 C.ar    1  UNL1        0.0080
      7 C          11.8704   78.1990   25.6917 C.ar    1  UNL1        0.0148
      8 C          11.1945   79.4264   25.5775 C.ar    1  UNL1        0.0502
      9 C           9.7995   79.4486   25.7496 C.ar    1  UNL1        0.0443
     10 C           9.0923   78.2715   26.0138 C.ar    1  UNL1        0.1457
     11 F           7.7539   78.3492   26.2250 F       1  UNL1       -0.2040
     12 N          11.9215   80.6458   25.3070 N.pl3   1  UNL1       -0.3040
     13 C          13.3875   80.6726   25.4101 C.3     1  UNL1        0.1123
     14 C          13.9847   81.6682   24.4096 C.3     1  UNL1        0.1136
     15 N          13.3202   82.9807   24.4775 N.pl3   1  UNL1       -0.2897
     16 C          12.0707   83.1253   25.2381 C.3     1  UNL1        0.1136
     17 C          11.1819   81.8918   25.0517 C.3     1  UNL1        0.1123
     18 C          13.9578   84.1529   23.9211 C.ar    1  UNL1        0.1341
     19 C          14.1132   85.3291   24.6742 C.ar    1  UNL1        0.0344
     20 C          14.7334   86.4405   24.1016 C.ar    1  UNL1        0.0106
     21 C          15.2000   86.3883   22.7784 C.ar    1  UNL1        0.1173
     22 C          15.0345   85.1920   22.0614 C.ar    1  UNL1        0.2273
     23 F          15.4788   85.0855   20.7840 F       1  UNL1       -0.1832
     24 N          14.4271   84.1240   22.6422 N.ar    1  UNL1       -0.2031
     25 C          15.8824   87.5698   22.1331 C.3     1  UNL1        0.4221
     26 F          15.2598   87.8613   20.9332 F       1  UNL1       -0.1657
     27 F          15.7924   88.6694   22.9675 F       1  UNL1       -0.1657
     28 F          17.2206   87.3158   21.8859 F       1  UNL1       -0.1657
     29 C           7.4466   74.4356   27.8232 C.3     1  UNL1        0.1535
     30 C           7.6940   74.1815   29.2943 C.2     1  UNL1        0.2443
     31 O           8.4393   73.2239   29.6371 O.2     1  UNL1       -0.2730
     32 N           7.2193   75.0832   30.3077 N.am    1  UNL1       -0.2825
     33 H           7.7426   75.1176   31.2117 H       1  UNL1        0.1549
     34 C           6.1586   76.0280   30.1121 C.ar    1  UNL1        0.0535
     35 C           6.4511   77.3132   29.6409 C.ar    1  UNL1        0.0353
     36 C           5.4152   78.2346   29.4678 C.ar    1  UNL1        0.1002
     37 N           4.1366   77.8888   29.7751 N.ar    1  UNL1       -0.2422
     38 C           3.8289   76.6561   30.2592 C.ar    1  UNL1        0.1002
     39 C           4.8356   75.7063   30.4480 C.ar    1  UNL1        0.0353
     40 C           5.9313   74.4416   27.5513 C.3     1  UNL1        0.0569
     41 C           5.6338   74.9412   26.1674 C.ar    1  UNL1       -0.0017
     42 C           6.1461   74.4440   24.9728 C.ar    1  UNL1        0.0681
     43 N           5.5899   75.0844   23.9186 N.ar    1  UNL1       -0.3523
     44 C           4.7241   75.9726   24.4375 C.ar    1  UNL1        0.0563
     45 C           3.8937   76.8505   23.7417 C.ar    1  UNL1        0.0170
     46 C           3.0417   77.6831   24.4911 C.ar    1  UNL1        0.0015
     47 C           3.0371   77.6183   25.9024 C.ar    1  UNL1        0.0001
     48 C           3.8851   76.7219   26.5769 C.ar    1  UNL1        0.0012
     49 C           4.7203   75.9120   25.8071 C.ar    1  UNL1        0.0131
     50 H           5.7843   74.9092   22.9077 H       1  UNL1        0.1660
@<TRIPOS>BOND
     1     1     2    2
     2     2     3   am
     3     3    29    1
     4    29    40    1
     5    40    41    1
     6    41    42   ar
     7    42    43   ar
     8    43    44   ar
     9    44    45   ar
    10    45    46   ar
    11    46    47   ar
    12    47    48   ar
    13    48    49   ar
    14    29    30    1
    15    30    31    2
    16    30    32   am
    17    32    34    1
    18    34    35   ar
    19    35    36   ar
    20    36    37   ar
    21    37    38   ar
    22    38    39   ar
    23     2     5    1
    24     5     6   ar
    25     6     7   ar
    26     7     8   ar
    27     8    12    1
    28    12    13    1
    29    13    14    1
    30    14    15    1
    31    15    18    1
    32    18    19   ar
    33    19    20   ar
    34    20    21   ar
    35    21    25    1
    36    25    26    1
    37    25    27    1
    38    25    28    1
    39    21    22   ar
    40    22    23    1
    41    22    24   ar
    42    15    16    1
    43    16    17    1
    44     8     9   ar
    45     9    10   ar
    46    10    11    1
    47    49    41   ar
    48    39    34   ar
    49    10     5   ar
    50    49    44   ar
    51    17    12    1
    52    24    18   ar
    53     3     4    1
    54    43    50    1
    55    32    33    1
@<TRIPOS>MOLECULE
*****
 50 55 0 0 0
SMALL
GASTEIGER

@<TRIPOS>ATOM
      1 O          10.7587   75.5048   25.0888 O.2     1  UNL1       -0.2701
      2 C           9.7861   76.3081   25.1066 C.2     1  UNL1        0.2483
      3 N           9.8165   77.4459   25.9830 N.am    1  UNL1       -0.2945
      4 H           8.9370   77.9908   26.1290 H       1  UNL1        0.1501
      5 C           8.6120   76.0428   24.2456 C.ar    1  UNL1        0.0808
      6 C           8.6224   76.4720   22.9088 C.ar    1  UNL1        0.0080
      7 C           7.5285   76.2280   22.0750 C.ar    1  UNL1        0.0148
      8 C           6.3935   75.5564   22.5619 C.ar    1  UNL1        0.0502
      9 C           6.3748   75.1474   23.9067 C.ar    1  UNL1        0.0443
     10 C           7.4693   75.3885   24.7431 C.ar    1  UNL1        0.1457
     11 F           7.3852   75.0230   26.0475 F       1  UNL1       -0.2040
     12 N           5.2590   75.3072   21.7018 N.pl3   1  UNL1       -0.3040
     13 C           5.0761   73.9877   21.0807 C.3     1  UNL1        0.1123
     14 C           3.5868   73.6710   20.9058 C.3     1  UNL1        0.1136
     15 N           2.8610   74.7800   20.2638 N.pl3   1  UNL1       -0.2897
     16 C           3.5164   76.0869   20.1111 C.3     1  UNL1        0.1136
     17 C           4.3571   76.4148   21.3489 C.3     1  UNL1        0.1123
     18 C           1.5667   74.5549   19.6604 C.ar    1  UNL1        0.1341
     19 C           0.8017   75.6175   19.1501 C.ar    1  UNL1        0.0344
     20 C          -0.4438   75.3601   18.5755 C.ar    1  UNL1        0.0106
     21 C          -0.9349   74.0465   18.5073 C.ar    1  UNL1        0.1173
     22 C          -0.1369   73.0105   19.0198 C.ar    1  UNL1        0.2273
     23 F          -0.5598   71.7226   18.9669 F       1  UNL1       -0.1832
     24 N           1.0725   73.2880   19.5742 N.ar    1  UNL1       -0.2031
     25 C          -2.2738   73.7340   17.8848 C.3     1  UNL1        0.4221
     26 F          -2.6865   72.4773   18.2886 F       1  UNL1       -0.1657
     27 F          -3.2060   74.6694   18.2965 F       1  UNL1       -0.1657
     28 F          -2.2130   73.7556   16.5019 F       1  UNL1       -0.1657
     29 C          11.0286   77.8260   26.7196 C.3     1  UNL1        0.1535
     30 C          11.4128   79.2533   26.3956 C.2     1  UNL1        0.2443
     31 O          10.6921   80.1967   26.8205 O.2     1  UNL1       -0.2730
     32 N          12.6503   79.5727   25.7383 N.am    1  UNL1       -0.2825
     33 H          13.0631   80.5171   25.9113 H       1  UNL1        0.1549
     34 C          13.4178   78.6377   24.9684 C.ar    1  UNL1        0.0535
     35 C          12.7779   77.8206   24.0291 C.ar    1  UNL1        0.0353
     36 C          13.5288   76.9001   23.2935 C.ar    1  UNL1        0.1002
     37 N          14.8672   76.7872   23.5056 N.ar    1  UNL1       -0.2422
     38 C          15.5086   77.5503   24.4302 C.ar    1  UNL1        0.1002
     39 C          14.7940   78.4815   25.1874 C.ar    1  UNL1        0.0353
     40 C          10.8144   77.6843   28.2376 C.3     1  UNL1        0.0569
     41 C          10.3273   76.3081   28.5872 C.ar    1  UNL1       -0.0017
     42 C          11.0532   75.1229   28.5157 C.ar    1  UNL1        0.0681
     43 N          10.3189   74.0909   28.9912 N.ar    1  UNL1       -0.3523
     44 C           9.1413   74.6165   29.3719 C.ar    1  UNL1        0.0563
     45 C           8.0623   73.9467   29.9478 C.ar    1  UNL1        0.0170
     46 C           6.9271   74.7034   30.2931 C.ar    1  UNL1        0.0015
     47 C           6.8971   76.0965   30.0601 C.ar    1  UNL1        0.0001
     48 C           8.0011   76.7451   29.4785 C.ar    1  UNL1        0.0012
     49 C           9.1104   75.9681   29.1443 C.ar    1  UNL1        0.0131
     50 H          10.6167   73.0925   29.0621 H       1  UNL1        0.1660
@<TRIPOS>BOND
     1     1     2    2
     2     2     3   am
     3     3    29    1
     4    29    40    1
     5    40    41    1
     6    41    42   ar
     7    42    43   ar
     8    43    44   ar
     9    44    45   ar
    10    45    46   ar
    11    46    47   ar
    12    47    48   ar
    13    48    49   ar
    14    29    30    1
    15    30    31    2
    16    30    32   am
    17    32    34    1
    18    34    35   ar
    19    35    36   ar
    20    36    37   ar
    21    37    38   ar
    22    38    39   ar
    23     2     5    1
    24     5     6   ar
    25     6     7   ar
    26     7     8   ar
    27     8    12    1
    28    12    13    1
    29    13    14    1
    30    14    15    1
    31    15    18    1
    32    18    19   ar
    33    19    20   ar
    34    20    21   ar
    35    21    25    1
    36    25    26    1
    37    25    27    1
    38    25    28    1
    39    21    22   ar
    40    22    23    1
    41    22    24   ar
    42    15    16    1
    43    16    17    1
    44     8     9   ar
    45     9    10   ar
    46    10    11    1
    47    49    41   ar
    48    39    34   ar
    49    10     5   ar
    50    49    44   ar
    51    17    12    1
    52    24    18   ar
    53     3     4    1
    54    43    50    1
    55    32    33    1
@<TRIPOS>MOLECULE
*****
 50 55 0 0 0
SMALL
GASTEIGER

@<TRIPOS>ATOM
      1 O          10.8077   76.9760   24.8390 O.2     1  UNL1       -0.2701
      2 C           9.7961   77.7212   24.7255 C.2     1  UNL1        0.2483
      3 N           9.7666   78.9911   25.3964 N.am    1  UNL1       -0.2945
      4 H           8.8605   79.5084   25.4526 H       1  UNL1        0.1501
      5 C           8.6396   77.2557   23.9280 C.ar    1  UNL1        0.0808
      6 C           8.7367   77.2110   22.5280 C.ar    1  UNL1        0.0080
      7 C           7.6607   76.7697   21.7542 C.ar    1  UNL1        0.0148
      8 C           6.4577   76.3711   22.3627 C.ar    1  UNL1        0.0502
      9 C           6.3536   76.4380   23.7630 C.ar    1  UNL1        0.0443
     10 C           7.4299   76.8773   24.5403 C.ar    1  UNL1        0.1457
     11 F           7.2656   76.9756   25.8840 F       1  UNL1       -0.2040
     12 N           5.3419   75.9187   21.5632 N.pl3   1  UNL1       -0.3040
     13 C           5.0648   74.4819   21.4239 C.3     1  UNL1        0.1123
     14 C           3.5614   74.2312   21.2639 C.3     1  UNL1        0.1136
     15 N           2.9676   75.0947   20.2292 N.pl3   1  UNL1       -0.2897
     16 C           3.7456   76.2154   19.6820 C.3     1  UNL1        0.1136
     17 C           4.5606   76.8943   20.7871 C.3     1  UNL1        0.1123
     18 C           1.6842   74.7658   19.6504 C.ar    1  UNL1        0.1341
     19 C           0.8692   75.7515   19.0682 C.ar    1  UNL1        0.0344
     20 C          -0.3638   75.3949   18.5202 C.ar    1  UNL1        0.0106
     21 C          -0.7926   74.0582   18.5501 C.ar    1  UNL1        0.1173
     22 C           0.0542   73.1008   19.1323 C.ar    1  UNL1        0.2273
     23 F          -0.3077   71.7940   19.1754 F       1  UNL1       -0.1832
     24 N           1.2501   73.4743   19.6589 N.ar    1  UNL1       -0.2031
     25 C          -2.1164   73.6388   17.9588 C.3     1  UNL1        0.4221
     26 F          -3.1195   74.4512   18.4551 F       1  UNL1       -0.1657
     27 F          -2.0706   73.7674   16.5823 F       1  UNL1       -0.1657
     28 F          -2.4206   72.3237   18.2660 F       1  UNL1       -0.1657
     29 C          10.9558   79.5504   26.0517 C.3     1  UNL1        0.1535
     30 C          11.4912   80.7207   25.2556 C.2     1  UNL1        0.2443
     31 O          10.7580   81.7309   25.0770 O.2     1  UNL1       -0.2730
     32 N          12.8587   80.7744   24.8170 N.am    1  UNL1       -0.2825
     33 H          13.2844   81.7170   24.6668 H       1  UNL1        0.1549
     34 C          13.7119   79.6282   24.6983 C.ar    1  UNL1        0.0535
     35 C          14.9897   79.6512   25.2694 C.ar    1  UNL1        0.0353
     36 C          15.8227   78.5373   25.1364 C.ar    1  UNL1        0.1002
     37 N          15.3997   77.4489   24.4396 N.ar    1  UNL1       -0.2422
     38 C          14.1737   77.4110   23.8530 C.ar    1  UNL1        0.1002
     39 C          13.3113   78.5044   23.9613 C.ar    1  UNL1        0.0353
     40 C          10.6268   80.0113   27.4833 C.3     1  UNL1        0.0569
     41 C           9.5674   79.1440   28.0989 C.ar    1  UNL1       -0.0017
     42 C           8.2675   79.5191   28.4250 C.ar    1  UNL1        0.0681
     43 N           7.5699   78.4536   28.8815 N.ar    1  UNL1       -0.3523
     44 C           8.4147   77.4085   28.8358 C.ar    1  UNL1        0.0563
     45 C           8.1443   76.0860   29.1853 C.ar    1  UNL1        0.0170
     46 C           9.1772   75.1419   29.0352 C.ar    1  UNL1        0.0015
     47 C          10.4413   75.5358   28.5427 C.ar    1  UNL1        0.0001
     48 C          10.6846   76.8772   28.1973 C.ar    1  UNL1        0.0012
     49 C           9.6425   77.7901   28.3599 C.ar    1  UNL1        0.0131
     50 H           6.5723   78.4455   29.1899 H       1  UNL1        0.1660
@<TRIPOS>BOND
     1     1     2    2
     2     2     3   am
     3     3    29    1
     4    29    40    1
     5    40    41    1
     6    41    42   ar
     7    42    43   ar
     8    43    44   ar
     9    44    45   ar
    10    45    46   ar
    11    46    47   ar
    12    47    48   ar
    13    48    49   ar
    14    29    30    1
    15    30    31    2
    16    30    32   am
    17    32    34    1
    18    34    35   ar
    19    35    36   ar
    20    36    37   ar
    21    37    38   ar
    22    38    39   ar
    23     2     5    1
    24     5     6   ar
    25     6     7   ar
    26     7     8   ar
    27     8    12    1
    28    12    13    1
    29    13    14    1
    30    14    15    1
    31    15    18    1
    32    18    19   ar
    33    19    20   ar
    34    20    21   ar
    35    21    25    1
    36    25    26    1
    37    25    27    1
    38    25    28    1
    39    21    22   ar
    40    22    23    1
    41    22    24   ar
    42    15    16    1
    43    16    17    1
    44     8     9   ar
    45     9    10   ar
    46    10    11    1
    47    49    41   ar
    48    39    34   ar
    49    10     5   ar
    50    49    44   ar
    51    17    12    1
    52    24    18   ar
    53     3     4    1
    54    43    50    1
    55    32    33    1
