@<TRIPOS>MOLECULE
*****
 39 43 0 0 0
SMALL
GASTEIGER

@<TRIPOS>ATOM
      1 C          46.6958   12.1848  -23.3385 C.2     1  UNL1        0.2510
      2 O          45.4532   12.1149  -23.1367 O.2     1  UNL1       -0.2698
      3 N          47.5762   11.1913  -22.7770 N.am    1  UNL1       -0.2680
      4 C          48.7574   10.7767  -23.5520 C.3     1  UNL1        0.1412
      5 C          49.5499    9.6436  -22.8913 C.3     1  UNL1        0.2268
      6 O          50.2476   10.0958  -21.7332 O.3     1  UNL1       -0.4739
      7 C          49.7089   10.7666  -20.6212 C.ar    1  UNL1        0.1362
      8 C          50.6187   11.1800  -19.6416 C.ar    1  UNL1        0.0366
      9 C          50.2005   11.9218  -18.5381 C.ar    1  UNL1        0.0031
     10 C          48.8509   12.2653  -18.3852 C.ar    1  UNL1       -0.0000
     11 C          47.9231   11.8199  -19.3400 C.ar    1  UNL1        0.0004
     12 C          48.3314   11.0681  -20.4580 C.ar    1  UNL1        0.0317
     13 C          47.2853   10.6296  -21.4508 C.3     1  UNL1        0.1236
     14 C          48.4129   13.1067  -17.2448 C.ar    1  UNL1        0.0015
     15 C          48.9939   12.9362  -15.9574 C.ar    1  UNL1        0.0016
     16 C          48.5912   13.7382  -14.8729 C.ar    1  UNL1        0.0206
     17 C          47.6124   14.6984  -15.1055 C.ar    1  UNL1        0.0985
     18 N          47.0863   15.5688  -14.2252 N.ar    1  UNL1       -0.2241
     19 C          46.1938   16.2609  -14.9814 C.ar    1  UNL1        0.1750
     20 N          46.1514   15.8563  -16.2736 N.ar    1  UNL1       -0.3349
     21 C          47.0523   14.8689  -16.3335 C.ar    1  UNL1        0.0757
     22 C          47.4190   14.0979  -17.4327 C.ar    1  UNL1        0.0185
     23 H          45.5529   16.2309  -17.0429 H       1  UNL1        0.1675
     24 C          48.0150   14.3078  -23.5313 C.ar    1  UNL1        0.0508
     25 C          48.5442   15.3445  -24.3204 C.ar    1  UNL1        0.0328
     26 C          48.3028   15.3900  -25.6969 C.ar    1  UNL1        0.1074
     27 C          47.5336   14.3912  -26.2998 C.ar    1  UNL1        0.0244
     28 C          46.9936   13.3530  -25.5356 C.ar    1  UNL1        0.0283
     29 S          46.0448   12.0795  -26.3774 S.3     1  UNL1       -0.1412
     30 C          47.2307   13.3024  -24.1456 C.ar    1  UNL1        0.0721
     31 H          44.8388   12.7810  -26.1923 H       1  UNL1        0.1071
     32 S          48.9898   16.6884  -26.6679 S.O2    1  UNL1        0.0105
     33 C          49.1974   18.1341  -25.6540 C.3     1  UNL1        0.1816
     34 O          48.0719   17.0044  -27.8153 O.2     1  UNL1       -0.1686
     35 O          50.3232   16.2670  -27.2191 O.2     1  UNL1       -0.1686
     36 N          48.2186   14.2995  -22.1042 N.pl3   1  UNL1       -0.3325
     37 H          47.4225   14.0358  -21.4817 H       1  UNL1        0.1468
     38 C          50.6403   13.9425  -22.0989 C.3     1  UNL1        0.0229
     39 C          49.4725   14.6774  -21.4550 C.3     1  UNL1        0.0871
@<TRIPOS>BOND
     1    38    39    1
     2    39    36    1
     3    36    24    1
     4    24    25   ar
     5    25    26   ar
     6    26    32    1
     7    32    33    1
     8    32    34    2
     9    32    35    2
    10    26    27   ar
    11    27    28   ar
    12    28    29    1
    13    28    30   ar
    14    30     1    1
    15     1     2    2
    16     1     3   am
    17     3     4    1
    18     4     5    1
    19     5     6    1
    20     6     7    1
    21     7     8   ar
    22     8     9   ar
    23     9    10   ar
    24    10    14    1
    25    14    15   ar
    26    15    16   ar
    27    16    17   ar
    28    17    18   ar
    29    18    19   ar
    30    19    20   ar
    31    20    21   ar
    32    21    22   ar
    33    10    11   ar
    34    11    12   ar
    35    12    13    1
    36    30    24   ar
    37    13     3    1
    38    12     7   ar
    39    22    14   ar
    40    21    17   ar
    41    36    37    1
    42    29    31    1
    43    20    23    1
@<TRIPOS>MOLECULE
*****
 39 43 0 0 0
SMALL
GASTEIGER

@<TRIPOS>ATOM
      1 C          48.9505   12.4109  -20.2992 C.2     1  UNL1        0.2510
      2 O          49.6892   13.2706  -19.7470 O.2     1  UNL1       -0.2698
      3 N          49.4765   11.5711  -21.3459 N.am    1  UNL1       -0.2680
      4 C          49.0053   10.1792  -21.4373 C.3     1  UNL1        0.1412
      5 C          49.7175    9.3674  -22.5246 C.3     1  UNL1        0.2268
      6 O          49.3192    9.7755  -23.8312 O.3     1  UNL1       -0.4739
      7 C          49.3514   11.0758  -24.3650 C.ar    1  UNL1        0.1362
      8 C          48.8284   11.2340  -25.6533 C.ar    1  UNL1        0.0366
      9 C          48.7396   12.4933  -26.2444 C.ar    1  UNL1        0.0031
     10 C          49.1804   13.6316  -25.5569 C.ar    1  UNL1       -0.0000
     11 C          49.7456   13.4795  -24.2808 C.ar    1  UNL1        0.0004
     12 C          49.8435   12.2135  -23.6731 C.ar    1  UNL1        0.0317
     13 C          50.4520   12.1213  -22.2970 C.3     1  UNL1        0.1236
     14 C          49.0303   14.9792  -26.1583 C.ar    1  UNL1        0.0015
     15 C          47.8374   15.3327  -26.8482 C.ar    1  UNL1        0.0016
     16 C          47.6832   16.6132  -27.4120 C.ar    1  UNL1        0.0206
     17 C          48.7325   17.5148  -27.2689 C.ar    1  UNL1        0.0985
     18 N          48.7983   18.7807  -27.7187 N.ar    1  UNL1       -0.2241
     19 C          50.0256   19.1870  -27.2989 C.ar    1  UNL1        0.1750
     20 N          50.7069   18.2343  -26.6181 N.ar    1  UNL1       -0.3349
     21 C          49.8762   17.1855  -26.6099 C.ar    1  UNL1        0.0757
     22 C          50.0717   15.9315  -26.0385 C.ar    1  UNL1        0.0185
     23 H          51.6602   18.3054  -26.1978 H       1  UNL1        0.1675
     24 C          46.4952   12.4490  -20.8040 C.ar    1  UNL1        0.0508
     25 C          45.1631   12.2953  -20.3806 C.ar    1  UNL1        0.0328
     26 C          44.8667   11.9885  -19.0490 C.ar    1  UNL1        0.1074
     27 C          45.9044   11.8245  -18.1274 C.ar    1  UNL1        0.0244
     28 C          47.2360   11.9763  -18.5237 C.ar    1  UNL1        0.0283
     29 S          48.5249   11.7155  -17.2984 S.3     1  UNL1       -0.1412
     30 C          47.5422   12.2888  -19.8652 C.ar    1  UNL1        0.0721
     31 H          48.5269   13.0747  -16.9335 H       1  UNL1        0.1071
     32 S          43.1920   11.7841  -18.5451 S.O2    1  UNL1        0.0105
     33 C          42.6326   13.2709  -17.7466 C.3     1  UNL1        0.1816
     34 O          43.0866   10.6282  -17.5903 O.2     1  UNL1       -0.1686
     35 O          42.3268   11.5016  -19.7414 O.2     1  UNL1       -0.1686
     36 N          46.7906   12.8231  -22.1644 N.pl3   1  UNL1       -0.3325
     37 H          47.5292   13.5398  -22.3425 H       1  UNL1        0.1468
     38 C          45.6790   13.4193  -24.2623 C.3     1  UNL1        0.0229
     39 C          46.0899   12.2876  -23.3302 C.3     1  UNL1        0.0871
@<TRIPOS>BOND
     1    38    39    1
     2    39    36    1
     3    36    24    1
     4    24    25   ar
     5    25    26   ar
     6    26    32    1
     7    32    33    1
     8    32    34    2
     9    32    35    2
    10    26    27   ar
    11    27    28   ar
    12    28    29    1
    13    28    30   ar
    14    30     1    1
    15     1     2    2
    16     1     3   am
    17     3     4    1
    18     4     5    1
    19     5     6    1
    20     6     7    1
    21     7     8   ar
    22     8     9   ar
    23     9    10   ar
    24    10    14    1
    25    14    15   ar
    26    15    16   ar
    27    16    17   ar
    28    17    18   ar
    29    18    19   ar
    30    19    20   ar
    31    20    21   ar
    32    21    22   ar
    33    10    11   ar
    34    11    12   ar
    35    12    13    1
    36    30    24   ar
    37    13     3    1
    38    12     7   ar
    39    22    14   ar
    40    21    17   ar
    41    36    37    1
    42    29    31    1
    43    20    23    1
@<TRIPOS>MOLECULE
*****
 39 43 0 0 0
SMALL
GASTEIGER

@<TRIPOS>ATOM
      1 C          46.7710   12.3021  -23.4360 C.2     1  UNL1        0.2510
      2 O          45.5235   12.2691  -23.2560 O.2     1  UNL1       -0.2698
      3 N          47.6098   11.2740  -22.8731 N.am    1  UNL1       -0.2680
      4 C          48.7904   10.8319  -23.6336 C.3     1  UNL1        0.1412
      5 C          49.5353    9.6658  -22.9748 C.3     1  UNL1        0.2268
      6 O          50.2269   10.0808  -21.7993 O.3     1  UNL1       -0.4739
      7 C          49.6907   10.7542  -20.6877 C.ar    1  UNL1        0.1362
      8 C          50.5961   11.1259  -19.6876 C.ar    1  UNL1        0.0366
      9 C          50.1826   11.8665  -18.5814 C.ar    1  UNL1        0.0031
     10 C          48.8421   12.2508  -18.4467 C.ar    1  UNL1       -0.0000
     11 C          47.9172   11.8474  -19.4227 C.ar    1  UNL1        0.0004
     12 C          48.3207   11.0973  -20.5435 C.ar    1  UNL1        0.0317
     13 C          47.2785   10.7049  -21.5596 C.3     1  UNL1        0.1236
     14 C          48.4113   13.0911  -17.3027 C.ar    1  UNL1        0.0015
     15 C          49.0122   12.9307  -16.0231 C.ar    1  UNL1        0.0016
     16 C          48.6164   13.7318  -14.9354 C.ar    1  UNL1        0.0206
     17 C          47.6243   14.6810  -15.1570 C.ar    1  UNL1        0.0985
     18 N          47.1016   15.5485  -14.2719 N.ar    1  UNL1       -0.2241
     19 C          46.1913   16.2290  -15.0176 C.ar    1  UNL1        0.1750
     20 N          46.1350   15.8199  -16.3079 N.ar    1  UNL1       -0.3349
     21 C          47.0453   14.8418  -16.3775 C.ar    1  UNL1        0.0757
     22 C          47.4046   14.0713  -17.4795 C.ar    1  UNL1        0.0185
     23 H          45.5218   16.1859  -17.0697 H       1  UNL1        0.1675
     24 C          47.0471   13.5478  -25.5940 C.ar    1  UNL1        0.0508
     25 C          47.5836   14.6293  -26.3149 C.ar    1  UNL1        0.0328
     26 C          48.4132   15.5647  -25.6890 C.ar    1  UNL1        0.1074
     27 C          48.7084   15.4305  -24.3297 C.ar    1  UNL1        0.0244
     28 C          48.1901   14.3616  -23.5932 C.ar    1  UNL1        0.0283
     29 S          48.5774   14.2671  -21.8406 S.3     1  UNL1       -0.1412
     30 C          47.3547   13.4123  -24.2191 C.ar    1  UNL1        0.0721
     31 H          49.7227   13.4855  -22.0816 H       1  UNL1        0.1071
     32 S          49.0601   16.9205  -26.6077 S.O2    1  UNL1        0.0105
     33 C          49.1515   18.3522  -25.5575 C.3     1  UNL1        0.1816
     34 O          48.1665   17.2113  -27.7807 O.2     1  UNL1       -0.1686
     35 O          50.4333   16.5855  -27.1192 O.2     1  UNL1       -0.1686
     36 N          46.2408   12.5549  -26.2590 N.pl3   1  UNL1       -0.3325
     37 H          45.2348   12.4608  -25.9945 H       1  UNL1        0.1468
     38 C          46.2644   12.0386  -28.6517 C.3     1  UNL1        0.0229
     39 C          46.7515   11.6292  -27.2684 C.3     1  UNL1        0.0871
@<TRIPOS>BOND
     1    38    39    1
     2    39    36    1
     3    36    24    1
     4    24    25   ar
     5    25    26   ar
     6    26    32    1
     7    32    33    1
     8    32    34    2
     9    32    35    2
    10    26    27   ar
    11    27    28   ar
    12    28    29    1
    13    28    30   ar
    14    30     1    1
    15     1     2    2
    16     1     3   am
    17     3     4    1
    18     4     5    1
    19     5     6    1
    20     6     7    1
    21     7     8   ar
    22     8     9   ar
    23     9    10   ar
    24    10    14    1
    25    14    15   ar
    26    15    16   ar
    27    16    17   ar
    28    17    18   ar
    29    18    19   ar
    30    19    20   ar
    31    20    21   ar
    32    21    22   ar
    33    10    11   ar
    34    11    12   ar
    35    12    13    1
    36    30    24   ar
    37    13     3    1
    38    12     7   ar
    39    22    14   ar
    40    21    17   ar
    41    36    37    1
    42    29    31    1
    43    20    23    1
@<TRIPOS>MOLECULE
*****
 39 43 0 0 0
SMALL
GASTEIGER

@<TRIPOS>ATOM
      1 C          47.2342   11.8476  -22.8940 C.2     1  UNL1        0.2510
      2 O          46.8539   10.7276  -22.4574 O.2     1  UNL1       -0.2698
      3 N          46.3725   12.6183  -23.7548 N.am    1  UNL1       -0.2680
      4 C          46.3844   14.0856  -23.6341 C.3     1  UNL1        0.1412
      5 C          45.3508   14.7768  -24.5299 C.3     1  UNL1        0.2268
      6 O          45.7186   14.7092  -25.9057 O.3     1  UNL1       -0.4739
      7 C          46.0302   13.5574  -26.6491 C.ar    1  UNL1        0.1362
      8 C          46.4416   13.7610  -27.9711 C.ar    1  UNL1        0.0366
      9 C          46.8495   12.6943  -28.7704 C.ar    1  UNL1        0.0031
     10 C          46.8502   11.3884  -28.2632 C.ar    1  UNL1       -0.0000
     11 C          46.3995   11.1674  -26.9521 C.ar    1  UNL1        0.0004
     12 C          45.9826   12.2351  -26.1349 C.ar    1  UNL1        0.0317
     13 C          45.5195   11.9298  -24.7332 C.3     1  UNL1        0.1236
     14 C          47.3419   10.2598  -29.0907 C.ar    1  UNL1        0.0015
     15 C          46.6944    9.9252  -30.3125 C.ar    1  UNL1        0.0016
     16 C          47.1618    8.8626  -31.1086 C.ar    1  UNL1        0.0206
     17 C          48.2741    8.1579  -30.6605 C.ar    1  UNL1        0.0985
     18 N          48.8874    7.1202  -31.2574 N.ar    1  UNL1       -0.2241
     19 C          49.9009    6.8336  -30.3982 C.ar    1  UNL1        0.1750
     20 N          49.9345    7.6430  -29.3124 N.ar    1  UNL1       -0.3349
     21 C          48.8999    8.4717  -29.4941 C.ar    1  UNL1        0.0757
     22 C          48.4712    9.5128  -28.6758 C.ar    1  UNL1        0.0185
     23 H          50.6127    7.6224  -28.5187 H       1  UNL1        0.1675
     24 C          49.5543   12.5637  -23.5179 C.ar    1  UNL1        0.0508
     25 C          50.8122   13.0716  -23.1477 C.ar    1  UNL1        0.0328
     26 C          51.1011   13.3615  -21.8107 C.ar    1  UNL1        0.1074
     27 C          50.1282   13.1524  -20.8296 C.ar    1  UNL1        0.0244
     28 C          48.8720   12.6446  -21.1727 C.ar    1  UNL1        0.0283
     29 S          47.6528   12.4340  -19.8690 S.3     1  UNL1       -0.1412
     30 C          48.5747   12.3470  -22.5195 C.ar    1  UNL1        0.0721
     31 H          48.0681   11.1123  -19.6211 H       1  UNL1        0.1071
     32 S          52.6773   14.0127  -21.3725 S.O2    1  UNL1        0.0105
     33 C          52.7081   14.3543  -19.6280 C.3     1  UNL1        0.1816
     34 O          52.9343   15.2795  -22.1394 O.2     1  UNL1       -0.1686
     35 O          53.7545   13.0193  -21.7079 O.2     1  UNL1       -0.1686
     36 N          49.2837   12.2117  -24.8894 N.pl3   1  UNL1       -0.3325
     37 H          48.3563   12.4593  -25.3012 H       1  UNL1        0.1468
     38 C          50.3010   10.0271  -25.3198 C.3     1  UNL1        0.0229
     39 C          50.2190   11.4863  -25.7472 C.3     1  UNL1        0.0871
@<TRIPOS>BOND
     1    38    39    1
     2    39    36    1
     3    36    24    1
     4    24    25   ar
     5    25    26   ar
     6    26    32    1
     7    32    33    1
     8    32    34    2
     9    32    35    2
    10    26    27   ar
    11    27    28   ar
    12    28    29    1
    13    28    30   ar
    14    30     1    1
    15     1     2    2
    16     1     3   am
    17     3     4    1
    18     4     5    1
    19     5     6    1
    20     6     7    1
    21     7     8   ar
    22     8     9   ar
    23     9    10   ar
    24    10    14    1
    25    14    15   ar
    26    15    16   ar
    27    16    17   ar
    28    17    18   ar
    29    18    19   ar
    30    19    20   ar
    31    20    21   ar
    32    21    22   ar
    33    10    11   ar
    34    11    12   ar
    35    12    13    1
    36    30    24   ar
    37    13     3    1
    38    12     7   ar
    39    22    14   ar
    40    21    17   ar
    41    36    37    1
    42    29    31    1
    43    20    23    1
@<TRIPOS>MOLECULE
*****
 39 43 0 0 0
SMALL
GASTEIGER

@<TRIPOS>ATOM
      1 C          49.7787    9.8045  -27.4521 C.2     1  UNL1        0.2510
      2 O          48.7456    9.9954  -28.1494 O.2     1  UNL1       -0.2698
      3 N          49.7214    9.9534  -26.0196 N.am    1  UNL1       -0.2680
      4 C          50.5356    9.0554  -25.1840 C.3     1  UNL1        0.1412
      5 C          50.3047    9.2488  -23.6814 C.3     1  UNL1        0.2268
      6 O          50.8620   10.4763  -23.2176 O.3     1  UNL1       -0.4739
      7 C          50.6208   11.7663  -23.7217 C.ar    1  UNL1        0.1362
      8 C          51.3547   12.8086  -23.1443 C.ar    1  UNL1        0.0366
      9 C          51.2504   14.1136  -23.6230 C.ar    1  UNL1        0.0031
     10 C          50.3989   14.4091  -24.6956 C.ar    1  UNL1       -0.0000
     11 C          49.6265   13.3790  -25.2550 C.ar    1  UNL1        0.0004
     12 C          49.7202   12.0572  -24.7798 C.ar    1  UNL1        0.0317
     13 C          48.8701   10.9966  -25.4315 C.3     1  UNL1        0.1236
     14 C          50.3325   15.7846  -25.2470 C.ar    1  UNL1        0.0015
     15 C          51.2991   16.7593  -24.8731 C.ar    1  UNL1        0.0016
     16 C          51.2490   18.0634  -25.4005 C.ar    1  UNL1        0.0206
     17 C          50.2276   18.3613  -26.2963 C.ar    1  UNL1        0.0985
     18 N          49.9938   19.5296  -26.9204 N.ar    1  UNL1       -0.2241
     19 C          48.8917   19.2573  -27.6681 C.ar    1  UNL1        0.1750
     20 N          48.4456   17.9856  -27.5302 N.ar    1  UNL1       -0.3349
     21 C          49.2999   17.4352  -26.6600 C.ar    1  UNL1        0.0757
     22 C          49.3106   16.1353  -26.1626 C.ar    1  UNL1        0.0185
     23 H          47.6243   17.5407  -27.9971 H       1  UNL1        0.1675
     24 C          52.2261   10.1679  -27.8557 C.ar    1  UNL1        0.0508
     25 C          53.4267    9.7852  -28.4796 C.ar    1  UNL1        0.0328
     26 C          53.4607    8.6990  -29.3596 C.ar    1  UNL1        0.1074
     27 C          52.2914    7.9788  -29.6182 C.ar    1  UNL1        0.0244
     28 C          51.0853    8.3428  -29.0131 C.ar    1  UNL1        0.0283
     29 S          49.6256    7.3527  -29.3586 S.3     1  UNL1       -0.1412
     30 C          51.0430    9.4395  -28.1263 C.ar    1  UNL1        0.0721
     31 H          49.2687    8.1642  -30.4517 H       1  UNL1        0.1071
     32 S          54.9790    8.2274  -30.1164 S.O2    1  UNL1        0.0105
     33 C          54.6553    7.0214  -31.3821 C.3     1  UNL1        0.1816
     34 O          55.9001    7.6404  -29.0839 O.2     1  UNL1       -0.1686
     35 O          55.6433    9.4294  -30.7274 O.2     1  UNL1       -0.1686
     36 N          52.1862   11.3242  -26.9958 N.pl3   1  UNL1       -0.3325
     37 H          51.2631   11.6551  -26.6362 H       1  UNL1        0.1468
     38 C          53.8112   11.7267  -25.2098 C.3     1  UNL1        0.0229
     39 C          53.3643   12.1019  -26.6163 C.3     1  UNL1        0.0871
@<TRIPOS>BOND
     1    38    39    1
     2    39    36    1
     3    36    24    1
     4    24    25   ar
     5    25    26   ar
     6    26    32    1
     7    32    33    1
     8    32    34    2
     9    32    35    2
    10    26    27   ar
    11    27    28   ar
    12    28    29    1
    13    28    30   ar
    14    30     1    1
    15     1     2    2
    16     1     3   am
    17     3     4    1
    18     4     5    1
    19     5     6    1
    20     6     7    1
    21     7     8   ar
    22     8     9   ar
    23     9    10   ar
    24    10    14    1
    25    14    15   ar
    26    15    16   ar
    27    16    17   ar
    28    17    18   ar
    29    18    19   ar
    30    19    20   ar
    31    20    21   ar
    32    21    22   ar
    33    10    11   ar
    34    11    12   ar
    35    12    13    1
    36    30    24   ar
    37    13     3    1
    38    12     7   ar
    39    22    14   ar
    40    21    17   ar
    41    36    37    1
    42    29    31    1
    43    20    23    1
@<TRIPOS>MOLECULE
*****
 39 43 0 0 0
SMALL
GASTEIGER

@<TRIPOS>ATOM
      1 C          50.0252    9.7928  -27.4836 C.2     1  UNL1        0.2510
      2 O          49.0111    9.9658  -28.2126 O.2     1  UNL1       -0.2698
      3 N          49.9154    9.9162  -26.0517 N.am    1  UNL1       -0.2680
      4 C          50.7267    9.0279  -25.2029 C.3     1  UNL1        0.1412
      5 C          50.4398    9.1898  -23.7063 C.3     1  UNL1        0.2268
      6 O          50.9455   10.4247  -23.2046 O.3     1  UNL1       -0.4739
      7 C          50.6843   11.7156  -23.6965 C.ar    1  UNL1        0.1362
      8 C          51.3678   12.7686  -23.0781 C.ar    1  UNL1        0.0366
      9 C          51.2421   14.0778  -23.5397 C.ar    1  UNL1        0.0031
     10 C          50.4190   14.3668  -24.6360 C.ar    1  UNL1       -0.0000
     11 C          49.6959   13.3246  -25.2374 C.ar    1  UNL1        0.0004
     12 C          49.8117   11.9984  -24.7800 C.ar    1  UNL1        0.0317
     13 C          49.0150   10.9250  -25.4768 C.3     1  UNL1        0.1236
     14 C          50.3314   15.7488  -25.1678 C.ar    1  UNL1        0.0015
     15 C          51.2467   16.7481  -24.7343 C.ar    1  UNL1        0.0016
     16 C          51.1768   18.0589  -25.2425 C.ar    1  UNL1        0.0206
     17 C          50.1877   18.3386  -26.1795 C.ar    1  UNL1        0.0985
     18 N          49.9434   19.5094  -26.7949 N.ar    1  UNL1       -0.2241
     19 C          48.8863   19.2141  -27.5968 C.ar    1  UNL1        0.1750
     20 N          48.4773   17.9262  -27.5000 N.ar    1  UNL1       -0.3349
     21 C          49.3092   17.3890  -26.6003 C.ar    1  UNL1        0.0757
     22 C          49.3411   16.0817  -26.1238 C.ar    1  UNL1        0.0185
     23 H          47.6936   17.4627  -28.0113 H       1  UNL1        0.1675
     24 C          51.4238    8.3801  -29.0109 C.ar    1  UNL1        0.0508
     25 C          52.6561    8.1134  -29.6335 C.ar    1  UNL1        0.0328
     26 C          53.7734    8.9151  -29.3805 C.ar    1  UNL1        0.1074
     27 C          53.6656    9.9992  -28.5053 C.ar    1  UNL1        0.0244
     28 C          52.4523   10.2817  -27.8716 C.ar    1  UNL1        0.0283
     29 S          52.3703   11.7122  -26.7866 S.3     1  UNL1       -0.1412
     30 C          51.3216    9.4750  -28.1199 C.ar    1  UNL1        0.0721
     31 H          52.7267   10.9458  -25.6613 H       1  UNL1        0.1071
     32 S          55.3021    8.5725  -30.1845 S.O2    1  UNL1        0.0105
     33 C          55.1922    7.0028  -31.0122 C.3     1  UNL1        0.1816
     34 O          56.4109    8.5319  -29.1707 O.2     1  UNL1       -0.1686
     35 O          55.6064    9.6487  -31.1888 O.2     1  UNL1       -0.1686
     36 N          50.2922    7.5146  -29.2307 N.pl3   1  UNL1       -0.3325
     37 H          50.0792    6.7726  -28.5273 H       1  UNL1        0.1468
     38 C          50.0909    6.8741  -31.5848 C.3     1  UNL1        0.0229
     39 C          49.4294    7.5800  -30.4090 C.3     1  UNL1        0.0871
@<TRIPOS>BOND
     1    38    39    1
     2    39    36    1
     3    36    24    1
     4    24    25   ar
     5    25    26   ar
     6    26    32    1
     7    32    33    1
     8    32    34    2
     9    32    35    2
    10    26    27   ar
    11    27    28   ar
    12    28    29    1
    13    28    30   ar
    14    30     1    1
    15     1     2    2
    16     1     3   am
    17     3     4    1
    18     4     5    1
    19     5     6    1
    20     6     7    1
    21     7     8   ar
    22     8     9   ar
    23     9    10   ar
    24    10    14    1
    25    14    15   ar
    26    15    16   ar
    27    16    17   ar
    28    17    18   ar
    29    18    19   ar
    30    19    20   ar
    31    20    21   ar
    32    21    22   ar
    33    10    11   ar
    34    11    12   ar
    35    12    13    1
    36    30    24   ar
    37    13     3    1
    38    12     7   ar
    39    22    14   ar
    40    21    17   ar
    41    36    37    1
    42    29    31    1
    43    20    23    1
@<TRIPOS>MOLECULE
*****
 39 43 0 0 0
SMALL
GASTEIGER

@<TRIPOS>ATOM
      1 C          52.2163   11.9785  -24.8550 C.2     1  UNL1        0.2510
      2 O          53.2752   11.6912  -24.2338 O.2     1  UNL1       -0.2698
      3 N          51.6304   13.2882  -24.7175 N.am    1  UNL1       -0.2680
      4 C          50.9754   13.8944  -25.8886 C.3     1  UNL1        0.1412
      5 C          50.4875   15.3254  -25.6382 C.3     1  UNL1        0.2268
      6 O          49.3571   15.3511  -24.7698 O.3     1  UNL1       -0.4739
      7 C          49.2508   14.7752  -23.4917 C.ar    1  UNL1        0.1362
      8 C          48.0018   14.8689  -22.8676 C.ar    1  UNL1        0.0366
      9 C          47.7662   14.2634  -21.6344 C.ar    1  UNL1        0.0031
     10 C          48.7843   13.5488  -20.9896 C.ar    1  UNL1       -0.0000
     11 C          50.0532   13.4839  -21.5866 C.ar    1  UNL1        0.0004
     12 C          50.3056   14.0928  -22.8305 C.ar    1  UNL1        0.0317
     13 C          51.6878   13.9769  -23.4209 C.3     1  UNL1        0.1236
     14 C          48.5188   12.8517  -19.7075 C.ar    1  UNL1        0.0015
     15 C          47.3307   12.0886  -19.5337 C.ar    1  UNL1        0.0016
     16 C          47.0769   11.4153  -18.3239 C.ar    1  UNL1        0.0206
     17 C          48.0253   11.5213  -17.3121 C.ar    1  UNL1        0.0985
     18 N          47.9912   10.9626  -16.0890 N.ar    1  UNL1       -0.2241
     19 C          49.1556   11.3869  -15.5306 C.ar    1  UNL1        0.1750
     20 N          49.8937   12.1729  -16.3509 N.ar    1  UNL1       -0.3349
     21 C          49.1645   12.2478  -17.4702 C.ar    1  UNL1        0.0757
     22 C          49.4552   12.9301  -18.6480 C.ar    1  UNL1        0.0185
     23 H          50.8181   12.6162  -16.1524 H       1  UNL1        0.1675
     24 C          50.4672   10.2237  -25.2374 C.ar    1  UNL1        0.0508
     25 C          49.8580    9.2754  -26.0781 C.ar    1  UNL1        0.0328
     26 C          50.3444    9.0470  -27.3690 C.ar    1  UNL1        0.1074
     27 C          51.4437    9.7732  -27.8348 C.ar    1  UNL1        0.0244
     28 C          52.0684   10.7182  -27.0161 C.ar    1  UNL1        0.0283
     29 S          53.4540   11.6450  -27.6881 S.3     1  UNL1       -0.1412
     30 C          51.5847   10.9516  -25.7113 C.ar    1  UNL1        0.0721
     31 H          54.3832   10.6958  -27.2230 H       1  UNL1        0.1071
     32 S          49.5551    7.8666  -28.4103 S.O2    1  UNL1        0.0105
     33 C          50.5903    7.5395  -29.8183 C.3     1  UNL1        0.1816
     34 O          48.2295    8.4034  -28.8725 O.2     1  UNL1       -0.1686
     35 O          49.3205    6.5895  -27.6531 O.2     1  UNL1       -0.1686
     36 N          49.9974   10.4117  -23.8876 N.pl3   1  UNL1       -0.3325
     37 H          49.7218   11.3702  -23.5772 H       1  UNL1        0.1468
     38 C          48.7649    9.6076  -21.9314 C.3     1  UNL1        0.0229
     39 C          49.9141    9.3424  -22.8944 C.3     1  UNL1        0.0871
@<TRIPOS>BOND
     1    38    39    1
     2    39    36    1
     3    36    24    1
     4    24    25   ar
     5    25    26   ar
     6    26    32    1
     7    32    33    1
     8    32    34    2
     9    32    35    2
    10    26    27   ar
    11    27    28   ar
    12    28    29    1
    13    28    30   ar
    14    30     1    1
    15     1     2    2
    16     1     3   am
    17     3     4    1
    18     4     5    1
    19     5     6    1
    20     6     7    1
    21     7     8   ar
    22     8     9   ar
    23     9    10   ar
    24    10    14    1
    25    14    15   ar
    26    15    16   ar
    27    16    17   ar
    28    17    18   ar
    29    18    19   ar
    30    19    20   ar
    31    20    21   ar
    32    21    22   ar
    33    10    11   ar
    34    11    12   ar
    35    12    13    1
    36    30    24   ar
    37    13     3    1
    38    12     7   ar
    39    22    14   ar
    40    21    17   ar
    41    36    37    1
    42    29    31    1
    43    20    23    1
@<TRIPOS>MOLECULE
*****
 39 43 0 0 0
SMALL
GASTEIGER

@<TRIPOS>ATOM
      1 C          46.9839   13.8729  -23.7658 C.2     1  UNL1        0.2510
      2 O          45.8082   14.2141  -23.4641 O.2     1  UNL1       -0.2698
      3 N          47.4001   12.5014  -23.6134 N.am    1  UNL1       -0.2680
      4 C          48.3411   11.9365  -24.5948 C.3     1  UNL1        0.1412
      5 C          48.6202   10.4451  -24.3795 C.3     1  UNL1        0.2268
      6 O          49.4186   10.2218  -23.2196 O.3     1  UNL1       -0.4739
      7 C          49.1632   10.6663  -21.9105 C.ar    1  UNL1        0.1362
      8 C          50.1450   10.3848  -20.9539 C.ar    1  UNL1        0.0366
      9 C          50.0283   10.8489  -19.6447 C.ar    1  UNL1        0.0031
     10 C          48.9153   11.6068  -19.2580 C.ar    1  UNL1       -0.0000
     11 C          47.9041   11.8594  -20.1984 C.ar    1  UNL1        0.0004
     12 C          48.0080   11.3947  -21.5231 C.ar    1  UNL1        0.0317
     13 C          46.8911   11.7092  -22.4854 C.3     1  UNL1        0.1236
     14 C          48.8184   12.1540  -17.8827 C.ar    1  UNL1        0.0015
     15 C          49.4319   11.4772  -16.7919 C.ar    1  UNL1        0.0016
     16 C          49.3535   11.9960  -15.4857 C.ar    1  UNL1        0.0206
     17 C          48.6606   13.1879  -15.3024 C.ar    1  UNL1        0.0985
     18 N          48.4664   13.8597  -14.1534 N.ar    1  UNL1       -0.2241
     19 C          47.7404   14.9373  -14.5527 C.ar    1  UNL1        0.1750
     20 N          47.4848   14.9542  -15.8830 N.ar    1  UNL1       -0.3349
     21 C          48.0720   13.8421  -16.3398 C.ar    1  UNL1        0.0757
     22 C          48.1233   13.3650  -17.6463 C.ar    1  UNL1        0.0185
     23 H          46.9523   15.6713  -16.4239 H       1  UNL1        0.1675
     24 C          49.1108   15.1816  -23.5453 C.ar    1  UNL1        0.0508
     25 C          50.0105   16.1363  -24.0517 C.ar    1  UNL1        0.0328
     26 C          49.7439   16.8049  -25.2504 C.ar    1  UNL1        0.1074
     27 C          48.5745   16.5179  -25.9597 C.ar    1  UNL1        0.0244
     28 C          47.6633   15.5759  -25.4743 C.ar    1  UNL1        0.0283
     29 S          46.1969   15.2255  -26.4529 S.3     1  UNL1       -0.1412
     30 C          47.9244   14.8995  -24.2638 C.ar    1  UNL1        0.0721
     31 H          45.4523   16.2190  -25.7902 H       1  UNL1        0.1071
     32 S          50.8930   17.9843  -25.8741 S.O2    1  UNL1        0.0105
     33 C          52.0717   18.3850  -24.6047 C.3     1  UNL1        0.1816
     34 O          50.1642   19.2288  -26.2970 O.2     1  UNL1       -0.1686
     35 O          51.6131   17.4188  -27.0662 O.2     1  UNL1       -0.1686
     36 N          49.3633   14.5393  -22.2796 N.pl3   1  UNL1       -0.3325
     37 H          48.5876   14.4716  -21.5835 H       1  UNL1        0.1468
     38 C          50.9486   14.3416  -20.4249 C.3     1  UNL1        0.0229
     39 C          50.6623   14.0004  -21.8810 C.3     1  UNL1        0.0871
@<TRIPOS>BOND
     1    38    39    1
     2    39    36    1
     3    36    24    1
     4    24    25   ar
     5    25    26   ar
     6    26    32    1
     7    32    33    1
     8    32    34    2
     9    32    35    2
    10    26    27   ar
    11    27    28   ar
    12    28    29    1
    13    28    30   ar
    14    30     1    1
    15     1     2    2
    16     1     3   am
    17     3     4    1
    18     4     5    1
    19     5     6    1
    20     6     7    1
    21     7     8   ar
    22     8     9   ar
    23     9    10   ar
    24    10    14    1
    25    14    15   ar
    26    15    16   ar
    27    16    17   ar
    28    17    18   ar
    29    18    19   ar
    30    19    20   ar
    31    20    21   ar
    32    21    22   ar
    33    10    11   ar
    34    11    12   ar
    35    12    13    1
    36    30    24   ar
    37    13     3    1
    38    12     7   ar
    39    22    14   ar
    40    21    17   ar
    41    36    37    1
    42    29    31    1
    43    20    23    1
@<TRIPOS>MOLECULE
*****
 39 43 0 0 0
SMALL
GASTEIGER

@<TRIPOS>ATOM
      1 C          48.7547    8.7038  -28.0882 C.2     1  UNL1        0.2510
      2 O          48.2608    7.5873  -27.7731 O.2     1  UNL1       -0.2698
      3 N          50.0778    9.0608  -27.6414 N.am    1  UNL1       -0.2680
      4 C          50.9329    9.8588  -28.5357 C.3     1  UNL1        0.1412
      5 C          52.3462   10.0804  -27.9861 C.3     1  UNL1        0.2268
      6 O          52.3462   10.9866  -26.8855 O.3     1  UNL1       -0.4739
      7 C          51.5823   10.8983  -25.7085 C.ar    1  UNL1        0.1362
      8 C          51.7016   11.9616  -24.8066 C.ar    1  UNL1        0.0366
      9 C          50.9294   12.0120  -23.6472 C.ar    1  UNL1        0.0031
     10 C          50.0168   10.9890  -23.3584 C.ar    1  UNL1       -0.0000
     11 C          49.9193    9.8967  -24.2349 C.ar    1  UNL1        0.0004
     12 C          50.6947    9.8319  -25.4080 C.ar    1  UNL1        0.0317
     13 C          50.5343    8.6356  -26.3111 C.3     1  UNL1        0.1236
     14 C          49.1499   11.0706  -22.1575 C.ar    1  UNL1        0.0015
     15 C          49.6607   10.7292  -20.8744 C.ar    1  UNL1        0.0016
     16 C          48.8474   10.8145  -19.7286 C.ar    1  UNL1        0.0206
     17 C          47.5353   11.2441  -19.8961 C.ar    1  UNL1        0.0985
     18 N          46.5933   11.4033  -18.9492 N.ar    1  UNL1       -0.2241
     19 C          45.5208   11.8406  -19.6607 C.ar    1  UNL1        0.1750
     20 N          45.7632   11.9552  -20.9887 N.ar    1  UNL1       -0.3349
     21 C          47.0390   11.5735  -21.1191 C.ar    1  UNL1        0.0757
     22 C          47.8066   11.5027  -22.2779 C.ar    1  UNL1        0.0185
     23 H          45.1044   12.2695  -21.7354 H       1  UNL1        0.1675
     24 C          47.4422   10.8255  -28.3331 C.ar    1  UNL1        0.0508
     25 C          46.7119   11.7191  -29.1366 C.ar    1  UNL1        0.0328
     26 C          46.4881   11.4452  -30.4893 C.ar    1  UNL1        0.1074
     27 C          47.0013   10.2745  -31.0543 C.ar    1  UNL1        0.0244
     28 C          47.7268    9.3693  -30.2748 C.ar    1  UNL1        0.0283
     29 S          48.3914    7.9010  -31.0704 S.3     1  UNL1       -0.1412
     30 C          47.9538    9.6378  -28.9083 C.ar    1  UNL1        0.0721
     31 H          47.2347    7.1543  -30.7783 H       1  UNL1        0.1071
     32 S          45.5853   12.5868  -31.4803 S.O2    1  UNL1        0.0105
     33 C          46.4107   12.7910  -33.0418 C.3     1  UNL1        0.1816
     34 O          45.5000   13.9125  -30.7774 O.2     1  UNL1       -0.1686
     35 O          44.1916   12.0741  -31.7133 O.2     1  UNL1       -0.1686
     36 N          47.6186   11.0855  -26.9262 N.pl3   1  UNL1       -0.3325
     37 H          48.0305   10.3397  -26.3221 H       1  UNL1        0.1468
     38 C          45.8902   12.1387  -25.5492 C.3     1  UNL1        0.0229
     39 C          47.2191   12.3281  -26.2679 C.3     1  UNL1        0.0871
@<TRIPOS>BOND
     1    38    39    1
     2    39    36    1
     3    36    24    1
     4    24    25   ar
     5    25    26   ar
     6    26    32    1
     7    32    33    1
     8    32    34    2
     9    32    35    2
    10    26    27   ar
    11    27    28   ar
    12    28    29    1
    13    28    30   ar
    14    30     1    1
    15     1     2    2
    16     1     3   am
    17     3     4    1
    18     4     5    1
    19     5     6    1
    20     6     7    1
    21     7     8   ar
    22     8     9   ar
    23     9    10   ar
    24    10    14    1
    25    14    15   ar
    26    15    16   ar
    27    16    17   ar
    28    17    18   ar
    29    18    19   ar
    30    19    20   ar
    31    20    21   ar
    32    21    22   ar
    33    10    11   ar
    34    11    12   ar
    35    12    13    1
    36    30    24   ar
    37    13     3    1
    38    12     7   ar
    39    22    14   ar
    40    21    17   ar
    41    36    37    1
    42    29    31    1
    43    20    23    1
