@<TRIPOS>MOLECULE
*****
 45 49 0 0 0
SMALL
GASTEIGER

@<TRIPOS>ATOM
      1 C         -26.9791   51.4568   -8.1865 C.3     1  UNL1        0.1562
      2 C         -27.3058   52.2882   -6.9398 C.3     1  UNL1        0.0622
      3 C         -28.1920   51.3934   -6.0552 C.3     1  UNL1        0.1294
      4 O         -29.2179   52.1705   -5.4825 O.3     1  UNL1       -0.3808
      5 C         -28.8168   50.3779   -7.0369 C.3     1  UNL1        0.1264
      6 N         -27.9658   50.3855   -8.2172 N.am    1  UNL1       -0.2544
      7 C         -27.9889   49.3544   -9.2218 C.2     1  UNL1        0.3081
      8 O         -27.0232   49.2483  -10.0261 O.2     1  UNL1       -0.2522
      9 N         -29.1032   48.4503   -9.3172 N.am    1  UNL1       -0.2657
     10 H         -29.8081   51.5529   -4.9747 H       1  UNL1        0.2107
     11 H         -29.7183   48.3218   -8.4841 H       1  UNL1        0.1565
     12 C         -29.4263   47.7070  -10.5057 C.ar    1  UNL1        0.0857
     13 C         -28.9071   46.4156  -10.7152 C.ar    1  UNL1        0.0187
     14 C         -29.1955   45.7189  -11.8914 C.ar    1  UNL1        0.0129
     15 C         -29.9940   46.3057  -12.8761 C.ar    1  UNL1        0.0608
     16 CL        -30.3512   45.4297  -14.3534 Cl      1  UNL1       -0.0821
     17 C         -30.4990   47.5953  -12.6876 C.ar    1  UNL1        0.0493
     18 C         -30.2142   48.3012  -11.5096 C.ar    1  UNL1        0.1479
     19 O         -30.7177   49.5889  -11.3291 O.3     1  UNL1       -0.5042
     20 H         -31.2886   50.0396  -12.0347 H       1  UNL1        0.2922
     21 C         -27.3237   50.7324   -4.9684 C.ar    1  UNL1        0.0310
     22 C         -26.2546   51.4376   -4.3691 C.ar    1  UNL1        0.0026
     23 C         -25.4970   50.8602   -3.3474 C.ar    1  UNL1        0.0295
     24 C         -25.8070   49.5837   -2.8808 C.ar    1  UNL1        0.1424
     25 F         -25.0728   49.0279   -1.8857 F       1  UNL1       -0.2041
     26 C         -26.8881   48.8891   -3.4227 C.ar    1  UNL1        0.0590
     27 C         -27.6539   49.4580   -4.4457 C.ar    1  UNL1        0.1406
     28 F         -28.7301   48.7664   -4.8983 F       1  UNL1       -0.2044
     29 O         -28.0295   52.9604   -9.7231 O.2     1  UNL1       -0.2730
     30 C         -26.9946   52.2960   -9.4498 C.2     1  UNL1        0.2454
     31 N         -25.9178   52.2702  -10.3990 N.am    1  UNL1       -0.2680
     32 H         -26.1516   52.2891  -11.4170 H       1  UNL1        0.1563
     33 C         -24.5407   52.2246  -10.0189 C.ar    1  UNL1        0.1346
     34 C         -24.1220   51.3726   -8.9922 C.ar    1  UNL1        0.0406
     35 C         -22.7755   51.3556   -8.6238 C.ar    1  UNL1        0.0736
     36 C         -21.8522   52.1723   -9.2945 C.ar    1  UNL1        0.2466
     37 C         -22.3091   52.9743  -10.3508 C.ar    1  UNL1        0.1691
     38 N         -23.6266   52.9821  -10.6820 N.ar    1  UNL1       -0.2228
     39 N         -20.4621   52.1810   -8.9121 N.am    1  UNL1       -0.0841
     40 C         -20.1076   52.7520   -7.7195 C.2     1  UNL1        0.2905
     41 C         -18.7737   52.7716   -7.3075 C.2     1  UNL1        0.0758
     42 C         -17.7971   52.2052   -8.1226 C.2     1  UNL1        0.0161
     43 C         -18.1602   51.6307   -9.3387 C.2     1  UNL1        0.1156
     44 C         -19.5042   51.6284   -9.7279 C.2     1  UNL1        0.4230
     45 O         -19.8169   51.1261  -10.8426 O.2     1  UNL1       -0.2135
@<TRIPOS>BOND
     1    29    30    2
     2    30    31   am
     3    31    33    1
     4    33    34   ar
     5    34    35   ar
     6    35    36   ar
     7    36    39    1
     8    39    40    1
     9    40    41    2
    10    41    42    1
    11    42    43    2
    12    43    44    1
    13    44    45    2
    14    36    37   ar
    15    37    38   ar
    16    30     1    1
    17     1     2    1
    18     2     3    1
    19     3     4    1
    20     3    21    1
    21    21    22   ar
    22    22    23   ar
    23    23    24   ar
    24    24    25    1
    25    24    26   ar
    26    26    27   ar
    27    27    28    1
    28     3     5    1
    29     5     6    1
    30     6     7   am
    31     7     8    2
    32     7     9   am
    33     9    12    1
    34    12    13   ar
    35    13    14   ar
    36    14    15   ar
    37    15    16    1
    38    15    17   ar
    39    17    18   ar
    40    18    19    1
    41    38    33   ar
    42     6     1    1
    43    18    12   ar
    44    44    39    1
    45    27    21   ar
    46    31    32    1
    47     4    10    1
    48     9    11    1
    49    19    20    1
@<TRIPOS>MOLECULE
*****
 45 49 0 0 0
SMALL
GASTEIGER

@<TRIPOS>ATOM
      1 C         -28.2650   49.6400   -5.2787 C.3     1  UNL1        0.1562
      2 C         -29.2356   48.4828   -5.0121 C.3     1  UNL1        0.0622
      3 C         -28.5825   47.2327   -5.6278 C.3     1  UNL1        0.1294
      4 O         -29.5702   46.4509   -6.2583 O.3     1  UNL1       -0.3808
      5 C         -27.6193   47.7887   -6.6994 C.3     1  UNL1        0.1264
      6 N         -27.3849   49.1804   -6.3447 N.am    1  UNL1       -0.2544
      7 C         -26.2987   49.9643   -6.8725 C.2     1  UNL1        0.3081
      8 O         -25.9620   51.0314   -6.2905 O.2     1  UNL1       -0.2522
      9 N         -25.6001   49.5431   -8.0568 N.am    1  UNL1       -0.2657
     10 H         -29.1076   45.6908   -6.7010 H       1  UNL1        0.2107
     11 H         -25.6473   48.5391   -8.3373 H       1  UNL1        0.1565
     12 C         -24.8348   50.4328   -8.8889 C.ar    1  UNL1        0.0857
     13 C         -23.6669   51.0512   -8.4046 C.ar    1  UNL1        0.0187
     14 C         -22.9535   51.9442   -9.2081 C.ar    1  UNL1        0.0129
     15 C         -23.4024   52.2397  -10.4976 C.ar    1  UNL1        0.0608
     16 CL        -22.5065   53.3642  -11.5025 Cl      1  UNL1       -0.0821
     17 C         -24.5716   51.6466  -10.9820 C.ar    1  UNL1        0.0493
     18 C         -25.2934   50.7490  -10.1817 C.ar    1  UNL1        0.1479
     19 O         -26.4612   50.1635  -10.6692 O.3     1  UNL1       -0.5042
     20 H         -26.8128   50.3722  -11.5964 H       1  UNL1        0.2922
     21 C         -27.8659   46.4357   -4.5217 C.ar    1  UNL1        0.0310
     22 C         -26.4540   46.3777   -4.4715 C.ar    1  UNL1        0.0026
     23 C         -25.7996   45.6986   -3.4411 C.ar    1  UNL1        0.0295
     24 C         -26.5349   45.0912   -2.4244 C.ar    1  UNL1        0.1424
     25 F         -25.8967   44.4369   -1.4230 F       1  UNL1       -0.2041
     26 C         -27.9268   45.1779   -2.4263 C.ar    1  UNL1        0.0590
     27 C         -28.5924   45.8559   -3.4529 C.ar    1  UNL1        0.1406
     28 F         -29.9431   45.9619   -3.3777 F       1  UNL1       -0.2044
     29 O         -28.6808   51.9842   -5.0397 O.2     1  UNL1       -0.2730
     30 C         -28.9927   50.9210   -5.6392 C.2     1  UNL1        0.2454
     31 N         -30.0980   50.9415   -6.5552 N.am    1  UNL1       -0.2680
     32 H         -30.9121   51.5591   -6.3385 H       1  UNL1        0.1563
     33 C         -30.1367   50.1612   -7.7522 C.ar    1  UNL1        0.1346
     34 C         -29.4131   50.5644   -8.8787 C.ar    1  UNL1        0.0406
     35 C         -29.4780   49.7979  -10.0438 C.ar    1  UNL1        0.0736
     36 C         -30.2468   48.6243  -10.0719 C.ar    1  UNL1        0.2466
     37 C         -30.9163   48.2325   -8.9032 C.ar    1  UNL1        0.1691
     38 N         -30.8472   49.0023   -7.7858 N.ar    1  UNL1       -0.2228
     39 N         -30.3401   47.8332  -11.2736 N.am    1  UNL1       -0.0841
     40 C         -31.2230   48.2126  -12.2485 C.2     1  UNL1        0.2905
     41 C         -31.3363   47.4798  -13.4316 C.2     1  UNL1        0.0758
     42 C         -30.5423   46.3508  -13.6162 C.2     1  UNL1        0.0161
     43 C         -29.6495   45.9635  -12.6194 C.2     1  UNL1        0.1156
     44 C         -29.5595   46.7148  -11.4424 C.2     1  UNL1        0.4230
     45 O         -28.7640   46.3399  -10.5372 O.2     1  UNL1       -0.2135
@<TRIPOS>BOND
     1    29    30    2
     2    30    31   am
     3    31    33    1
     4    33    34   ar
     5    34    35   ar
     6    35    36   ar
     7    36    39    1
     8    39    40    1
     9    40    41    2
    10    41    42    1
    11    42    43    2
    12    43    44    1
    13    44    45    2
    14    36    37   ar
    15    37    38   ar
    16    30     1    1
    17     1     2    1
    18     2     3    1
    19     3     4    1
    20     3    21    1
    21    21    22   ar
    22    22    23   ar
    23    23    24   ar
    24    24    25    1
    25    24    26   ar
    26    26    27   ar
    27    27    28    1
    28     3     5    1
    29     5     6    1
    30     6     7   am
    31     7     8    2
    32     7     9   am
    33     9    12    1
    34    12    13   ar
    35    13    14   ar
    36    14    15   ar
    37    15    16    1
    38    15    17   ar
    39    17    18   ar
    40    18    19    1
    41    38    33   ar
    42     6     1    1
    43    18    12   ar
    44    44    39    1
    45    27    21   ar
    46    31    32    1
    47     4    10    1
    48     9    11    1
    49    19    20    1
@<TRIPOS>MOLECULE
*****
 45 49 0 0 0
SMALL
GASTEIGER

@<TRIPOS>ATOM
      1 C         -28.0914   49.7531   -6.6986 C.3     1  UNL1        0.1562
      2 C         -28.3716   49.7472   -5.1907 C.3     1  UNL1        0.0622
      3 C         -28.7384   48.2956   -4.8345 C.3     1  UNL1        0.1294
      4 O         -29.7989   48.2949   -3.9072 O.3     1  UNL1       -0.3808
      5 C         -29.2311   47.6846   -6.1646 C.3     1  UNL1        0.1264
      6 N         -28.6979   48.5348   -7.2183 N.am    1  UNL1       -0.2544
      7 C         -28.6314   48.1410   -8.6016 C.2     1  UNL1        0.3081
      8 O         -27.8761   48.7707   -9.3916 O.2     1  UNL1       -0.2522
      9 N         -29.4201   47.0415   -9.0883 N.am    1  UNL1       -0.2657
     10 H         -30.0544   47.3472   -3.7512 H       1  UNL1        0.2107
     11 H         -29.7734   46.3359   -8.4055 H       1  UNL1        0.1565
     12 C         -29.7578   46.8556  -10.4743 C.ar    1  UNL1        0.0857
     13 C         -30.9445   47.3921  -11.0082 C.ar    1  UNL1        0.0187
     14 C         -31.2819   47.1716  -12.3460 C.ar    1  UNL1        0.0129
     15 C         -30.4472   46.4048  -13.1625 C.ar    1  UNL1        0.0608
     16 CL        -30.8755   46.1267  -14.8407 Cl      1  UNL1       -0.0821
     17 C         -29.2760   45.8506  -12.6380 C.ar    1  UNL1        0.0493
     18 C         -28.9303   46.0675  -11.2961 C.ar    1  UNL1        0.1479
     19 O         -27.7626   45.5087  -10.7778 O.3     1  UNL1       -0.5042
     20 H         -27.1482   44.9388  -11.3475 H       1  UNL1        0.2922
     21 C         -27.4990   47.5835   -4.2611 C.ar    1  UNL1        0.0310
     22 C         -26.8052   46.6146   -5.0221 C.ar    1  UNL1        0.0026
     23 C         -25.6513   46.0035   -4.5260 C.ar    1  UNL1        0.0295
     24 C         -25.1476   46.3663   -3.2778 C.ar    1  UNL1        0.1424
     25 F         -24.0246   45.7748   -2.8011 F       1  UNL1       -0.2041
     26 C         -25.7870   47.3553   -2.5309 C.ar    1  UNL1        0.0590
     27 C         -26.9429   47.9741   -3.0183 C.ar    1  UNL1        0.1406
     28 F         -27.4936   48.9708   -2.2803 F       1  UNL1       -0.2044
     29 O         -29.6920   51.5161   -6.9339 O.2     1  UNL1       -0.2730
     30 C         -28.6288   51.0014   -7.3719 C.2     1  UNL1        0.2454
     31 N         -28.0318   51.5489   -8.5573 N.am    1  UNL1       -0.2680
     32 H         -28.6602   51.9213   -9.3041 H       1  UNL1        0.1563
     33 C         -26.6189   51.6134   -8.7635 C.ar    1  UNL1        0.1346
     34 C         -25.7688   50.7289   -8.0926 C.ar    1  UNL1        0.0406
     35 C         -24.3903   50.8196   -8.2941 C.ar    1  UNL1        0.0736
     36 C         -23.8700   51.7771   -9.1782 C.ar    1  UNL1        0.2466
     37 C         -24.7639   52.6105   -9.8667 C.ar    1  UNL1        0.1691
     38 N         -26.1004   52.5107   -9.6438 N.ar    1  UNL1       -0.2228
     39 N         -22.4476   51.8966   -9.3812 N.am    1  UNL1       -0.0841
     40 C         -21.6451   52.1581   -8.3035 C.2     1  UNL1        0.2905
     41 C         -20.2618   52.2708   -8.4558 C.2     1  UNL1        0.0758
     42 C         -19.6975   52.1170   -9.7195 C.2     1  UNL1        0.0161
     43 C         -20.5175   51.8574  -10.8154 C.2     1  UNL1        0.1156
     44 C         -21.9009   51.7531  -10.6339 C.2     1  UNL1        0.4230
     45 O         -22.6350   51.5414  -11.6384 O.2     1  UNL1       -0.2135
@<TRIPOS>BOND
     1    29    30    2
     2    30    31   am
     3    31    33    1
     4    33    34   ar
     5    34    35   ar
     6    35    36   ar
     7    36    39    1
     8    39    40    1
     9    40    41    2
    10    41    42    1
    11    42    43    2
    12    43    44    1
    13    44    45    2
    14    36    37   ar
    15    37    38   ar
    16    30     1    1
    17     1     2    1
    18     2     3    1
    19     3     4    1
    20     3    21    1
    21    21    22   ar
    22    22    23   ar
    23    23    24   ar
    24    24    25    1
    25    24    26   ar
    26    26    27   ar
    27    27    28    1
    28     3     5    1
    29     5     6    1
    30     6     7   am
    31     7     8    2
    32     7     9   am
    33     9    12    1
    34    12    13   ar
    35    13    14   ar
    36    14    15   ar
    37    15    16    1
    38    15    17   ar
    39    17    18   ar
    40    18    19    1
    41    38    33   ar
    42     6     1    1
    43    18    12   ar
    44    44    39    1
    45    27    21   ar
    46    31    32    1
    47     4    10    1
    48     9    11    1
    49    19    20    1
@<TRIPOS>MOLECULE
*****
 45 49 0 0 0
SMALL
GASTEIGER

@<TRIPOS>ATOM
      1 C         -27.5615   50.7285   -7.9489 C.3     1  UNL1        0.1562
      2 C         -29.0568   50.7090   -8.2893 C.3     1  UNL1        0.0622
      3 C         -29.1416   50.4803   -9.8089 C.3     1  UNL1        0.1294
      4 O         -30.1633   51.2868  -10.3474 O.3     1  UNL1       -0.3808
      5 C         -27.7784   50.9657  -10.3488 C.3     1  UNL1        0.1264
      6 N         -26.8716   50.9609   -9.2108 N.am    1  UNL1       -0.2544
      7 C         -25.4383   51.0163   -9.3349 C.2     1  UNL1        0.3081
      8 O         -24.7161   50.6829   -8.3560 O.2     1  UNL1       -0.2522
      9 N         -24.8261   51.4515  -10.5612 N.am    1  UNL1       -0.2657
     10 H         -30.1461   51.1662  -11.3337 H       1  UNL1        0.2107
     11 H         -25.3824   51.4083  -11.4431 H       1  UNL1        0.1565
     12 C         -23.4798   51.9513  -10.6458 C.ar    1  UNL1        0.0857
     13 C         -22.4017   51.0857  -10.9091 C.ar    1  UNL1        0.0187
     14 C         -21.0939   51.5758  -10.9496 C.ar    1  UNL1        0.0129
     15 C         -20.8452   52.9305  -10.7164 C.ar    1  UNL1        0.0608
     16 CL        -19.2018   53.5420  -10.7643 Cl      1  UNL1       -0.0821
     17 C         -21.9060   53.7959  -10.4345 C.ar    1  UNL1        0.0493
     18 C         -23.2217   53.3117  -10.3923 C.ar    1  UNL1        0.1479
     19 O         -24.2752   54.1793  -10.1067 O.3     1  UNL1       -0.5042
     20 H         -24.1178   55.1632   -9.9219 H       1  UNL1        0.2922
     21 C         -29.4081   48.9887  -10.0850 C.ar    1  UNL1        0.0310
     22 C         -29.3678   48.0409   -9.0365 C.ar    1  UNL1        0.0026
     23 C         -29.6589   46.6954   -9.2735 C.ar    1  UNL1        0.0295
     24 C         -30.0258   46.2721  -10.5499 C.ar    1  UNL1        0.1424
     25 F         -30.3124   44.9663  -10.7758 F       1  UNL1       -0.2041
     26 C         -30.1206   47.1977  -11.5888 C.ar    1  UNL1        0.0590
     27 C         -29.8319   48.5476  -11.3625 C.ar    1  UNL1        0.1406
     28 F         -29.9957   49.4171  -12.3914 F       1  UNL1       -0.2044
     29 O         -27.1781   52.9862   -7.2554 O.2     1  UNL1       -0.2730
     30 C         -27.2296   51.7773   -6.9048 C.2     1  UNL1        0.2454
     31 N         -26.8623   51.4300   -5.5610 N.am    1  UNL1       -0.2680
     32 H         -26.0988   51.9724   -5.0982 H       1  UNL1        0.1563
     33 C         -27.4938   50.3809   -4.8236 C.ar    1  UNL1        0.1346
     34 C         -26.7214   49.4035   -4.1888 C.ar    1  UNL1        0.0406
     35 C         -27.3577   48.3771   -3.4883 C.ar    1  UNL1        0.0736
     36 C         -28.7582   48.3433   -3.4078 C.ar    1  UNL1        0.2466
     37 C         -29.4904   49.3722   -4.0186 C.ar    1  UNL1        0.1691
     38 N         -28.8481   50.3531   -4.7049 N.ar    1  UNL1       -0.2228
     39 N         -29.4305   47.2788   -2.7054 N.am    1  UNL1       -0.0841
     40 C         -30.0381   46.2886   -3.4296 C.2     1  UNL1        0.2905
     41 C         -30.6906   45.2344   -2.7876 C.2     1  UNL1        0.0758
     42 C         -30.7228   45.1951   -1.3960 C.2     1  UNL1        0.0161
     43 C         -30.1091   46.2077   -0.6619 C.2     1  UNL1        0.1156
     44 C         -29.4655   47.2539   -1.3318 C.2     1  UNL1        0.4230
     45 O         -28.9340   48.1774   -0.6555 O.2     1  UNL1       -0.2135
@<TRIPOS>BOND
     1    29    30    2
     2    30    31   am
     3    31    33    1
     4    33    34   ar
     5    34    35   ar
     6    35    36   ar
     7    36    39    1
     8    39    40    1
     9    40    41    2
    10    41    42    1
    11    42    43    2
    12    43    44    1
    13    44    45    2
    14    36    37   ar
    15    37    38   ar
    16    30     1    1
    17     1     2    1
    18     2     3    1
    19     3     4    1
    20     3    21    1
    21    21    22   ar
    22    22    23   ar
    23    23    24   ar
    24    24    25    1
    25    24    26   ar
    26    26    27   ar
    27    27    28    1
    28     3     5    1
    29     5     6    1
    30     6     7   am
    31     7     8    2
    32     7     9   am
    33     9    12    1
    34    12    13   ar
    35    13    14   ar
    36    14    15   ar
    37    15    16    1
    38    15    17   ar
    39    17    18   ar
    40    18    19    1
    41    38    33   ar
    42     6     1    1
    43    18    12   ar
    44    44    39    1
    45    27    21   ar
    46    31    32    1
    47     4    10    1
    48     9    11    1
    49    19    20    1
@<TRIPOS>MOLECULE
*****
 45 49 0 0 0
SMALL
GASTEIGER

@<TRIPOS>ATOM
      1 C         -27.8655   49.9718   -6.7052 C.3     1  UNL1        0.1562
      2 C         -28.1549   49.9460   -5.1993 C.3     1  UNL1        0.0622
      3 C         -28.5696   48.5003   -4.8730 C.3     1  UNL1        0.1294
      4 O         -29.6352   48.5154   -3.9519 O.3     1  UNL1       -0.3808
      5 C         -29.0731   47.9306   -6.2174 C.3     1  UNL1        0.1264
      6 N         -28.5069   48.7834   -7.2516 N.am    1  UNL1       -0.2544
      7 C         -28.4443   48.4142   -8.6418 C.2     1  UNL1        0.3081
      8 O         -27.6648   49.0345   -9.4153 O.2     1  UNL1       -0.2522
      9 N         -29.2644   47.3496   -9.1539 N.am    1  UNL1       -0.2657
     10 H         -29.9214   47.5735   -3.8155 H       1  UNL1        0.2107
     11 H         -29.6439   46.6427   -8.4868 H       1  UNL1        0.1565
     12 C         -29.5993   47.2010  -10.5451 C.ar    1  UNL1        0.0857
     13 C         -29.2878   46.0185  -11.2421 C.ar    1  UNL1        0.0187
     14 C         -29.5820   45.9005  -12.6028 C.ar    1  UNL1        0.0129
     15 C         -30.1783   46.9631  -13.2861 C.ar    1  UNL1        0.0608
     16 CL        -30.5430   46.8131  -14.9953 Cl      1  UNL1       -0.0821
     17 C         -30.4743   48.1494  -12.6087 C.ar    1  UNL1        0.0493
     18 C         -30.1823   48.2756  -11.2427 C.ar    1  UNL1        0.1479
     19 O         -30.4764   49.4631  -10.5735 O.3     1  UNL1       -0.5042
     20 H         -30.8975   50.2515  -11.0510 H       1  UNL1        0.2922
     21 C         -27.3568   47.7384   -4.3066 C.ar    1  UNL1        0.0310
     22 C         -26.5886   48.2837   -3.2521 C.ar    1  UNL1        0.0026
     23 C         -25.5193   47.5736   -2.7013 C.ar    1  UNL1        0.0295
     24 C         -25.2127   46.2958   -3.1666 C.ar    1  UNL1        0.1424
     25 F         -24.1772   45.6071   -2.6266 F       1  UNL1       -0.2041
     26 C         -25.9875   45.7176   -4.1718 C.ar    1  UNL1        0.0590
     27 C         -27.0610   46.4195   -4.7301 C.ar    1  UNL1        0.1406
     28 F         -27.8193   45.7907   -5.6633 F       1  UNL1       -0.2044
     29 O         -29.3998   51.7969   -6.9057 O.2     1  UNL1       -0.2730
     30 C         -28.3591   51.2490   -7.3573 C.2     1  UNL1        0.2454
     31 N         -27.7483   51.7910   -8.5382 N.am    1  UNL1       -0.2680
     32 H         -28.3662   52.1976   -9.2759 H       1  UNL1        0.1563
     33 C         -26.3350   51.8054   -8.7518 C.ar    1  UNL1        0.1346
     34 C         -25.5076   50.9272   -8.0451 C.ar    1  UNL1        0.0406
     35 C         -24.1280   50.9689   -8.2550 C.ar    1  UNL1        0.0736
     36 C         -23.5845   51.8710   -9.1824 C.ar    1  UNL1        0.2466
     37 C         -24.4572   52.6987   -9.9042 C.ar    1  UNL1        0.1691
     38 N         -25.7949   52.6475   -9.6727 N.ar    1  UNL1       -0.2228
     39 N         -22.1602   51.9402   -9.3953 N.am    1  UNL1       -0.0841
     40 C         -21.3463   52.2354   -8.3349 C.2     1  UNL1        0.2905
     41 C         -19.9611   52.3015   -8.4967 C.2     1  UNL1        0.0758
     42 C         -19.4065   52.0661   -9.7521 C.2     1  UNL1        0.0161
     43 C         -20.2379   51.7724  -10.8307 C.2     1  UNL1        0.1156
     44 C         -21.6229   51.7162  -10.6402 C.2     1  UNL1        0.4230
     45 O         -22.3667   51.4725  -11.6302 O.2     1  UNL1       -0.2135
@<TRIPOS>BOND
     1    29    30    2
     2    30    31   am
     3    31    33    1
     4    33    34   ar
     5    34    35   ar
     6    35    36   ar
     7    36    39    1
     8    39    40    1
     9    40    41    2
    10    41    42    1
    11    42    43    2
    12    43    44    1
    13    44    45    2
    14    36    37   ar
    15    37    38   ar
    16    30     1    1
    17     1     2    1
    18     2     3    1
    19     3     4    1
    20     3    21    1
    21    21    22   ar
    22    22    23   ar
    23    23    24   ar
    24    24    25    1
    25    24    26   ar
    26    26    27   ar
    27    27    28    1
    28     3     5    1
    29     5     6    1
    30     6     7   am
    31     7     8    2
    32     7     9   am
    33     9    12    1
    34    12    13   ar
    35    13    14   ar
    36    14    15   ar
    37    15    16    1
    38    15    17   ar
    39    17    18   ar
    40    18    19    1
    41    38    33   ar
    42     6     1    1
    43    18    12   ar
    44    44    39    1
    45    27    21   ar
    46    31    32    1
    47     4    10    1
    48     9    11    1
    49    19    20    1
@<TRIPOS>MOLECULE
*****
 45 49 0 0 0
SMALL
GASTEIGER

@<TRIPOS>ATOM
      1 C         -29.4300   48.5986   -8.8705 C.3     1  UNL1        0.1562
      2 C         -29.5117   49.6131  -10.0178 C.3     1  UNL1        0.0622
      3 C         -28.8971   50.9156   -9.4752 C.3     1  UNL1        0.1294
      4 O         -29.6539   52.0142   -9.9274 O.3     1  UNL1       -0.3808
      5 C         -29.0413   50.8007   -7.9417 C.3     1  UNL1        0.1264
      6 N         -29.2255   49.3848   -7.6612 N.am    1  UNL1       -0.2544
      7 C         -29.0614   48.8045   -6.3538 C.2     1  UNL1        0.3081
      8 O         -28.9128   47.5570   -6.2416 O.2     1  UNL1       -0.2522
      9 N         -29.0701   49.6334   -5.1788 N.am    1  UNL1       -0.2657
     10 H         -29.2724   52.8294   -9.5060 H       1  UNL1        0.2107
     11 H         -28.8638   50.6512   -5.2808 H       1  UNL1        0.1565
     12 C         -29.3522   49.1393   -3.8575 C.ar    1  UNL1        0.0857
     13 C         -30.5691   49.4395   -3.2171 C.ar    1  UNL1        0.0187
     14 C         -30.8159   48.9874   -1.9184 C.ar    1  UNL1        0.0129
     15 C         -29.8489   48.2421   -1.2397 C.ar    1  UNL1        0.0608
     16 CL        -30.1604   47.6791    0.3922 Cl      1  UNL1       -0.0821
     17 C         -28.6289   47.9545   -1.8583 C.ar    1  UNL1        0.0493
     18 C         -28.3735   48.4046   -3.1619 C.ar    1  UNL1        0.1479
     19 O         -27.1530   48.1178   -3.7721 O.3     1  UNL1       -0.5042
     20 H         -26.4317   47.5896   -3.2949 H       1  UNL1        0.2922
     21 C         -27.4330   51.0203   -9.9415 C.ar    1  UNL1        0.0310
     22 C         -26.3690   50.8675   -9.0228 C.ar    1  UNL1        0.0026
     23 C         -25.0398   50.9110   -9.4502 C.ar    1  UNL1        0.0295
     24 C         -24.7434   51.0758  -10.8023 C.ar    1  UNL1        0.1424
     25 F         -23.4523   51.1128  -11.2146 F       1  UNL1       -0.2041
     26 C         -25.7770   51.1788  -11.7329 C.ar    1  UNL1        0.0590
     27 C         -27.1116   51.1359  -11.3161 C.ar    1  UNL1        0.1406
     28 F         -28.0794   51.1813  -12.2662 F       1  UNL1       -0.2044
     29 O         -31.4091   47.8152   -7.7775 O.2     1  UNL1       -0.2730
     30 C         -30.6686   47.7268   -8.7929 C.2     1  UNL1        0.2454
     31 N         -30.9640   46.7271   -9.7801 N.am    1  UNL1       -0.2680
     32 H         -31.3540   45.8123   -9.4604 H       1  UNL1        0.1563
     33 C         -30.7546   46.9243  -11.1803 C.ar    1  UNL1        0.1346
     34 C         -29.8290   46.1362  -11.8712 C.ar    1  UNL1        0.0406
     35 C         -29.6262   46.3562  -13.2348 C.ar    1  UNL1        0.0736
     36 C         -30.3617   47.3459  -13.9048 C.ar    1  UNL1        0.2466
     37 C         -31.3145   48.0787  -13.1818 C.ar    1  UNL1        0.1691
     38 N         -31.4844   47.8540  -11.8528 N.ar    1  UNL1       -0.2228
     39 N         -30.1489   47.5988  -15.3082 N.am    1  UNL1       -0.0841
     40 C         -30.4375   46.6101  -16.2099 C.2     1  UNL1        0.2905
     41 C         -30.2555   46.8185  -17.5784 C.2     1  UNL1        0.0758
     42 C         -29.7731   48.0458  -18.0257 C.2     1  UNL1        0.0161
     43 C         -29.4741   49.0477  -17.1052 C.2     1  UNL1        0.1156
     44 C         -29.6629   48.8099  -15.7393 C.2     1  UNL1        0.4230
     45 O         -29.3659   49.7173  -14.9140 O.2     1  UNL1       -0.2135
@<TRIPOS>BOND
     1    29    30    2
     2    30    31   am
     3    31    33    1
     4    33    34   ar
     5    34    35   ar
     6    35    36   ar
     7    36    39    1
     8    39    40    1
     9    40    41    2
    10    41    42    1
    11    42    43    2
    12    43    44    1
    13    44    45    2
    14    36    37   ar
    15    37    38   ar
    16    30     1    1
    17     1     2    1
    18     2     3    1
    19     3     4    1
    20     3    21    1
    21    21    22   ar
    22    22    23   ar
    23    23    24   ar
    24    24    25    1
    25    24    26   ar
    26    26    27   ar
    27    27    28    1
    28     3     5    1
    29     5     6    1
    30     6     7   am
    31     7     8    2
    32     7     9   am
    33     9    12    1
    34    12    13   ar
    35    13    14   ar
    36    14    15   ar
    37    15    16    1
    38    15    17   ar
    39    17    18   ar
    40    18    19    1
    41    38    33   ar
    42     6     1    1
    43    18    12   ar
    44    44    39    1
    45    27    21   ar
    46    31    32    1
    47     4    10    1
    48     9    11    1
    49    19    20    1
@<TRIPOS>MOLECULE
*****
 45 49 0 0 0
SMALL
GASTEIGER

@<TRIPOS>ATOM
      1 C         -29.9096   47.5649   -7.7683 C.3     1  UNL1        0.1562
      2 C         -30.3622   48.4487   -8.9372 C.3     1  UNL1        0.0622
      3 C         -30.4448   49.8800   -8.3778 C.3     1  UNL1        0.1294
      4 O         -31.5839   50.5223   -8.9015 O.3     1  UNL1       -0.3808
      5 C         -30.6280   49.6896   -6.8561 C.3     1  UNL1        0.1264
      6 N         -30.1690   48.3403   -6.5627 N.am    1  UNL1       -0.2544
      7 C         -29.8514   47.8784   -5.2365 C.2     1  UNL1        0.3081
      8 O         -29.1614   46.8326   -5.0911 O.2     1  UNL1       -0.2522
      9 N         -30.3172   48.5957   -4.0805 N.am    1  UNL1       -0.2657
     10 H         -31.6441   51.4155   -8.4701 H       1  UNL1        0.2107
     11 H         -30.5885   49.5977   -4.1870 H       1  UNL1        0.1565
     12 C         -30.4361   48.0079   -2.7729 C.ar    1  UNL1        0.0857
     13 C         -29.8845   48.6397   -1.6425 C.ar    1  UNL1        0.0187
     14 C         -29.9714   48.0402   -0.3835 C.ar    1  UNL1        0.0129
     15 C         -30.5979   46.8000   -0.2392 C.ar    1  UNL1        0.0608
     16 CL        -30.7022   46.0482    1.3423 Cl      1  UNL1       -0.0821
     17 C         -31.1321   46.1541   -1.3577 C.ar    1  UNL1        0.0493
     18 C         -31.0490   46.7494   -2.6250 C.ar    1  UNL1        0.1479
     19 O         -31.5804   46.0982   -3.7376 O.3     1  UNL1       -0.5042
     20 H         -32.0283   45.1925   -3.6592 H       1  UNL1        0.2922
     21 C         -29.1589   50.6446   -8.7439 C.ar    1  UNL1        0.0310
     22 C         -28.3537   51.2281   -7.7386 C.ar    1  UNL1        0.0026
     23 C         -27.1605   51.8783   -8.0620 C.ar    1  UNL1        0.0295
     24 C         -26.7292   51.9335   -9.3864 C.ar    1  UNL1        0.1424
     25 F         -25.5680   52.5611   -9.6965 F       1  UNL1       -0.2041
     26 C         -27.4817   51.3219  -10.3887 C.ar    1  UNL1        0.0590
     27 C         -28.6780   50.6677  -10.0760 C.ar    1  UNL1        0.1406
     28 F         -29.3428   50.0385  -11.0778 F       1  UNL1       -0.2044
     29 O         -31.2879   45.8995   -6.7428 O.2     1  UNL1       -0.2730
     30 C         -30.6201   46.2250   -7.7602 C.2     1  UNL1        0.2454
     31 N         -30.4656   45.2702   -8.8213 N.am    1  UNL1       -0.2680
     32 H         -30.3916   44.2583   -8.5729 H       1  UNL1        0.1563
     33 C         -30.4126   45.6367  -10.2019 C.ar    1  UNL1        0.1346
     34 C         -29.1854   45.6860  -10.8702 C.ar    1  UNL1        0.0406
     35 C         -29.1530   46.0633  -12.2140 C.ar    1  UNL1        0.0736
     36 C         -30.3453   46.3688  -12.8879 C.ar    1  UNL1        0.2466
     37 C         -31.5575   46.2581  -12.1907 C.ar    1  UNL1        0.1691
     38 N         -31.5613   45.9008  -10.8799 N.ar    1  UNL1       -0.2228
     39 N         -30.3262   46.7798  -14.2697 N.am    1  UNL1       -0.0841
     40 C         -30.4130   45.8237  -15.2456 C.2     1  UNL1        0.2905
     41 C         -30.4086   46.1808  -16.5953 C.2     1  UNL1        0.0758
     42 C         -30.3126   47.5245  -16.9476 C.2     1  UNL1        0.0161
     43 C         -30.2179   48.4947  -15.9523 C.2     1  UNL1        0.1156
     44 C         -30.2211   48.1077  -14.6077 C.2     1  UNL1        0.4230
     45 O         -30.1108   48.9942  -13.7162 O.2     1  UNL1       -0.2135
@<TRIPOS>BOND
     1    29    30    2
     2    30    31   am
     3    31    33    1
     4    33    34   ar
     5    34    35   ar
     6    35    36   ar
     7    36    39    1
     8    39    40    1
     9    40    41    2
    10    41    42    1
    11    42    43    2
    12    43    44    1
    13    44    45    2
    14    36    37   ar
    15    37    38   ar
    16    30     1    1
    17     1     2    1
    18     2     3    1
    19     3     4    1
    20     3    21    1
    21    21    22   ar
    22    22    23   ar
    23    23    24   ar
    24    24    25    1
    25    24    26   ar
    26    26    27   ar
    27    27    28    1
    28     3     5    1
    29     5     6    1
    30     6     7   am
    31     7     8    2
    32     7     9   am
    33     9    12    1
    34    12    13   ar
    35    13    14   ar
    36    14    15   ar
    37    15    16    1
    38    15    17   ar
    39    17    18   ar
    40    18    19    1
    41    38    33   ar
    42     6     1    1
    43    18    12   ar
    44    44    39    1
    45    27    21   ar
    46    31    32    1
    47     4    10    1
    48     9    11    1
    49    19    20    1
@<TRIPOS>MOLECULE
*****
 45 49 0 0 0
SMALL
GASTEIGER

@<TRIPOS>ATOM
      1 C         -28.4712   48.4180   -8.4715 C.3     1  UNL1        0.1562
      2 C         -28.8523   49.7697   -9.0878 C.3     1  UNL1        0.0622
      3 C         -27.9009   50.8039   -8.4601 C.3     1  UNL1        0.1294
      4 O         -28.6141   51.9855   -8.1782 O.3     1  UNL1       -0.3808
      5 C         -27.4506   50.1575   -7.1316 C.3     1  UNL1        0.1264
      6 N         -27.7049   48.7317   -7.2730 N.am    1  UNL1       -0.2544
      7 C         -27.1264   47.7311   -6.4145 C.2     1  UNL1        0.3081
      8 O         -27.1200   46.5247   -6.7824 O.2     1  UNL1       -0.2522
      9 N         -26.5616   48.0953   -5.1431 N.am    1  UNL1       -0.2657
     10 H         -27.9897   52.6041   -7.7144 H       1  UNL1        0.2107
     11 H         -26.2727   49.0858   -4.9872 H       1  UNL1        0.1565
     12 C         -26.3720   47.1670   -4.0606 C.ar    1  UNL1        0.0857
     13 C         -25.1514   46.4855   -3.8970 C.ar    1  UNL1        0.0187
     14 C         -24.9919   45.5567   -2.8656 C.ar    1  UNL1        0.0129
     15 C         -26.0500   45.2881   -1.9940 C.ar    1  UNL1        0.0608
     16 CL        -25.8478   44.1186   -0.7023 Cl      1  UNL1       -0.0821
     17 C         -27.2731   45.9444   -2.1587 C.ar    1  UNL1        0.0493
     18 C         -27.4411   46.8783   -3.1916 C.ar    1  UNL1        0.1479
     19 O         -28.6649   47.5268   -3.3531 O.3     1  UNL1       -0.5042
     20 H         -29.4503   47.3390   -2.7410 H       1  UNL1        0.2922
     21 C         -26.7351   51.0768   -9.4288 C.ar    1  UNL1        0.0310
     22 C         -25.4105   51.1992   -8.9495 C.ar    1  UNL1        0.0026
     23 C         -24.3439   51.3959   -9.8298 C.ar    1  UNL1        0.0295
     24 C         -24.5694   51.4433  -11.2046 C.ar    1  UNL1        0.1424
     25 F         -23.5315   51.6295  -12.0567 F       1  UNL1       -0.2041
     26 C         -25.8610   51.2753  -11.7033 C.ar    1  UNL1        0.0590
     27 C         -26.9363   51.0772  -10.8309 C.ar    1  UNL1        0.1406
     28 F         -28.1634   50.8605  -11.3682 F       1  UNL1       -0.2044
     29 O         -30.2609   47.6924   -7.0588 O.2     1  UNL1       -0.2730
     30 C         -29.6894   47.5648   -8.1743 C.2     1  UNL1        0.2454
     31 N         -30.1439   46.5405   -9.0718 N.am    1  UNL1       -0.2680
     32 H         -30.4864   45.6406   -8.6668 H       1  UNL1        0.1563
     33 C         -30.1549   46.6940  -10.4929 C.ar    1  UNL1        0.1346
     34 C         -30.9382   47.6882  -11.0872 C.ar    1  UNL1        0.0406
     35 C         -30.9489   47.8105  -12.4779 C.ar    1  UNL1        0.0736
     36 C         -30.1634   46.9549  -13.2654 C.ar    1  UNL1        0.2466
     37 C         -29.3556   46.0048  -12.6232 C.ar    1  UNL1        0.1691
     38 N         -29.3723   45.8976  -11.2690 N.ar    1  UNL1       -0.2228
     39 N         -30.1795   47.0554  -14.7036 N.am    1  UNL1       -0.0841
     40 C         -30.5029   45.9481  -15.4406 C.2     1  UNL1        0.2905
     41 C         -30.5402   46.0063  -16.8351 C.2     1  UNL1        0.0758
     42 C         -30.2425   47.2049  -17.4784 C.2     1  UNL1        0.0161
     43 C         -29.9073   48.3283  -16.7258 C.2     1  UNL1        0.1156
     44 C         -29.8743   48.2401  -15.3298 C.2     1  UNL1        0.4230
     45 O         -29.5461   49.2584  -14.6606 O.2     1  UNL1       -0.2135
@<TRIPOS>BOND
     1    29    30    2
     2    30    31   am
     3    31    33    1
     4    33    34   ar
     5    34    35   ar
     6    35    36   ar
     7    36    39    1
     8    39    40    1
     9    40    41    2
    10    41    42    1
    11    42    43    2
    12    43    44    1
    13    44    45    2
    14    36    37   ar
    15    37    38   ar
    16    30     1    1
    17     1     2    1
    18     2     3    1
    19     3     4    1
    20     3    21    1
    21    21    22   ar
    22    22    23   ar
    23    23    24   ar
    24    24    25    1
    25    24    26   ar
    26    26    27   ar
    27    27    28    1
    28     3     5    1
    29     5     6    1
    30     6     7   am
    31     7     8    2
    32     7     9   am
    33     9    12    1
    34    12    13   ar
    35    13    14   ar
    36    14    15   ar
    37    15    16    1
    38    15    17   ar
    39    17    18   ar
    40    18    19    1
    41    38    33   ar
    42     6     1    1
    43    18    12   ar
    44    44    39    1
    45    27    21   ar
    46    31    32    1
    47     4    10    1
    48     9    11    1
    49    19    20    1
