@<TRIPOS>MOLECULE
*****
 47 52 0 0 0
SMALL
GASTEIGER

@<TRIPOS>ATOM
      1 C         -65.0316  -53.5937  -23.4572 C.ar    1  UNL1        0.1318
      2 C         -63.8279  -53.2602  -22.8132 C.ar    1  UNL1        0.0356
      3 C         -63.1150  -52.1324  -23.2237 C.ar    1  UNL1        0.0191
      4 C         -63.6047  -51.3233  -24.2558 C.ar    1  UNL1        0.0702
      5 C         -64.8110  -51.6868  -24.8745 C.ar    1  UNL1        0.1149
      6 N         -65.4802  -52.7960  -24.4669 N.ar    1  UNL1       -0.2279
      7 C         -67.9209  -55.4821  -21.3916 C.3     1  UNL1        0.0472
      8 C         -67.9610  -55.9624  -22.8623 C.3     1  UNL1        0.0252
      9 C         -67.0462  -55.1102  -23.7635 C.3     1  UNL1        0.0923
     10 N         -65.7825  -54.7716  -23.0860 N.pl3   1  UNL1       -0.2932
     11 C         -65.3910  -55.5669  -21.9157 C.3     1  UNL1        0.0923
     12 C         -66.4676  -55.4589  -20.8290 C.3     1  UNL1        0.0252
     13 C         -68.6511  -54.1283  -21.2435 C.3     1  UNL1        0.2054
     14 O         -70.0249  -54.3144  -20.8904 O.3     1  UNL1       -0.4755
     15 C         -72.1429  -53.1801  -18.0698 C.ar    1  UNL1        0.0379
     16 C         -71.5413  -53.2941  -19.3365 C.ar    1  UNL1        0.0397
     17 C         -70.5738  -54.2705  -19.5946 C.ar    1  UNL1        0.1388
     18 C         -70.2033  -55.1588  -18.5646 C.ar    1  UNL1        0.0433
     19 C         -70.7697  -55.0459  -17.2851 C.ar    1  UNL1        0.0786
     20 C         -71.7461  -54.0643  -17.0510 C.ar    1  UNL1        0.0095
     21 C         -70.3571  -55.9552  -16.1894 C.2     1  UNL1        0.3381
     22 O         -70.5361  -57.1968  -16.3040 O.2     1  UNL1       -0.2451
     23 O         -69.7931  -55.4681  -15.0113 O.3     1  UNL1       -0.4771
     24 H         -69.7028  -54.4782  -14.8206 H       1  UNL1        0.2954
     25 C         -73.5839  -51.7793  -16.3994 C.3     1  UNL1        0.0773
     26 C         -73.1768  -52.1445  -17.7958 C.2     1  UNL1        0.1736
     27 O         -73.7356  -51.5478  -18.7564 O.2     1  UNL1       -0.2913
     28 N         -62.8380  -50.1909  -24.6999 N.am    1  UNL1       -0.2766
     29 C         -63.4049  -48.9019  -24.9747 C.2     1  UNL1        0.2839
     30 O         -64.4268  -48.5168  -24.3456 O.2     1  UNL1       -0.2665
     31 H         -61.7994  -50.2883  -24.7545 H       1  UNL1        0.1553
     32 C         -62.7689  -47.9781  -25.9300 C.ar    1  UNL1        0.1946
     33 O         -61.9678  -47.0005  -25.5441 O.2     1  UNL1       -0.4492
     34 C         -61.5601  -46.3671  -26.6165 C.ar    1  UNL1        0.1452
     35 C         -60.6980  -45.2777  -26.6786 C.ar    1  UNL1        0.0375
     36 C         -60.3884  -44.7525  -27.9454 C.ar    1  UNL1        0.0031
     37 C         -60.9418  -45.3206  -29.1250 C.ar    1  UNL1        0.0002
     38 C         -61.8167  -46.4282  -29.0166 C.ar    1  UNL1        0.0028
     39 C         -62.1017  -46.9225  -27.7437 C.ar    1  UNL1        0.0337
     40 C         -62.9049  -47.9640  -27.3237 C.ar    1  UNL1        0.0202
     41 C         -63.7348  -48.8633  -28.1893 C.3     1  UNL1        0.0345
     42 C         -60.6070  -44.7583  -30.4580 C.ar    1  UNL1        0.0000
     43 C         -59.3321  -44.9599  -31.0203 C.ar    1  UNL1        0.0000
     44 C         -59.0201  -44.4300  -32.2762 C.ar    1  UNL1        0.0000
     45 C         -59.9735  -43.6941  -32.9832 C.ar    1  UNL1        0.0000
     46 C         -61.2416  -43.4869  -32.4361 C.ar    1  UNL1        0.0000
     47 C         -61.5595  -44.0151  -31.1811 C.ar    1  UNL1        0.0000
@<TRIPOS>BOND
     1    25    26    1
     2    26    27    2
     3    26    15    1
     4    15    16   ar
     5    16    17   ar
     6    17    14    1
     7    14    13    1
     8    13     7    1
     9     7     8    1
    10     8     9    1
    11     9    10    1
    12    10     1    1
    13     1     2   ar
    14     2     3   ar
    15     3     4   ar
    16     4    28    1
    17    28    29   am
    18    29    30    2
    19    29    32    1
    20    32    33   ar
    21    33    34   ar
    22    34    35   ar
    23    35    36   ar
    24    36    37   ar
    25    37    42    1
    26    42    43   ar
    27    43    44   ar
    28    44    45   ar
    29    45    46   ar
    30    46    47   ar
    31    37    38   ar
    32    38    39   ar
    33    39    40   ar
    34    40    41    1
    35     4     5   ar
    36     5     6   ar
    37    10    11    1
    38    11    12    1
    39    17    18   ar
    40    18    19   ar
    41    19    21    1
    42    21    22    2
    43    21    23    1
    44    19    20   ar
    45    20    15   ar
    46    12     7    1
    47     6     1   ar
    48    40    32   ar
    49    39    34   ar
    50    47    42   ar
    51    28    31    1
    52    23    24    1
@<TRIPOS>MOLECULE
*****
 47 52 0 0 0
SMALL
GASTEIGER

@<TRIPOS>ATOM
      1 C         -64.9856  -53.7255  -23.4875 C.ar    1  UNL1        0.1318
      2 C         -63.8232  -53.3409  -22.7978 C.ar    1  UNL1        0.0356
      3 C         -63.1364  -52.1909  -23.1907 C.ar    1  UNL1        0.0191
      4 C         -63.6125  -51.4104  -24.2508 C.ar    1  UNL1        0.0702
      5 C         -64.7775  -51.8248  -24.9149 C.ar    1  UNL1        0.1149
      6 N         -65.4213  -52.9547  -24.5234 N.ar    1  UNL1       -0.2279
      7 C         -67.9322  -55.6922  -21.5820 C.3     1  UNL1        0.0472
      8 C         -67.8383  -56.2163  -23.0351 C.3     1  UNL1        0.0252
      9 C         -66.8985  -55.3469  -23.8932 C.3     1  UNL1        0.0923
     10 N         -65.7069  -54.9275  -23.1350 N.pl3   1  UNL1       -0.2932
     11 C         -65.3687  -55.6685  -21.9136 C.3     1  UNL1        0.0923
     12 C         -66.5284  -55.5818  -20.9140 C.3     1  UNL1        0.0252
     13 C         -68.7337  -54.3720  -21.5327 C.3     1  UNL1        0.2054
     14 O         -68.7967  -53.8514  -20.2017 O.3     1  UNL1       -0.4755
     15 C         -70.5878  -55.1527  -17.2307 C.ar    1  UNL1        0.0379
     16 C         -69.6023  -54.9089  -18.2048 C.ar    1  UNL1        0.0397
     17 C         -69.8388  -54.0384  -19.2736 C.ar    1  UNL1        0.1388
     18 C         -71.0873  -53.3907  -19.3680 C.ar    1  UNL1        0.0433
     19 C         -72.0953  -53.6402  -18.4233 C.ar    1  UNL1        0.0786
     20 C         -71.8327  -54.5106  -17.3532 C.ar    1  UNL1        0.0095
     21 C         -73.4218  -52.9885  -18.5386 C.2     1  UNL1        0.3381
     22 O         -74.4551  -53.6924  -18.6919 O.2     1  UNL1       -0.2451
     23 O         -73.5578  -51.6014  -18.5070 O.3     1  UNL1       -0.4771
     24 H         -72.7612  -50.9778  -18.4740 H       1  UNL1        0.2954
     25 C         -68.9931  -56.1681  -15.4265 C.3     1  UNL1        0.0773
     26 C         -70.3350  -56.0749  -16.0896 C.2     1  UNL1        0.1736
     27 O         -71.2675  -56.8056  -15.6563 O.2     1  UNL1       -0.2913
     28 N         -62.8707  -50.2539  -24.6750 N.am    1  UNL1       -0.2766
     29 C         -63.4748  -48.9941  -25.0009 C.2     1  UNL1        0.2839
     30 O         -64.5427  -48.6422  -24.4314 O.2     1  UNL1       -0.2665
     31 H         -61.8276  -50.3088  -24.6749 H       1  UNL1        0.1553
     32 C         -62.8286  -48.0594  -25.9385 C.ar    1  UNL1        0.1946
     33 O         -62.0393  -47.0805  -25.5321 O.2     1  UNL1       -0.4492
     34 C         -61.6178  -46.4365  -26.5928 C.ar    1  UNL1        0.1452
     35 C         -60.7609  -45.3419  -26.6324 C.ar    1  UNL1        0.0375
     36 C         -60.4337  -44.8052  -27.8900 C.ar    1  UNL1        0.0031
     37 C         -60.9648  -45.3670  -29.0827 C.ar    1  UNL1        0.0002
     38 C         -61.8352  -46.4802  -28.9972 C.ar    1  UNL1        0.0028
     39 C         -62.1380  -46.9860  -27.7329 C.ar    1  UNL1        0.0337
     40 C         -62.9421  -48.0351  -27.3341 C.ar    1  UNL1        0.0202
     41 C         -63.7529  -48.9321  -28.2199 C.3     1  UNL1        0.0345
     42 C         -60.6116  -44.7925  -30.4057 C.ar    1  UNL1        0.0000
     43 C         -59.3285  -44.9873  -30.9513 C.ar    1  UNL1        0.0000
     44 C         -58.9991  -44.4459  -32.1978 C.ar    1  UNL1        0.0000
     45 C         -59.9433  -43.7051  -32.9120 C.ar    1  UNL1        0.0000
     46 C         -61.2195  -43.5046  -32.3815 C.ar    1  UNL1        0.0000
     47 C         -61.5547  -44.0443  -31.1360 C.ar    1  UNL1        0.0000
@<TRIPOS>BOND
     1    25    26    1
     2    26    27    2
     3    26    15    1
     4    15    16   ar
     5    16    17   ar
     6    17    14    1
     7    14    13    1
     8    13     7    1
     9     7     8    1
    10     8     9    1
    11     9    10    1
    12    10     1    1
    13     1     2   ar
    14     2     3   ar
    15     3     4   ar
    16     4    28    1
    17    28    29   am
    18    29    30    2
    19    29    32    1
    20    32    33   ar
    21    33    34   ar
    22    34    35   ar
    23    35    36   ar
    24    36    37   ar
    25    37    42    1
    26    42    43   ar
    27    43    44   ar
    28    44    45   ar
    29    45    46   ar
    30    46    47   ar
    31    37    38   ar
    32    38    39   ar
    33    39    40   ar
    34    40    41    1
    35     4     5   ar
    36     5     6   ar
    37    10    11    1
    38    11    12    1
    39    17    18   ar
    40    18    19   ar
    41    19    21    1
    42    21    22    2
    43    21    23    1
    44    19    20   ar
    45    20    15   ar
    46    12     7    1
    47     6     1   ar
    48    40    32   ar
    49    39    34   ar
    50    47    42   ar
    51    28    31    1
    52    23    24    1
@<TRIPOS>MOLECULE
*****
 47 52 0 0 0
SMALL
GASTEIGER

@<TRIPOS>ATOM
      1 C         -63.3858  -43.2727  -20.4666 C.ar    1  UNL1        0.1318
      2 C         -63.3507  -42.4042  -21.5709 C.ar    1  UNL1        0.0356
      3 C         -62.8755  -42.8680  -22.7987 C.ar    1  UNL1        0.0191
      4 C         -62.4564  -44.1964  -22.9387 C.ar    1  UNL1        0.0702
      5 C         -62.5074  -45.0350  -21.8144 C.ar    1  UNL1        0.1149
      6 N         -62.9611  -44.5576  -20.6266 N.ar    1  UNL1       -0.2279
      7 C         -65.1740  -40.6159  -18.0324 C.3     1  UNL1        0.0472
      8 C         -65.6716  -42.0370  -17.6747 C.3     1  UNL1        0.0252
      9 C         -65.2169  -43.0774  -18.7169 C.3     1  UNL1        0.0923
     10 N         -63.8381  -42.8229  -19.1695 N.pl3   1  UNL1       -0.2932
     11 C         -62.9872  -41.9592  -18.3418 C.3     1  UNL1        0.0923
     12 C         -63.6261  -40.5714  -18.2095 C.3     1  UNL1        0.0252
     13 C         -65.9412  -40.0649  -19.2554 C.3     1  UNL1        0.2054
     14 O         -65.1293  -39.1661  -20.0167 O.3     1  UNL1       -0.4755
     15 C         -63.3914  -35.9212  -19.5942 C.ar    1  UNL1        0.0379
     16 C         -63.6529  -37.2864  -19.8116 C.ar    1  UNL1        0.0397
     17 C         -64.9585  -37.7874  -19.7877 C.ar    1  UNL1        0.1388
     18 C         -66.0290  -36.9023  -19.5477 C.ar    1  UNL1        0.0433
     19 C         -65.7897  -35.5413  -19.3005 C.ar    1  UNL1        0.0786
     20 C         -64.4718  -35.0583  -19.3386 C.ar    1  UNL1        0.0095
     21 C         -66.9097  -34.6137  -19.0126 C.2     1  UNL1        0.3381
     22 O         -67.9882  -34.7142  -19.6557 O.2     1  UNL1       -0.2451
     23 O         -66.7938  -33.6053  -18.0571 O.3     1  UNL1       -0.4771
     24 H         -65.9276  -33.4159  -17.5691 H       1  UNL1        0.2954
     25 C         -61.2167  -35.2900  -20.8985 C.3     1  UNL1        0.0773
     26 C         -62.0024  -35.3860  -19.6249 C.2     1  UNL1        0.1736
     27 O         -61.4572  -34.9977  -18.5558 O.2     1  UNL1       -0.2913
     28 N         -61.9262  -44.6488  -24.1964 N.am    1  UNL1       -0.2766
     29 C         -60.8736  -43.9797  -24.9053 C.2     1  UNL1        0.2839
     30 O         -59.9969  -43.3355  -24.2690 O.2     1  UNL1       -0.2665
     31 H         -62.2731  -45.5558  -24.5811 H       1  UNL1        0.1553
     32 C         -60.7491  -44.0931  -26.3689 C.ar    1  UNL1        0.1946
     33 O         -59.9656  -44.9870  -26.9463 O.2     1  UNL1       -0.4492
     34 C         -60.0778  -44.8422  -28.2440 C.ar    1  UNL1        0.1452
     35 C         -59.4382  -45.5785  -29.2353 C.ar    1  UNL1        0.0375
     36 C         -59.7091  -45.2546  -30.5763 C.ar    1  UNL1        0.0031
     37 C         -60.6100  -44.2055  -30.9050 C.ar    1  UNL1        0.0002
     38 C         -61.2384  -43.4797  -29.8647 C.ar    1  UNL1        0.0028
     39 C         -60.9456  -43.8283  -28.5461 C.ar    1  UNL1        0.0337
     40 C         -61.3855  -43.3136  -27.3429 C.ar    1  UNL1        0.0202
     41 C         -62.3321  -42.1677  -27.1487 C.3     1  UNL1        0.0345
     42 C         -60.8894  -43.8727  -32.3250 C.ar    1  UNL1        0.0000
     43 C         -62.1718  -43.4485  -32.7219 C.ar    1  UNL1        0.0000
     44 C         -62.4317  -43.1349  -34.0597 C.ar    1  UNL1        0.0000
     45 C         -61.4179  -43.2412  -35.0143 C.ar    1  UNL1        0.0000
     46 C         -60.1416  -43.6610  -34.6332 C.ar    1  UNL1        0.0000
     47 C         -59.8758  -43.9751  -33.2970 C.ar    1  UNL1        0.0000
@<TRIPOS>BOND
     1    25    26    1
     2    26    27    2
     3    26    15    1
     4    15    16   ar
     5    16    17   ar
     6    17    14    1
     7    14    13    1
     8    13     7    1
     9     7     8    1
    10     8     9    1
    11     9    10    1
    12    10     1    1
    13     1     2   ar
    14     2     3   ar
    15     3     4   ar
    16     4    28    1
    17    28    29   am
    18    29    30    2
    19    29    32    1
    20    32    33   ar
    21    33    34   ar
    22    34    35   ar
    23    35    36   ar
    24    36    37   ar
    25    37    42    1
    26    42    43   ar
    27    43    44   ar
    28    44    45   ar
    29    45    46   ar
    30    46    47   ar
    31    37    38   ar
    32    38    39   ar
    33    39    40   ar
    34    40    41    1
    35     4     5   ar
    36     5     6   ar
    37    10    11    1
    38    11    12    1
    39    17    18   ar
    40    18    19   ar
    41    19    21    1
    42    21    22    2
    43    21    23    1
    44    19    20   ar
    45    20    15   ar
    46    12     7    1
    47     6     1   ar
    48    40    32   ar
    49    39    34   ar
    50    47    42   ar
    51    28    31    1
    52    23    24    1
@<TRIPOS>MOLECULE
*****
 47 52 0 0 0
SMALL
GASTEIGER

@<TRIPOS>ATOM
      1 C         -66.4448  -55.3595  -22.5403 C.ar    1  UNL1        0.1318
      2 C         -65.1024  -55.4225  -22.1295 C.ar    1  UNL1        0.0356
      3 C         -64.1991  -54.4549  -22.5725 C.ar    1  UNL1        0.0191
      4 C         -64.6293  -53.4135  -23.4033 C.ar    1  UNL1        0.0702
      5 C         -65.9777  -53.3822  -23.7915 C.ar    1  UNL1        0.1149
      6 N         -66.8353  -54.3422  -23.3587 N.ar    1  UNL1       -0.2279
      7 C         -69.8537  -56.5157  -20.7446 C.3     1  UNL1        0.0472
      8 C         -69.7399  -57.2318  -22.1118 C.3     1  UNL1        0.0252
      9 C         -68.5868  -56.6592  -22.9591 C.3     1  UNL1        0.0923
     10 N         -67.4045  -56.3605  -22.1323 N.pl3   1  UNL1       -0.2932
     11 C         -67.3124  -56.9848  -20.8068 C.3     1  UNL1        0.0923
     12 C         -68.5138  -56.5674  -19.9500 C.3     1  UNL1        0.0252
     13 C         -70.3958  -55.0803  -20.9281 C.3     1  UNL1        0.2054
     14 O         -70.1224  -54.2706  -19.7808 O.3     1  UNL1       -0.4755
     15 C         -72.8456  -52.9134  -17.6665 C.ar    1  UNL1        0.0379
     16 C         -71.9713  -53.1477  -18.7436 C.ar    1  UNL1        0.0397
     17 C         -70.9506  -54.0997  -18.6551 C.ar    1  UNL1        0.1388
     18 C         -70.8039  -54.8401  -17.4645 C.ar    1  UNL1        0.0433
     19 C         -71.6468  -54.6035  -16.3672 C.ar    1  UNL1        0.0786
     20 C         -72.6709  -53.6498  -16.4815 C.ar    1  UNL1        0.0095
     21 C         -71.4735  -55.3549  -15.1010 C.2     1  UNL1        0.3381
     22 O         -72.2831  -56.2720  -14.8002 O.2     1  UNL1       -0.2451
     23 O         -70.4431  -55.0558  -14.2109 O.3     1  UNL1       -0.4771
     24 H         -69.8133  -54.2760  -14.3508 H       1  UNL1        0.2954
     25 C         -74.8092  -51.5658  -16.5905 C.3     1  UNL1        0.0773
     26 C         -73.9360  -51.9041  -17.7619 C.2     1  UNL1        0.1736
     27 O         -74.1434  -51.3074  -18.8536 O.2     1  UNL1       -0.2913
     28 N         -63.6795  -52.4497  -23.8897 N.am    1  UNL1       -0.2766
     29 C         -62.6884  -51.8202  -23.0652 C.2     1  UNL1        0.2839
     30 O         -62.2173  -52.4323  -22.0692 O.2     1  UNL1       -0.2665
     31 H         -63.6588  -52.2504  -24.9148 H       1  UNL1        0.1553
     32 C         -62.1478  -50.4922  -23.4036 C.ar    1  UNL1        0.1946
     33 O         -60.9933  -50.0557  -22.9314 O.2     1  UNL1       -0.4492
     34 C         -60.7880  -48.8555  -23.4162 C.ar    1  UNL1        0.1452
     35 C         -59.6938  -48.0278  -23.1892 C.ar    1  UNL1        0.0375
     36 C         -59.6755  -46.7708  -23.8186 C.ar    1  UNL1        0.0031
     37 C         -60.7450  -46.3618  -24.6608 C.ar    1  UNL1        0.0002
     38 C         -61.8408  -47.2348  -24.8635 C.ar    1  UNL1        0.0028
     39 C         -61.8253  -48.4738  -24.2227 C.ar    1  UNL1        0.0337
     40 C         -62.7317  -49.5153  -24.2196 C.ar    1  UNL1        0.0202
     41 C         -64.0474  -49.5627  -24.9361 C.3     1  UNL1        0.0345
     42 C         -60.7146  -45.0321  -25.3213 C.ar    1  UNL1        0.0000
     43 C         -60.8337  -44.9247  -26.7201 C.ar    1  UNL1        0.0000
     44 C         -60.8057  -43.6712  -27.3391 C.ar    1  UNL1        0.0000
     45 C         -60.6583  -42.5136  -26.5719 C.ar    1  UNL1        0.0000
     46 C         -60.5391  -42.6068  -25.1836 C.ar    1  UNL1        0.0000
     47 C         -60.5672  -43.8575  -24.5591 C.ar    1  UNL1        0.0000
@<TRIPOS>BOND
     1    25    26    1
     2    26    27    2
     3    26    15    1
     4    15    16   ar
     5    16    17   ar
     6    17    14    1
     7    14    13    1
     8    13     7    1
     9     7     8    1
    10     8     9    1
    11     9    10    1
    12    10     1    1
    13     1     2   ar
    14     2     3   ar
    15     3     4   ar
    16     4    28    1
    17    28    29   am
    18    29    30    2
    19    29    32    1
    20    32    33   ar
    21    33    34   ar
    22    34    35   ar
    23    35    36   ar
    24    36    37   ar
    25    37    42    1
    26    42    43   ar
    27    43    44   ar
    28    44    45   ar
    29    45    46   ar
    30    46    47   ar
    31    37    38   ar
    32    38    39   ar
    33    39    40   ar
    34    40    41    1
    35     4     5   ar
    36     5     6   ar
    37    10    11    1
    38    11    12    1
    39    17    18   ar
    40    18    19   ar
    41    19    21    1
    42    21    22    2
    43    21    23    1
    44    19    20   ar
    45    20    15   ar
    46    12     7    1
    47     6     1   ar
    48    40    32   ar
    49    39    34   ar
    50    47    42   ar
    51    28    31    1
    52    23    24    1
@<TRIPOS>MOLECULE
*****
 47 52 0 0 0
SMALL
GASTEIGER

@<TRIPOS>ATOM
      1 C         -63.2769  -43.2303  -20.5196 C.ar    1  UNL1        0.1318
      2 C         -63.1787  -42.3532  -21.6132 C.ar    1  UNL1        0.0356
      3 C         -62.8266  -42.8521  -22.8685 C.ar    1  UNL1        0.0191
      4 C         -62.5938  -44.2211  -23.0455 C.ar    1  UNL1        0.0702
      5 C         -62.7029  -45.0669  -21.9307 C.ar    1  UNL1        0.1149
      6 N         -63.0337  -44.5567  -20.7163 N.ar    1  UNL1       -0.2279
      7 C         -64.7978  -40.4991  -17.9882 C.3     1  UNL1        0.0472
      8 C         -65.2855  -41.9043  -17.5610 C.3     1  UNL1        0.0252
      9 C         -64.9423  -42.9710  -18.6192 C.3     1  UNL1        0.0923
     10 N         -63.6050  -42.7497  -19.1965 N.pl3   1  UNL1       -0.2932
     11 C         -62.6698  -41.8874  -18.4636 C.3     1  UNL1        0.0923
     12 C         -63.2712  -40.4860  -18.3020 C.3     1  UNL1        0.0252
     13 C         -65.6610  -39.9556  -19.1490 C.3     1  UNL1        0.2054
     14 O         -64.8636  -39.2478  -20.1028 O.3     1  UNL1       -0.4755
     15 C         -64.7198  -35.6692  -19.1534 C.ar    1  UNL1        0.0379
     16 C         -65.1561  -36.9947  -19.3326 C.ar    1  UNL1        0.0397
     17 C         -64.3488  -37.9443  -19.9670 C.ar    1  UNL1        0.1388
     18 C         -63.0724  -37.5625  -20.4275 C.ar    1  UNL1        0.0433
     19 C         -62.6274  -36.2388  -20.2847 C.ar    1  UNL1        0.0786
     20 C         -63.4505  -35.3042  -19.6361 C.ar    1  UNL1        0.0095
     21 C         -61.3002  -35.8244  -20.7991 C.2     1  UNL1        0.3381
     22 O         -61.0321  -34.6004  -20.9285 O.2     1  UNL1       -0.2451
     23 O         -60.3378  -36.7615  -21.1720 O.3     1  UNL1       -0.4771
     24 H         -60.5209  -37.7569  -21.1750 H       1  UNL1        0.2954
     25 C         -67.0020  -34.4269  -18.8757 C.3     1  UNL1        0.0773
     26 C         -65.5762  -34.6590  -18.4732 C.2     1  UNL1        0.1736
     27 O         -65.1025  -33.9706  -17.5284 O.2     1  UNL1       -0.2913
     28 N         -62.1871  -44.7153  -24.3331 N.am    1  UNL1       -0.2766
     29 C         -60.9300  -44.3994  -24.9481 C.2     1  UNL1        0.2839
     30 O         -59.9196  -44.1667  -24.2315 O.2     1  UNL1       -0.2665
     31 H         -62.8073  -45.4026  -24.8168 H       1  UNL1        0.1553
     32 C         -60.7732  -44.4160  -26.4128 C.ar    1  UNL1        0.1946
     33 O         -59.8603  -45.1542  -27.0195 O.2     1  UNL1       -0.4492
     34 C         -59.9774  -44.9590  -28.3102 C.ar    1  UNL1        0.1452
     35 C         -59.2252  -45.5407  -29.3249 C.ar    1  UNL1        0.0375
     36 C         -59.5251  -45.1895  -30.6528 C.ar    1  UNL1        0.0031
     37 C         -60.5664  -44.2673  -30.9454 C.ar    1  UNL1        0.0002
     38 C         -61.3066  -43.6970  -29.8820 C.ar    1  UNL1        0.0028
     39 C         -60.9811  -44.0682  -28.5773 C.ar    1  UNL1        0.0337
     40 C         -61.5058  -43.6875  -27.3583 C.ar    1  UNL1        0.0202
     41 C         -62.6125  -42.7039  -27.1248 C.3     1  UNL1        0.0345
     42 C         -60.8751  -43.9044  -32.3519 C.ar    1  UNL1        0.0000
     43 C         -62.1676  -43.4802  -32.7146 C.ar    1  UNL1        0.0000
     44 C         -62.4550  -43.1381  -34.0396 C.ar    1  UNL1        0.0000
     45 C         -61.4591  -43.2159  -35.0156 C.ar    1  UNL1        0.0000
     46 C         -60.1730  -43.6355  -34.6685 C.ar    1  UNL1        0.0000
     47 C         -59.8796  -43.9779  -33.3450 C.ar    1  UNL1        0.0000
@<TRIPOS>BOND
     1    25    26    1
     2    26    27    2
     3    26    15    1
     4    15    16   ar
     5    16    17   ar
     6    17    14    1
     7    14    13    1
     8    13     7    1
     9     7     8    1
    10     8     9    1
    11     9    10    1
    12    10     1    1
    13     1     2   ar
    14     2     3   ar
    15     3     4   ar
    16     4    28    1
    17    28    29   am
    18    29    30    2
    19    29    32    1
    20    32    33   ar
    21    33    34   ar
    22    34    35   ar
    23    35    36   ar
    24    36    37   ar
    25    37    42    1
    26    42    43   ar
    27    43    44   ar
    28    44    45   ar
    29    45    46   ar
    30    46    47   ar
    31    37    38   ar
    32    38    39   ar
    33    39    40   ar
    34    40    41    1
    35     4     5   ar
    36     5     6   ar
    37    10    11    1
    38    11    12    1
    39    17    18   ar
    40    18    19   ar
    41    19    21    1
    42    21    22    2
    43    21    23    1
    44    19    20   ar
    45    20    15   ar
    46    12     7    1
    47     6     1   ar
    48    40    32   ar
    49    39    34   ar
    50    47    42   ar
    51    28    31    1
    52    23    24    1
@<TRIPOS>MOLECULE
*****
 47 52 0 0 0
SMALL
GASTEIGER

@<TRIPOS>ATOM
      1 C         -66.4730  -55.3859  -22.4990 C.ar    1  UNL1        0.1318
      2 C         -65.1225  -55.4760  -22.1211 C.ar    1  UNL1        0.0356
      3 C         -64.2137  -54.5185  -22.5748 C.ar    1  UNL1        0.0191
      4 C         -64.6458  -53.4605  -23.3833 C.ar    1  UNL1        0.0702
      5 C         -66.0023  -53.4023  -23.7388 C.ar    1  UNL1        0.1149
      6 N         -66.8655  -54.3529  -23.2964 N.ar    1  UNL1       -0.2279
      7 C         -69.8913  -56.4971  -20.6929 C.3     1  UNL1        0.0472
      8 C         -69.7805  -57.2314  -22.0507 C.3     1  UNL1        0.0252
      9 C         -68.6228  -56.6771  -22.9037 C.3     1  UNL1        0.0923
     10 N         -67.4395  -56.3754  -22.0794 N.pl3   1  UNL1       -0.2932
     11 C         -67.3530  -56.9832  -20.7458 C.3     1  UNL1        0.0923
     12 C         -68.5527  -56.5472  -19.8961 C.3     1  UNL1        0.0252
     13 C         -70.4240  -55.0608  -20.8955 C.3     1  UNL1        0.2054
     14 O         -70.1774  -54.2476  -19.7446 O.3     1  UNL1       -0.4755
     15 C         -71.8422  -54.5966  -16.4529 C.ar    1  UNL1        0.0379
     16 C         -70.9854  -54.7904  -17.5520 C.ar    1  UNL1        0.0397
     17 C         -71.0749  -53.9852  -18.6920 C.ar    1  UNL1        0.1388
     18 C         -72.0388  -52.9574  -18.7324 C.ar    1  UNL1        0.0433
     19 C         -72.9227  -52.7636  -17.6592 C.ar    1  UNL1        0.0786
     20 C         -72.8087  -53.5776  -16.5207 C.ar    1  UNL1        0.0095
     21 C         -73.9611  -51.7069  -17.7121 C.2     1  UNL1        0.3381
     22 O         -74.6663  -51.5721  -18.7472 O.2     1  UNL1       -0.2451
     23 O         -74.1652  -50.8313  -16.6467 O.3     1  UNL1       -0.4771
     24 H         -73.5759  -50.8299  -15.8239 H       1  UNL1        0.2954
     25 C         -71.7886  -54.8697  -13.8545 C.3     1  UNL1        0.0773
     26 C         -71.7440  -55.4498  -15.2367 C.2     1  UNL1        0.1736
     27 O         -71.6195  -56.6992  -15.3566 O.2     1  UNL1       -0.2913
     28 N         -63.6916  -52.5071  -23.8814 N.am    1  UNL1       -0.2766
     29 C         -62.7048  -51.8637  -23.0625 C.2     1  UNL1        0.2839
     30 O         -62.2408  -52.4579  -22.0524 O.2     1  UNL1       -0.2665
     31 H         -63.6642  -52.3269  -24.9099 H       1  UNL1        0.1553
     32 C         -62.1602  -50.5430  -23.4220 C.ar    1  UNL1        0.1946
     33 O         -60.9768  -50.1272  -23.0059 O.2     1  UNL1       -0.4492
     34 C         -60.7764  -48.9281  -23.4955 C.ar    1  UNL1        0.1452
     35 C         -59.6590  -48.1191  -23.3198 C.ar    1  UNL1        0.0375
     36 C         -59.6516  -46.8595  -23.9443 C.ar    1  UNL1        0.0031
     37 C         -60.7548  -46.4295  -24.7308 C.ar    1  UNL1        0.0002
     38 C         -61.8733  -47.2838  -24.8823 C.ar    1  UNL1        0.0028
     39 C         -61.8461  -48.5260  -24.2480 C.ar    1  UNL1        0.0337
     40 C         -62.7679  -49.5529  -24.2041 C.ar    1  UNL1        0.0202
     41 C         -64.1182  -49.5759  -24.8546 C.3     1  UNL1        0.0345
     42 C         -60.7357  -45.0973  -25.3866 C.ar    1  UNL1        0.0000
     43 C         -60.6319  -43.9224  -24.6179 C.ar    1  UNL1        0.0000
     44 C         -60.6131  -42.6693  -25.2384 C.ar    1  UNL1        0.0000
     45 C         -60.6983  -42.5744  -26.6291 C.ar    1  UNL1        0.0000
     46 C         -60.8018  -43.7325  -27.4028 C.ar    1  UNL1        0.0000
     47 C         -60.8201  -44.9881  -26.7879 C.ar    1  UNL1        0.0000
@<TRIPOS>BOND
     1    25    26    1
     2    26    27    2
     3    26    15    1
     4    15    16   ar
     5    16    17   ar
     6    17    14    1
     7    14    13    1
     8    13     7    1
     9     7     8    1
    10     8     9    1
    11     9    10    1
    12    10     1    1
    13     1     2   ar
    14     2     3   ar
    15     3     4   ar
    16     4    28    1
    17    28    29   am
    18    29    30    2
    19    29    32    1
    20    32    33   ar
    21    33    34   ar
    22    34    35   ar
    23    35    36   ar
    24    36    37   ar
    25    37    42    1
    26    42    43   ar
    27    43    44   ar
    28    44    45   ar
    29    45    46   ar
    30    46    47   ar
    31    37    38   ar
    32    38    39   ar
    33    39    40   ar
    34    40    41    1
    35     4     5   ar
    36     5     6   ar
    37    10    11    1
    38    11    12    1
    39    17    18   ar
    40    18    19   ar
    41    19    21    1
    42    21    22    2
    43    21    23    1
    44    19    20   ar
    45    20    15   ar
    46    12     7    1
    47     6     1   ar
    48    40    32   ar
    49    39    34   ar
    50    47    42   ar
    51    28    31    1
    52    23    24    1
@<TRIPOS>MOLECULE
*****
 47 52 0 0 0
SMALL
GASTEIGER

@<TRIPOS>ATOM
      1 C         -61.4779  -44.0038  -27.9739 C.ar    1  UNL1        0.1318
      2 C         -60.5577  -44.3607  -26.9736 C.ar    1  UNL1        0.0356
      3 C         -60.8691  -45.3918  -26.0856 C.ar    1  UNL1        0.0191
      4 C         -62.0806  -46.0835  -26.2020 C.ar    1  UNL1        0.0702
      5 C         -62.9740  -45.7003  -27.2143 C.ar    1  UNL1        0.1149
      6 N         -62.6551  -44.6852  -28.0582 N.ar    1  UNL1       -0.2279
      7 C         -62.5891  -40.8032  -30.1424 C.3     1  UNL1        0.0472
      8 C         -61.2517  -40.4865  -29.4312 C.3     1  UNL1        0.0252
      9 C         -60.8876  -41.5697  -28.3971 C.3     1  UNL1        0.0923
     10 N         -61.2093  -42.9197  -28.8915 N.pl3   1  UNL1       -0.2932
     11 C         -61.4129  -43.0970  -30.3345 C.3     1  UNL1        0.0923
     12 C         -62.5713  -42.2116  -30.8097 C.3     1  UNL1        0.0252
     13 C         -63.7777  -40.6045  -29.1751 C.3     1  UNL1        0.2054
     14 O         -63.8384  -41.6531  -28.2037 O.3     1  UNL1       -0.4755
     15 C         -63.0543  -42.0485  -24.6042 C.ar    1  UNL1        0.0379
     16 C         -63.0108  -42.1473  -26.0069 C.ar    1  UNL1        0.0397
     17 C         -63.9575  -41.5019  -26.8090 C.ar    1  UNL1        0.1388
     18 C         -64.9678  -40.7339  -26.1954 C.ar    1  UNL1        0.0433
     19 C         -65.0475  -40.6440  -24.7967 C.ar    1  UNL1        0.0786
     20 C         -64.0809  -41.2923  -24.0112 C.ar    1  UNL1        0.0095
     21 C         -66.1292  -39.8664  -24.1463 C.2     1  UNL1        0.3381
     22 O         -67.0375  -40.4655  -23.5116 O.2     1  UNL1       -0.2451
     23 O         -66.1850  -38.4766  -24.2390 O.3     1  UNL1       -0.4771
     24 H         -65.5374  -37.9432  -24.8052 H       1  UNL1        0.2954
     25 C         -60.5918  -42.3570  -23.7855 C.3     1  UNL1        0.0773
     26 C         -62.0437  -42.7307  -23.7498 C.2     1  UNL1        0.1736
     27 O         -62.4044  -43.6520  -22.9674 O.2     1  UNL1       -0.2913
     28 N         -62.4090  -47.1124  -25.2527 N.am    1  UNL1       -0.2766
     29 C         -61.5721  -48.2463  -24.9839 C.2     1  UNL1        0.2839
     30 O         -60.3214  -48.1483  -25.1053 O.2     1  UNL1       -0.2665
     31 H         -63.2680  -46.9918  -24.6709 H       1  UNL1        0.1553
     32 C         -62.1407  -49.5127  -24.4906 C.ar    1  UNL1        0.1946
     33 O         -61.4319  -50.3842  -23.7946 O.2     1  UNL1       -0.4492
     34 C         -62.2134  -51.3938  -23.4985 C.ar    1  UNL1        0.1452
     35 C         -61.8851  -52.5318  -22.7698 C.ar    1  UNL1        0.0375
     36 C         -62.8874  -53.4963  -22.5652 C.ar    1  UNL1        0.0031
     37 C         -64.1956  -53.3103  -23.0889 C.ar    1  UNL1        0.0002
     38 C         -64.4869  -52.1378  -23.8267 C.ar    1  UNL1        0.0028
     39 C         -63.4680  -51.2028  -24.0102 C.ar    1  UNL1        0.0337
     40 C         -63.4436  -49.9925  -24.6740 C.ar    1  UNL1        0.0202
     41 C         -64.5751  -49.3565  -25.4236 C.3     1  UNL1        0.0345
     42 C         -65.2467  -54.3352  -22.8657 C.ar    1  UNL1        0.0000
     43 C         -65.0149  -55.4218  -22.0010 C.ar    1  UNL1        0.0000
     44 C         -66.0070  -56.3849  -21.7921 C.ar    1  UNL1        0.0000
     45 C         -67.2381  -56.2757  -22.4424 C.ar    1  UNL1        0.0000
     46 C         -67.4802  -55.2026  -23.3028 C.ar    1  UNL1        0.0000
     47 C         -66.4923  -54.2362  -23.5148 C.ar    1  UNL1        0.0000
@<TRIPOS>BOND
     1    25    26    1
     2    26    27    2
     3    26    15    1
     4    15    16   ar
     5    16    17   ar
     6    17    14    1
     7    14    13    1
     8    13     7    1
     9     7     8    1
    10     8     9    1
    11     9    10    1
    12    10     1    1
    13     1     2   ar
    14     2     3   ar
    15     3     4   ar
    16     4    28    1
    17    28    29   am
    18    29    30    2
    19    29    32    1
    20    32    33   ar
    21    33    34   ar
    22    34    35   ar
    23    35    36   ar
    24    36    37   ar
    25    37    42    1
    26    42    43   ar
    27    43    44   ar
    28    44    45   ar
    29    45    46   ar
    30    46    47   ar
    31    37    38   ar
    32    38    39   ar
    33    39    40   ar
    34    40    41    1
    35     4     5   ar
    36     5     6   ar
    37    10    11    1
    38    11    12    1
    39    17    18   ar
    40    18    19   ar
    41    19    21    1
    42    21    22    2
    43    21    23    1
    44    19    20   ar
    45    20    15   ar
    46    12     7    1
    47     6     1   ar
    48    40    32   ar
    49    39    34   ar
    50    47    42   ar
    51    28    31    1
    52    23    24    1
@<TRIPOS>MOLECULE
*****
 47 52 0 0 0
SMALL
GASTEIGER

@<TRIPOS>ATOM
      1 C         -61.4305  -44.0695  -27.8640 C.ar    1  UNL1        0.1318
      2 C         -60.5610  -44.3986  -26.8100 C.ar    1  UNL1        0.0356
      3 C         -60.8966  -45.4346  -25.9366 C.ar    1  UNL1        0.0191
      4 C         -62.0807  -46.1584  -26.1198 C.ar    1  UNL1        0.0702
      5 C         -62.9234  -45.8023  -27.1842 C.ar    1  UNL1        0.1149
      6 N         -62.5825  -44.7820  -28.0132 N.ar    1  UNL1       -0.2279
      7 C         -62.4649  -40.8117  -29.9848 C.3     1  UNL1        0.0472
      8 C         -61.1146  -40.5417  -29.2786 C.3     1  UNL1        0.0252
      9 C         -60.7745  -41.6478  -28.2606 C.3     1  UNL1        0.0923
     10 N         -61.1373  -42.9819  -28.7697 N.pl3   1  UNL1       -0.2932
     11 C         -61.3549  -43.1350  -30.2134 C.3     1  UNL1        0.0923
     12 C         -62.4910  -42.2115  -30.6697 C.3     1  UNL1        0.0252
     13 C         -63.6412  -40.5921  -29.0071 C.3     1  UNL1        0.2054
     14 O         -63.7503  -41.6711  -28.0740 O.3     1  UNL1       -0.4755
     15 C         -64.9109  -40.6184  -24.7165 C.ar    1  UNL1        0.0379
     16 C         -64.7965  -40.7750  -26.1100 C.ar    1  UNL1        0.0397
     17 C         -63.7905  -41.5687  -26.6704 C.ar    1  UNL1        0.1388
     18 C         -62.8811  -42.2273  -25.8181 C.ar    1  UNL1        0.0433
     19 C         -62.9588  -42.0633  -24.4261 C.ar    1  UNL1        0.0786
     20 C         -63.9827  -41.2694  -23.8847 C.ar    1  UNL1        0.0095
     21 C         -61.9829  -42.7257  -23.5280 C.2     1  UNL1        0.3381
     22 O         -60.9508  -42.1058  -23.1574 O.2     1  UNL1       -0.2451
     23 O         -62.1637  -44.0389  -23.0968 O.3     1  UNL1       -0.4771
     24 H         -62.9240  -44.6196  -23.4269 H       1  UNL1        0.2954
     25 C         -66.7777  -40.2311  -22.9292 C.3     1  UNL1        0.0773
     26 C         -65.9849  -39.7782  -24.1188 C.2     1  UNL1        0.1736
     27 O         -66.2469  -38.6492  -24.6167 O.2     1  UNL1       -0.2913
     28 N         -62.4369  -47.1924  -25.1862 N.am    1  UNL1       -0.2766
     29 C         -61.6027  -48.3214  -24.8898 C.2     1  UNL1        0.2839
     30 O         -60.3491  -48.2146  -24.9648 O.2     1  UNL1       -0.2665
     31 H         -63.3176  -47.0793  -24.6362 H       1  UNL1        0.1553
     32 C         -62.1805  -49.5931  -24.4214 C.ar    1  UNL1        0.1946
     33 O         -61.4681  -50.4999  -23.7760 O.2     1  UNL1       -0.4492
     34 C         -62.2595  -51.5046  -23.4898 C.ar    1  UNL1        0.1452
     35 C         -61.9315  -52.6719  -22.8089 C.ar    1  UNL1        0.0375
     36 C         -62.9454  -53.6245  -22.6060 C.ar    1  UNL1        0.0031
     37 C         -64.2647  -53.3977  -23.0837 C.ar    1  UNL1        0.0002
     38 C         -64.5554  -52.1962  -23.7736 C.ar    1  UNL1        0.0028
     39 C         -63.5248  -51.2742  -23.9570 C.ar    1  UNL1        0.0337
     40 C         -63.4970  -50.0430  -24.5812 C.ar    1  UNL1        0.0202
     41 C         -64.6379  -49.3621  -25.2752 C.3     1  UNL1        0.0345
     42 C         -65.3281  -54.4105  -22.8627 C.ar    1  UNL1        0.0000
     43 C         -65.1481  -55.4443  -21.9241 C.ar    1  UNL1        0.0000
     44 C         -66.1516  -56.3960  -21.7175 C.ar    1  UNL1        0.0000
     45 C         -67.3426  -56.3278  -22.4435 C.ar    1  UNL1        0.0000
     46 C         -67.5332  -55.3072  -23.3776 C.ar    1  UNL1        0.0000
     47 C         -66.5337  -54.3524  -23.5878 C.ar    1  UNL1        0.0000
@<TRIPOS>BOND
     1    25    26    1
     2    26    27    2
     3    26    15    1
     4    15    16   ar
     5    16    17   ar
     6    17    14    1
     7    14    13    1
     8    13     7    1
     9     7     8    1
    10     8     9    1
    11     9    10    1
    12    10     1    1
    13     1     2   ar
    14     2     3   ar
    15     3     4   ar
    16     4    28    1
    17    28    29   am
    18    29    30    2
    19    29    32    1
    20    32    33   ar
    21    33    34   ar
    22    34    35   ar
    23    35    36   ar
    24    36    37   ar
    25    37    42    1
    26    42    43   ar
    27    43    44   ar
    28    44    45   ar
    29    45    46   ar
    30    46    47   ar
    31    37    38   ar
    32    38    39   ar
    33    39    40   ar
    34    40    41    1
    35     4     5   ar
    36     5     6   ar
    37    10    11    1
    38    11    12    1
    39    17    18   ar
    40    18    19   ar
    41    19    21    1
    42    21    22    2
    43    21    23    1
    44    19    20   ar
    45    20    15   ar
    46    12     7    1
    47     6     1   ar
    48    40    32   ar
    49    39    34   ar
    50    47    42   ar
    51    28    31    1
    52    23    24    1
@<TRIPOS>MOLECULE
*****
 47 52 0 0 0
SMALL
GASTEIGER

@<TRIPOS>ATOM
      1 C         -64.4429  -43.4231  -20.0310 C.ar    1  UNL1        0.1318
      2 C         -63.3823  -44.3431  -19.9730 C.ar    1  UNL1        0.0356
      3 C         -62.8483  -44.8562  -21.1563 C.ar    1  UNL1        0.0191
      4 C         -63.3492  -44.4419  -22.3961 C.ar    1  UNL1        0.0702
      5 C         -64.4077  -43.5204  -22.4149 C.ar    1  UNL1        0.1149
      6 N         -64.9199  -43.0451  -21.2503 N.ar    1  UNL1       -0.2279
      7 C         -65.0920  -40.4926  -17.3529 C.3     1  UNL1        0.0472
      8 C         -66.4419  -41.1692  -17.6920 C.3     1  UNL1        0.0252
      9 C         -66.3091  -42.1360  -18.8849 C.3     1  UNL1        0.0923
     10 N         -65.0470  -42.8941  -18.8291 N.pl3   1  UNL1       -0.2932
     11 C         -64.3342  -42.9563  -17.5472 C.3     1  UNL1        0.0923
     12 C         -63.9698  -41.5404  -17.0847 C.3     1  UNL1        0.0252
     13 C         -64.7137  -39.4626  -18.4410 C.3     1  UNL1        0.2054
     14 O         -63.4034  -39.7109  -18.9589 O.3     1  UNL1       -0.4755
     15 C         -63.7733  -40.3053  -22.5973 C.ar    1  UNL1        0.0379
     16 C         -64.0149  -39.9043  -21.2705 C.ar    1  UNL1        0.0397
     17 C         -63.0810  -40.1472  -20.2581 C.ar    1  UNL1        0.1388
     18 C         -61.8739  -40.8002  -20.5800 C.ar    1  UNL1        0.0433
     19 C         -61.6236  -41.2341  -21.8914 C.ar    1  UNL1        0.0786
     20 C         -62.5709  -40.9712  -22.8939 C.ar    1  UNL1        0.0095
     21 C         -60.3710  -41.9525  -22.2272 C.2     1  UNL1        0.3381
     22 O         -59.6520  -42.4234  -21.3062 O.2     1  UNL1       -0.2451
     23 O         -59.9478  -42.1022  -23.5469 O.3     1  UNL1       -0.4771
     24 H         -60.4326  -41.6735  -24.3251 H       1  UNL1        0.2954
     25 C         -66.2008  -40.4550  -23.5533 C.3     1  UNL1        0.0773
     26 C         -64.7644  -40.0422  -23.6767 C.2     1  UNL1        0.1736
     27 O         -64.4000  -39.4554  -24.7321 O.2     1  UNL1       -0.2913
     28 N         -62.8215  -45.0126  -23.6058 N.am    1  UNL1       -0.2766
     29 C         -61.4620  -44.8535  -24.0361 C.2     1  UNL1        0.2839
     30 O         -60.5444  -44.7139  -23.1834 O.2     1  UNL1       -0.2665
     31 H         -63.4399  -45.6404  -24.1666 H       1  UNL1        0.1553
     32 C         -61.1011  -44.9270  -25.4624 C.ar    1  UNL1        0.1946
     33 O         -60.3885  -45.9211  -25.9628 O.2     1  UNL1       -0.4492
     34 C         -60.2431  -45.7056  -27.2473 C.ar    1  UNL1        0.1452
     35 C         -59.5704  -46.5022  -28.1675 C.ar    1  UNL1        0.0375
     36 C         -59.5414  -46.0807  -29.5084 C.ar    1  UNL1        0.0031
     37 C         -60.1814  -44.8760  -29.9077 C.ar    1  UNL1        0.0002
     38 C         -60.8537  -44.0937  -28.9382 C.ar    1  UNL1        0.0028
     39 C         -60.8617  -44.5425  -27.6174 C.ar    1  UNL1        0.0337
     40 C         -61.4153  -44.0078  -26.4712 C.ar    1  UNL1        0.0202
     41 C         -62.1759  -42.7213  -26.3571 C.3     1  UNL1        0.0345
     42 C         -60.1451  -44.4410  -31.3271 C.ar    1  UNL1        0.0000
     43 C         -61.2627  -43.8169  -31.9134 C.ar    1  UNL1        0.0000
     44 C         -61.2252  -43.4074  -33.2499 C.ar    1  UNL1        0.0000
     45 C         -60.0756  -43.6160  -34.0150 C.ar    1  UNL1        0.0000
     46 C         -58.9605  -44.2341  -33.4451 C.ar    1  UNL1        0.0000
     47 C         -58.9920  -44.6448  -32.1089 C.ar    1  UNL1        0.0000
@<TRIPOS>BOND
     1    25    26    1
     2    26    27    2
     3    26    15    1
     4    15    16   ar
     5    16    17   ar
     6    17    14    1
     7    14    13    1
     8    13     7    1
     9     7     8    1
    10     8     9    1
    11     9    10    1
    12    10     1    1
    13     1     2   ar
    14     2     3   ar
    15     3     4   ar
    16     4    28    1
    17    28    29   am
    18    29    30    2
    19    29    32    1
    20    32    33   ar
    21    33    34   ar
    22    34    35   ar
    23    35    36   ar
    24    36    37   ar
    25    37    42    1
    26    42    43   ar
    27    43    44   ar
    28    44    45   ar
    29    45    46   ar
    30    46    47   ar
    31    37    38   ar
    32    38    39   ar
    33    39    40   ar
    34    40    41    1
    35     4     5   ar
    36     5     6   ar
    37    10    11    1
    38    11    12    1
    39    17    18   ar
    40    18    19   ar
    41    19    21    1
    42    21    22    2
    43    21    23    1
    44    19    20   ar
    45    20    15   ar
    46    12     7    1
    47     6     1   ar
    48    40    32   ar
    49    39    34   ar
    50    47    42   ar
    51    28    31    1
    52    23    24    1
