@<TRIPOS>MOLECULE
*****
 39 43 0 0 0
SMALL
GASTEIGER

@<TRIPOS>ATOM
      1 C         -29.7678   48.9588   -9.6268 C.ar    1  UNL1        0.1317
      2 C         -30.8950   48.9297   -8.7841 C.ar    1  UNL1        0.0286
      3 C         -30.8460   49.5268   -7.5110 C.ar    1  UNL1        0.0777
      4 C         -29.6680   50.1570   -7.0868 C.ar    1  UNL1        0.2964
      5 N         -28.6003   50.1638   -7.9289 N.ar    1  UNL1       -0.1291
      6 C         -27.3867   50.7295   -7.7983 C.ar    1  UNL1        0.2547
      7 C         -26.7033   50.5048   -8.9929 C.ar    1  UNL1        0.1238
      8 N         -27.4841   49.8024   -9.8480 N.ar    1  UNL1       -0.2945
      9 C         -28.6231   49.6069   -9.1527 C.ar    1  UNL1        0.3119
     10 H         -27.2706   49.5047  -10.7618 H       1  UNL1        0.1718
     11 N         -30.3104   47.0680  -13.3682 N.3     1  UNL1       -0.2647
     12 C         -31.0162   48.3269  -13.0517 C.3     1  UNL1        0.0941
     13 C         -30.1695   49.1715  -12.1003 C.3     1  UNL1        0.1084
     14 N         -29.7975   48.3660  -10.9341 N.pl3   1  UNL1       -0.2988
     15 C         -29.2094   47.0445  -11.1648 C.3     1  UNL1        0.1084
     16 C         -30.0817   46.2642  -12.1513 C.3     1  UNL1        0.0941
     17 C         -30.9760   46.2947  -14.4402 C.3     1  UNL1        0.1199
     18 C         -29.5710   47.5273  -17.5057 C.ar    1  UNL1        0.1165
     19 N         -29.9651   47.7407  -16.2324 N.ar    1  UNL1       -0.2344
     20 C         -30.3912   46.5320  -15.8119 C.ar    1  UNL1        0.0878
     21 C         -30.2418   45.6127  -16.8371 C.ar    1  UNL1        0.0499
     22 C         -30.6311   44.1675  -16.8362 C.3     1  UNL1        0.0511
     23 N         -29.7418   46.2523  -17.9066 N.ar    1  UNL1       -0.3443
     24 H         -29.5437   45.8521  -18.8509 H       1  UNL1        0.1668
     25 C         -27.6006   48.4803  -18.6741 C.3     1  UNL1        0.0084
     26 C         -29.0939   48.6222  -18.4069 C.3     1  UNL1        0.0637
     27 C         -25.3598   50.9878   -9.3585 C.ar    1  UNL1        0.0213
     28 C         -25.0855   51.3429  -10.6832 C.ar    1  UNL1        0.0013
     29 C         -23.8140   51.7923  -11.0462 C.ar    1  UNL1       -0.0042
     30 C         -22.7695   51.8751  -10.0986 C.ar    1  UNL1       -0.0228
     31 C         -23.0575   51.4876   -8.7683 C.ar    1  UNL1       -0.0042
     32 C         -24.3340   51.0470   -8.4083 C.ar    1  UNL1        0.0013
     33 C         -21.3786   52.3748  -10.5406 C.3     1  UNL1        0.0189
     34 C         -20.6308   52.9561   -9.3212 C.3     1  UNL1        0.0044
     35 C         -20.4959   51.2562  -11.1448 C.3     1  UNL1        0.0044
     36 C         -21.5415   53.4738  -11.6134 C.3     1  UNL1        0.0044
     37 C         -26.9833   51.6330   -6.6639 C.3     1  UNL1        0.2371
     38 O         -27.7053   52.8317   -6.7270 O.3     1  UNL1       -0.3725
     39 H         -27.3127   53.3592   -7.4712 H       1  UNL1        0.2111
@<TRIPOS>BOND
     1    25    26    1
     2    26    18    1
     3    18    19   ar
     4    19    20   ar
     5    20    17    1
     6    17    11    1
     7    11    12    1
     8    12    13    1
     9    13    14    1
    10    14     1    1
    11     1     2   ar
    12     2     3   ar
    13     3     4   ar
    14     4     5   ar
    15     5     6   ar
    16     6    37    1
    17    37    38    1
    18     6     7   ar
    19     7    27    1
    20    27    28   ar
    21    28    29   ar
    22    29    30   ar
    23    30    33    1
    24    33    34    1
    25    33    35    1
    26    33    36    1
    27    30    31   ar
    28    31    32   ar
    29     7     8   ar
    30     8     9   ar
    31    14    15    1
    32    15    16    1
    33    20    21   ar
    34    21    22    1
    35    21    23   ar
    36    23    18   ar
    37    16    11    1
    38     9     1   ar
    39     9     5   ar
    40    32    27   ar
    41    38    39    1
    42    23    24    1
    43     8    10    1
@<TRIPOS>MOLECULE
*****
 39 43 0 0 0
SMALL
GASTEIGER

@<TRIPOS>ATOM
      1 C         -30.1613   50.0406   -9.6933 C.ar    1  UNL1        0.1317
      2 C         -31.3087   49.9774   -8.8802 C.ar    1  UNL1        0.0286
      3 C         -31.2251   50.2792   -7.5085 C.ar    1  UNL1        0.0777
      4 C         -29.9917   50.6495   -6.9551 C.ar    1  UNL1        0.2964
      5 N         -28.9060   50.6986   -7.7725 N.ar    1  UNL1       -0.1291
      6 C         -27.6362   51.0641   -7.5195 C.ar    1  UNL1        0.2547
      7 C         -26.9497   51.0129   -8.7321 C.ar    1  UNL1        0.1238
      8 N         -27.7849   50.6136   -9.7206 N.ar    1  UNL1       -0.2945
      9 C         -28.9601   50.4218   -9.0873 C.ar    1  UNL1        0.3119
     10 H         -27.5821   50.4919  -10.6763 H       1  UNL1        0.1718
     11 N         -30.8334   49.1849  -13.7778 N.3     1  UNL1       -0.2647
     12 C         -31.1129   50.5303  -13.2347 C.3     1  UNL1        0.0941
     13 C         -30.1584   50.8325  -12.0803 C.3     1  UNL1        0.1084
     14 N         -30.2240   49.7476  -11.0974 N.pl3   1  UNL1       -0.2988
     15 C         -30.0861   48.3704  -11.5764 C.3     1  UNL1        0.1084
     16 C         -31.0388   48.1426  -12.7527 C.3     1  UNL1        0.0941
     17 C         -31.5800   48.9065  -15.0250 C.3     1  UNL1        0.1199
     18 C         -30.5373   45.9241  -16.7303 C.ar    1  UNL1        0.1165
     19 N         -31.3830   46.5518  -15.8860 N.ar    1  UNL1       -0.2344
     20 C         -30.9539   47.8306  -15.8794 C.ar    1  UNL1        0.0878
     21 C         -29.8615   47.9504  -16.7226 C.ar    1  UNL1        0.0499
     22 C         -29.0343   49.1702  -16.9831 C.3     1  UNL1        0.0511
     23 N         -29.5944   46.7406  -17.2401 N.ar    1  UNL1       -0.3443
     24 H         -28.8140   46.4838  -17.8852 H       1  UNL1        0.1668
     25 C         -29.9159   44.1188  -18.3149 C.3     1  UNL1        0.0084
     26 C         -30.5835   44.4506  -16.9861 C.3     1  UNL1        0.0637
     27 C         -25.5461   51.3870   -8.9810 C.ar    1  UNL1        0.0213
     28 C         -25.2336   52.2500  -10.0363 C.ar    1  UNL1        0.0013
     29 C         -23.9069   52.6049  -10.2904 C.ar    1  UNL1       -0.0042
     30 C         -22.8489   52.0855   -9.5117 C.ar    1  UNL1       -0.0228
     31 C         -23.1810   51.1936   -8.4642 C.ar    1  UNL1       -0.0042
     32 C         -24.5108   50.8485   -8.2084 C.ar    1  UNL1        0.0013
     33 C         -21.3969   52.5011   -9.8262 C.3     1  UNL1        0.0189
     34 C         -20.8215   51.5707  -10.9158 C.3     1  UNL1        0.0044
     35 C         -21.2803   53.9563  -10.3399 C.3     1  UNL1        0.0044
     36 C         -20.5382   52.3854   -8.5477 C.3     1  UNL1        0.0044
     37 C         -27.1590   51.6471   -6.2163 C.3     1  UNL1        0.2371
     38 O         -27.3426   53.0358   -6.2176 O.3     1  UNL1       -0.3725
     39 H         -26.6370   53.4136   -6.8057 H       1  UNL1        0.2111
@<TRIPOS>BOND
     1    25    26    1
     2    26    18    1
     3    18    19   ar
     4    19    20   ar
     5    20    17    1
     6    17    11    1
     7    11    12    1
     8    12    13    1
     9    13    14    1
    10    14     1    1
    11     1     2   ar
    12     2     3   ar
    13     3     4   ar
    14     4     5   ar
    15     5     6   ar
    16     6    37    1
    17    37    38    1
    18     6     7   ar
    19     7    27    1
    20    27    28   ar
    21    28    29   ar
    22    29    30   ar
    23    30    33    1
    24    33    34    1
    25    33    35    1
    26    33    36    1
    27    30    31   ar
    28    31    32   ar
    29     7     8   ar
    30     8     9   ar
    31    14    15    1
    32    15    16    1
    33    20    21   ar
    34    21    22    1
    35    21    23   ar
    36    23    18   ar
    37    16    11    1
    38     9     1   ar
    39     9     5   ar
    40    32    27   ar
    41    38    39    1
    42    23    24    1
    43     8    10    1
@<TRIPOS>MOLECULE
*****
 39 43 0 0 0
SMALL
GASTEIGER

@<TRIPOS>ATOM
      1 C         -30.0180   49.8888   -8.4033 C.ar    1  UNL1        0.1317
      2 C         -31.3087   49.7082   -8.9353 C.ar    1  UNL1        0.0286
      3 C         -31.5840   50.0640  -10.2684 C.ar    1  UNL1        0.0777
      4 C         -30.5627   50.5954  -11.0681 C.ar    1  UNL1        0.2964
      5 N         -29.3294   50.7553  -10.5182 N.ar    1  UNL1       -0.1291
      6 C         -28.1778   51.1875  -11.0633 C.ar    1  UNL1        0.2547
      7 C         -27.1954   51.0737  -10.0803 C.ar    1  UNL1        0.1238
      8 N         -27.7363   50.5833   -8.9396 N.ar    1  UNL1       -0.2945
      9 C         -29.0383   50.4171   -9.2497 C.ar    1  UNL1        0.3119
     10 H         -27.2854   50.3930   -8.0854 H       1  UNL1        0.1718
     11 N         -28.6858   49.0435   -4.4818 N.3     1  UNL1       -0.2647
     12 C         -29.0819   50.4150   -4.8629 C.3     1  UNL1        0.0941
     13 C         -30.1668   50.3620   -5.9378 C.3     1  UNL1        0.1084
     14 N         -29.7106   49.5233   -7.0493 N.pl3   1  UNL1       -0.2988
     15 C         -29.1797   48.1936   -6.7404 C.3     1  UNL1        0.1084
     16 C         -28.1276   48.3097   -5.6346 C.3     1  UNL1        0.0941
     17 C         -27.7889   49.0149   -3.3049 C.3     1  UNL1        0.1199
     18 C         -26.9370   45.7339   -2.1215 C.ar    1  UNL1        0.1165
     19 N         -26.6120   46.8478   -2.8113 N.ar    1  UNL1       -0.2344
     20 C         -27.6815   47.6553   -2.6571 C.ar    1  UNL1        0.0878
     21 C         -28.6280   47.0153   -1.8742 C.ar    1  UNL1        0.0499
     22 C         -29.9865   47.5119   -1.4893 C.3     1  UNL1        0.0511
     23 N         -28.1586   45.7981   -1.5567 N.ar    1  UNL1       -0.3443
     24 H         -28.6425   45.0545   -1.0052 H       1  UNL1        0.1668
     25 C         -25.6427   44.1184   -3.4894 C.3     1  UNL1        0.0084
     26 C         -26.0687   44.5161   -2.0816 C.3     1  UNL1        0.0637
     27 C         -25.7567   51.3629  -10.2167 C.ar    1  UNL1        0.0213
     28 C         -25.0568   51.9278   -9.1457 C.ar    1  UNL1        0.0013
     29 C         -23.6955   52.2167   -9.2643 C.ar    1  UNL1       -0.0042
     30 C         -22.9984   51.9732  -10.4686 C.ar    1  UNL1       -0.0228
     31 C         -23.7279   51.4250  -11.5503 C.ar    1  UNL1       -0.0042
     32 C         -25.0880   51.1295  -11.4238 C.ar    1  UNL1        0.0013
     33 C         -21.4953   52.3083  -10.5592 C.3     1  UNL1        0.0189
     34 C         -20.9614   52.6562   -9.1529 C.3     1  UNL1        0.0044
     35 C         -20.6450   51.1379  -11.1094 C.3     1  UNL1        0.0044
     36 C         -21.2914   53.5173  -11.4983 C.3     1  UNL1        0.0044
     37 C         -27.9851   51.4879  -12.5258 C.3     1  UNL1        0.2371
     38 O         -28.7379   52.6128  -12.8863 O.3     1  UNL1       -0.3725
     39 H         -29.6851   52.3172  -12.9287 H       1  UNL1        0.2111
@<TRIPOS>BOND
     1    25    26    1
     2    26    18    1
     3    18    19   ar
     4    19    20   ar
     5    20    17    1
     6    17    11    1
     7    11    12    1
     8    12    13    1
     9    13    14    1
    10    14     1    1
    11     1     2   ar
    12     2     3   ar
    13     3     4   ar
    14     4     5   ar
    15     5     6   ar
    16     6    37    1
    17    37    38    1
    18     6     7   ar
    19     7    27    1
    20    27    28   ar
    21    28    29   ar
    22    29    30   ar
    23    30    33    1
    24    33    34    1
    25    33    35    1
    26    33    36    1
    27    30    31   ar
    28    31    32   ar
    29     7     8   ar
    30     8     9   ar
    31    14    15    1
    32    15    16    1
    33    20    21   ar
    34    21    22    1
    35    21    23   ar
    36    23    18   ar
    37    16    11    1
    38     9     1   ar
    39     9     5   ar
    40    32    27   ar
    41    38    39    1
    42    23    24    1
    43     8    10    1
@<TRIPOS>MOLECULE
*****
 39 43 0 0 0
SMALL
GASTEIGER

@<TRIPOS>ATOM
      1 C         -29.1542   48.7310   -7.1830 C.ar    1  UNL1        0.1317
      2 C         -30.5302   48.5778   -7.4376 C.ar    1  UNL1        0.0286
      3 C         -31.1228   49.2119   -8.5449 C.ar    1  UNL1        0.0777
      4 C         -30.3334   49.9947   -9.3988 C.ar    1  UNL1        0.2964
      5 N         -29.0084   50.1191   -9.1194 N.ar    1  UNL1       -0.1291
      6 C         -28.0297   50.7566   -9.7870 C.ar    1  UNL1        0.2547
      7 C         -26.8391   50.4948   -9.1098 C.ar    1  UNL1        0.1238
      8 N         -27.0818   49.7103   -8.0328 N.ar    1  UNL1       -0.2945
      9 C         -28.4162   49.5183   -8.0722 C.ar    1  UNL1        0.3119
     10 H         -26.4364   49.3622   -7.3760 H       1  UNL1        0.1718
     11 N         -27.7395   46.6292   -3.7994 N.3     1  UNL1       -0.2647
     12 C         -28.0732   45.9106   -5.0465 C.3     1  UNL1        0.0941
     13 C         -27.8174   46.8155   -6.2511 C.3     1  UNL1        0.1084
     14 N         -28.5252   48.0850   -6.0657 N.pl3   1  UNL1       -0.2988
     15 C         -28.3486   48.7971   -4.7980 C.3     1  UNL1        0.1084
     16 C         -28.5816   47.8304   -3.6342 C.3     1  UNL1        0.0941
     17 C         -27.7683   45.7501   -2.6091 C.3     1  UNL1        0.1199
     18 C         -30.3581   46.5114   -0.2419 C.ar    1  UNL1        0.1165
     19 N         -29.1126   46.7210   -0.7183 N.ar    1  UNL1       -0.2344
     20 C         -29.0217   45.8933   -1.7796 C.ar    1  UNL1        0.0878
     21 C         -30.2146   45.2046   -1.9253 C.ar    1  UNL1        0.0499
     22 C         -30.5457   44.1480   -2.9325 C.3     1  UNL1        0.0511
     23 N         -31.0443   45.5864   -0.9412 N.ar    1  UNL1       -0.3443
     24 H         -32.0076   45.2312   -0.7488 H       1  UNL1        0.1668
     25 C         -29.9718   48.3177    1.4148 C.3     1  UNL1        0.0084
     26 C         -30.8780   47.1653    0.9994 C.3     1  UNL1        0.0637
     27 C         -25.4811   50.9210   -9.4921 C.ar    1  UNL1        0.0213
     28 C         -24.5354   51.2005   -8.5003 C.ar    1  UNL1        0.0013
     29 C         -23.2479   51.6154   -8.8476 C.ar    1  UNL1       -0.0042
     30 C         -22.8750   51.7886  -10.1991 C.ar    1  UNL1       -0.0228
     31 C         -23.8520   51.5259  -11.1887 C.ar    1  UNL1       -0.0042
     32 C         -25.1364   51.1025  -10.8363 C.ar    1  UNL1        0.0013
     33 C         -21.4432   52.2502  -10.5405 C.3     1  UNL1        0.0189
     34 C         -20.7535   52.7723   -9.2616 C.3     1  UNL1        0.0044
     35 C         -20.5629   51.1173  -11.1211 C.3     1  UNL1        0.0044
     36 C         -21.5019   53.3822  -11.5895 C.3     1  UNL1        0.0044
     37 C         -28.1975   51.4044  -11.1354 C.3     1  UNL1        0.2371
     38 O         -28.8563   52.6328  -10.9974 O.3     1  UNL1       -0.3725
     39 H         -29.8115   52.4233  -10.8239 H       1  UNL1        0.2111
@<TRIPOS>BOND
     1    25    26    1
     2    26    18    1
     3    18    19   ar
     4    19    20   ar
     5    20    17    1
     6    17    11    1
     7    11    12    1
     8    12    13    1
     9    13    14    1
    10    14     1    1
    11     1     2   ar
    12     2     3   ar
    13     3     4   ar
    14     4     5   ar
    15     5     6   ar
    16     6    37    1
    17    37    38    1
    18     6     7   ar
    19     7    27    1
    20    27    28   ar
    21    28    29   ar
    22    29    30   ar
    23    30    33    1
    24    33    34    1
    25    33    35    1
    26    33    36    1
    27    30    31   ar
    28    31    32   ar
    29     7     8   ar
    30     8     9   ar
    31    14    15    1
    32    15    16    1
    33    20    21   ar
    34    21    22    1
    35    21    23   ar
    36    23    18   ar
    37    16    11    1
    38     9     1   ar
    39     9     5   ar
    40    32    27   ar
    41    38    39    1
    42    23    24    1
    43     8    10    1
@<TRIPOS>MOLECULE
*****
 39 43 0 0 0
SMALL
GASTEIGER

@<TRIPOS>ATOM
      1 C         -29.9899   49.9769   -8.2358 C.ar    1  UNL1        0.1317
      2 C         -31.2908   49.7966   -8.7427 C.ar    1  UNL1        0.0286
      3 C         -31.5839   50.1225  -10.0796 C.ar    1  UNL1        0.0777
      4 C         -30.5705   50.6240  -10.9082 C.ar    1  UNL1        0.2964
      5 N         -29.3270   50.7847  -10.3819 N.ar    1  UNL1       -0.1291
      6 C         -28.1801   51.1918  -10.9556 C.ar    1  UNL1        0.2547
      7 C         -27.1832   51.0919   -9.9857 C.ar    1  UNL1        0.1238
      8 N         -27.7105   50.6350   -8.8250 N.ar    1  UNL1       -0.2945
      9 C         -29.0189   50.4745   -9.1103 C.ar    1  UNL1        0.3119
     10 H         -27.2478   50.4609   -7.9736 H       1  UNL1        0.1718
     11 N         -28.5671   48.9502   -4.3902 N.3     1  UNL1       -0.2647
     12 C         -28.2748   50.2768   -4.9714 C.3     1  UNL1        0.0941
     13 C         -29.4147   50.7004   -5.8969 C.3     1  UNL1        0.1084
     14 N         -29.6644   49.6413   -6.8783 N.pl3   1  UNL1       -0.2988
     15 C         -29.8356   48.2712   -6.3896 C.3     1  UNL1        0.1084
     16 C         -28.6855   47.9212   -5.4420 C.3     1  UNL1        0.0941
     17 C         -27.6078   48.5678   -3.3301 C.3     1  UNL1        0.1199
     18 C         -29.2573   46.3406   -1.0477 C.ar    1  UNL1        0.1165
     19 N         -29.2171   47.5173   -1.7080 N.ar    1  UNL1       -0.2344
     20 C         -28.0934   47.4409   -2.4503 C.ar    1  UNL1        0.0878
     21 C         -27.4806   46.2190   -2.2271 C.ar    1  UNL1        0.0499
     22 C         -26.1873   45.7249   -2.7960 C.3     1  UNL1        0.0511
     23 N         -28.2106   45.5397   -1.3281 N.ar    1  UNL1       -0.3443
     24 H         -28.0034   44.6003   -0.9208 H       1  UNL1        0.1668
     25 C         -31.4021   45.1576   -0.6524 C.3     1  UNL1        0.0084
     26 C         -30.3036   46.0107   -0.0304 C.3     1  UNL1        0.0637
     27 C         -25.7442   51.3631  -10.1519 C.ar    1  UNL1        0.0213
     28 C         -24.9773   51.7478   -9.0474 C.ar    1  UNL1        0.0013
     29 C         -23.6148   52.0180   -9.1920 C.ar    1  UNL1       -0.0042
     30 C         -22.9829   51.9368  -10.4529 C.ar    1  UNL1       -0.0228
     31 C         -23.7792   51.5709  -11.5641 C.ar    1  UNL1       -0.0042
     32 C         -25.1405   51.2930  -11.4126 C.ar    1  UNL1        0.0013
     33 C         -21.4759   52.2451  -10.5704 C.3     1  UNL1        0.0189
     34 C         -20.7334   50.9899  -11.0773 C.3     1  UNL1        0.0044
     35 C         -21.1682   53.4023  -11.5510 C.3     1  UNL1        0.0044
     36 C         -20.9209   52.6445   -9.1856 C.3     1  UNL1        0.0044
     37 C         -28.0080   51.4545  -12.4278 C.3     1  UNL1        0.2371
     38 O         -28.7406   52.5888  -12.8002 O.3     1  UNL1       -0.3725
     39 H         -29.6952   52.3154  -12.8184 H       1  UNL1        0.2111
@<TRIPOS>BOND
     1    25    26    1
     2    26    18    1
     3    18    19   ar
     4    19    20   ar
     5    20    17    1
     6    17    11    1
     7    11    12    1
     8    12    13    1
     9    13    14    1
    10    14     1    1
    11     1     2   ar
    12     2     3   ar
    13     3     4   ar
    14     4     5   ar
    15     5     6   ar
    16     6    37    1
    17    37    38    1
    18     6     7   ar
    19     7    27    1
    20    27    28   ar
    21    28    29   ar
    22    29    30   ar
    23    30    33    1
    24    33    34    1
    25    33    35    1
    26    33    36    1
    27    30    31   ar
    28    31    32   ar
    29     7     8   ar
    30     8     9   ar
    31    14    15    1
    32    15    16    1
    33    20    21   ar
    34    21    22    1
    35    21    23   ar
    36    23    18   ar
    37    16    11    1
    38     9     1   ar
    39     9     5   ar
    40    32    27   ar
    41    38    39    1
    42    23    24    1
    43     8    10    1
@<TRIPOS>MOLECULE
*****
 39 43 0 0 0
SMALL
GASTEIGER

@<TRIPOS>ATOM
      1 C         -29.7609   47.9517   -8.8103 C.ar    1  UNL1        0.1317
      2 C         -31.0904   47.8749   -9.2667 C.ar    1  UNL1        0.0286
      3 C         -31.5771   48.8106  -10.1979 C.ar    1  UNL1        0.0777
      4 C         -30.7281   49.8190  -10.6744 C.ar    1  UNL1        0.2964
      5 N         -29.4509   49.8606  -10.2095 N.ar    1  UNL1       -0.1291
      6 C         -28.4293   50.6754  -10.5299 C.ar    1  UNL1        0.2547
      7 C         -27.3152   50.2278   -9.8208 C.ar    1  UNL1        0.1238
      8 N         -27.6475   49.1534   -9.0662 N.ar    1  UNL1       -0.2945
      9 C         -28.9590   48.9749   -9.3254 C.ar    1  UNL1        0.3119
     10 H         -27.0683   48.6267   -8.4692 H       1  UNL1        0.1718
     11 N         -28.6786   45.1253   -5.8595 N.3     1  UNL1       -0.2647
     12 C         -29.4890   44.7216   -7.0271 C.3     1  UNL1        0.0941
     13 C         -29.1279   45.5870   -8.2336 C.3     1  UNL1        0.1084
     14 N         -29.2387   47.0019   -7.8688 N.pl3   1  UNL1       -0.2988
     15 C         -28.5688   47.4564   -6.6481 C.3     1  UNL1        0.1084
     16 C         -28.9410   46.5297   -5.4879 C.3     1  UNL1        0.0941
     17 C         -28.8274   44.1999   -4.7141 C.3     1  UNL1        0.1199
     18 C         -29.2277   45.8868   -1.5701 C.ar    1  UNL1        0.1165
     19 N         -29.7696   45.3147   -2.6661 N.ar    1  UNL1       -0.2344
     20 C         -28.7056   44.8750   -3.3691 C.ar    1  UNL1        0.0878
     21 C         -27.5439   45.1861   -2.6820 C.ar    1  UNL1        0.0499
     22 C         -26.1314   44.9366   -3.1098 C.3     1  UNL1        0.0511
     23 N         -27.8811   45.8399   -1.5588 N.ar    1  UNL1       -0.3443
     24 H         -27.2382   46.2407   -0.8396 H       1  UNL1        0.1668
     25 C         -29.8721   48.1015   -0.6558 C.3     1  UNL1        0.0084
     26 C         -30.0408   46.5924   -0.5310 C.3     1  UNL1        0.0637
     27 C         -25.9414   50.7571   -9.8876 C.ar    1  UNL1        0.0213
     28 C         -25.3508   51.0022  -11.1315 C.ar    1  UNL1        0.0013
     29 C         -24.0460   51.4938  -11.2102 C.ar    1  UNL1       -0.0042
     30 C         -23.2821   51.7307  -10.0457 C.ar    1  UNL1       -0.0228
     31 C         -23.8863   51.4530   -8.7964 C.ar    1  UNL1       -0.0042
     32 C         -25.1955   50.9694   -8.7226 C.ar    1  UNL1        0.0013
     33 C         -21.8436   52.2724  -10.1759 C.3     1  UNL1        0.0189
     34 C         -21.8746   53.6472  -10.8779 C.3     1  UNL1        0.0044
     35 C         -21.1389   52.4566   -8.8104 C.3     1  UNL1        0.0044
     36 C         -20.9953   51.2892  -11.0119 C.3     1  UNL1        0.0044
     37 C         -28.4672   51.6992  -11.6328 C.3     1  UNL1        0.2371
     38 O         -29.1709   52.8336  -11.2085 O.3     1  UNL1       -0.3725
     39 H         -30.1331   52.5877  -11.2140 H       1  UNL1        0.2111
@<TRIPOS>BOND
     1    25    26    1
     2    26    18    1
     3    18    19   ar
     4    19    20   ar
     5    20    17    1
     6    17    11    1
     7    11    12    1
     8    12    13    1
     9    13    14    1
    10    14     1    1
    11     1     2   ar
    12     2     3   ar
    13     3     4   ar
    14     4     5   ar
    15     5     6   ar
    16     6    37    1
    17    37    38    1
    18     6     7   ar
    19     7    27    1
    20    27    28   ar
    21    28    29   ar
    22    29    30   ar
    23    30    33    1
    24    33    34    1
    25    33    35    1
    26    33    36    1
    27    30    31   ar
    28    31    32   ar
    29     7     8   ar
    30     8     9   ar
    31    14    15    1
    32    15    16    1
    33    20    21   ar
    34    21    22    1
    35    21    23   ar
    36    23    18   ar
    37    16    11    1
    38     9     1   ar
    39     9     5   ar
    40    32    27   ar
    41    38    39    1
    42    23    24    1
    43     8    10    1
@<TRIPOS>MOLECULE
*****
 39 43 0 0 0
SMALL
GASTEIGER

@<TRIPOS>ATOM
      1 C         -30.4529   49.8266  -10.1724 C.ar    1  UNL1        0.1317
      2 C         -31.5807   49.7926   -9.3306 C.ar    1  UNL1        0.0286
      3 C         -31.4639   50.1390   -7.9719 C.ar    1  UNL1        0.0777
      4 C         -30.2169   50.5243   -7.4605 C.ar    1  UNL1        0.2964
      5 N         -29.1511   50.5440   -8.3047 N.ar    1  UNL1       -0.1291
      6 C         -27.8750   50.9147   -8.0942 C.ar    1  UNL1        0.2547
      7 C         -27.2178   50.8222   -9.3206 C.ar    1  UNL1        0.1238
      8 N         -28.0771   50.3927  -10.2753 N.ar    1  UNL1       -0.2945
      9 C         -29.2370   50.2246   -9.6081 C.ar    1  UNL1        0.3119
     10 H         -27.8973   50.2393  -11.2310 H       1  UNL1        0.1718
     11 N         -30.3355   48.5587  -14.2031 N.3     1  UNL1       -0.2647
     12 C         -30.7192   47.6190  -13.1293 C.3     1  UNL1        0.0941
     13 C         -31.4056   48.3793  -11.9952 C.3     1  UNL1        0.1084
     14 N         -30.5498   49.4879  -11.5643 N.pl3   1  UNL1       -0.2988
     15 C         -30.0199   50.3916  -12.5880 C.3     1  UNL1        0.1084
     16 C         -29.3801   49.5704  -13.7102 C.3     1  UNL1        0.0941
     17 C         -29.8511   47.8683  -15.4192 C.3     1  UNL1        0.1199
     18 C         -27.9712   49.8055  -17.7865 C.ar    1  UNL1        0.1165
     19 N         -28.0338   48.8020  -16.8858 N.ar    1  UNL1       -0.2344
     20 C         -29.3194   48.8050  -16.4773 C.ar    1  UNL1        0.0878
     21 C         -30.0077   49.8063  -17.1423 C.ar    1  UNL1        0.0499
     22 C         -31.4393   50.2066  -16.9668 C.3     1  UNL1        0.0511
     23 N         -29.1464   50.4437  -17.9514 N.ar    1  UNL1       -0.3443
     24 H         -29.3407   51.2672  -18.5638 H       1  UNL1        0.1668
     25 C         -25.5819   49.2386  -18.1418 C.3     1  UNL1        0.0084
     26 C         -26.6987   50.2280  -18.4506 C.3     1  UNL1        0.0637
     27 C         -25.8200   51.1846   -9.6151 C.ar    1  UNL1        0.0213
     28 C         -25.4188   51.3875  -10.9395 C.ar    1  UNL1        0.0013
     29 C         -24.0951   51.7212  -11.2343 C.ar    1  UNL1       -0.0042
     30 C         -23.1252   51.8364  -10.2136 C.ar    1  UNL1       -0.0228
     31 C         -23.5427   51.6027   -8.8817 C.ar    1  UNL1       -0.0042
     32 C         -24.8705   51.2777   -8.5911 C.ar    1  UNL1        0.0013
     33 C         -21.6731   52.2049  -10.5814 C.3     1  UNL1        0.0189
     34 C         -20.9361   52.7068   -9.3209 C.3     1  UNL1        0.0044
     35 C         -20.8704   51.0112  -11.1523 C.3     1  UNL1        0.0044
     36 C         -21.6782   53.3199  -11.6500 C.3     1  UNL1        0.0044
     37 C         -27.3658   51.5389   -6.8226 C.3     1  UNL1        0.2371
     38 O         -27.9995   52.7692   -6.6064 O.3     1  UNL1       -0.3725
     39 H         -27.5962   53.4114   -7.2478 H       1  UNL1        0.2111
@<TRIPOS>BOND
     1    25    26    1
     2    26    18    1
     3    18    19   ar
     4    19    20   ar
     5    20    17    1
     6    17    11    1
     7    11    12    1
     8    12    13    1
     9    13    14    1
    10    14     1    1
    11     1     2   ar
    12     2     3   ar
    13     3     4   ar
    14     4     5   ar
    15     5     6   ar
    16     6    37    1
    17    37    38    1
    18     6     7   ar
    19     7    27    1
    20    27    28   ar
    21    28    29   ar
    22    29    30   ar
    23    30    33    1
    24    33    34    1
    25    33    35    1
    26    33    36    1
    27    30    31   ar
    28    31    32   ar
    29     7     8   ar
    30     8     9   ar
    31    14    15    1
    32    15    16    1
    33    20    21   ar
    34    21    22    1
    35    21    23   ar
    36    23    18   ar
    37    16    11    1
    38     9     1   ar
    39     9     5   ar
    40    32    27   ar
    41    38    39    1
    42    23    24    1
    43     8    10    1
