@<TRIPOS>MOLECULE
*****
 45 50 0 0 0
SMALL
GASTEIGER

@<TRIPOS>ATOM
      1 C          60.1726   85.7772    9.0484 C.ar    1  UNL1        0.1318
      2 C          59.8233   87.0546    8.5828 C.ar    1  UNL1        0.0356
      3 C          60.6163   88.1522    8.9210 C.ar    1  UNL1        0.0191
      4 C          61.7689   87.9752    9.7028 C.ar    1  UNL1        0.0702
      5 C          62.0813   86.6847   10.1488 C.ar    1  UNL1        0.1149
      6 N          61.2939   85.6307    9.8077 N.ar    1  UNL1       -0.2279
      7 C          58.5217   82.0096    9.2058 C.3     1  UNL1        0.0471
      8 C          57.4473   83.0902    8.9815 C.3     1  UNL1        0.0252
      9 C          58.0339   84.4838    9.2537 C.3     1  UNL1        0.0923
     10 N          59.3909   84.6180    8.7029 N.pl3   1  UNL1       -0.2932
     11 C          59.8641   83.6391    7.7141 C.3     1  UNL1        0.0923
     12 C          59.7410   82.2078    8.2624 C.3     1  UNL1        0.0252
     13 C          57.9179   80.6062    9.0533 C.3     1  UNL1        0.2054
     14 O          58.6093   79.6914    9.9012 O.3     1  UNL1       -0.4758
     15 C          61.4318   79.6564   10.2010 C.3     1  UNL1        0.0344
     16 C          60.5290   80.0248   11.3557 C.ar    1  UNL1        0.0183
     17 C          59.1259   80.0025   11.1704 C.ar    1  UNL1        0.1347
     18 C          58.2766   80.2897   12.2541 C.ar    1  UNL1        0.0366
     19 C          58.8056   80.6035   13.5020 C.ar    1  UNL1        0.0033
     20 C          60.1842   80.6575   13.6860 C.ar    1  UNL1        0.0063
     21 C          61.0641   80.3929   12.6221 C.ar    1  UNL1        0.0744
     22 C          62.5224   80.5230   12.8716 C.2     1  UNL1        0.3378
     23 O          63.0512   79.9218   13.8458 O.2     1  UNL1       -0.2451
     24 O          63.3153   81.3386   12.0691 O.3     1  UNL1       -0.4771
     25 H          64.3075   81.4378   12.2471 H       1  UNL1        0.2954
     26 N          62.5978   89.0841   10.0916 N.am    1  UNL1       -0.2766
     27 C          62.3888   89.8580   11.2822 C.2     1  UNL1        0.2839
     28 O          61.2370   89.9376   11.7876 O.2     1  UNL1       -0.2665
     29 H          63.3249   89.4138    9.4181 H       1  UNL1        0.1553
     30 C          63.4835   90.6372   11.8871 C.ar    1  UNL1        0.1946
     31 O          63.9482   91.7469   11.3404 O.2     1  UNL1       -0.4492
     32 C          64.9156   92.1968   12.1015 C.ar    1  UNL1        0.1452
     33 C          65.6883   93.3356   11.9021 C.ar    1  UNL1        0.0375
     34 C          66.6822   93.6330   12.8509 C.ar    1  UNL1        0.0031
     35 C          66.8884   92.7925   13.9784 C.ar    1  UNL1        0.0002
     36 C          66.0789   91.6430   14.1437 C.ar    1  UNL1        0.0028
     37 C          65.1022   91.3794   13.1829 C.ar    1  UNL1        0.0337
     38 C          64.1708   90.3657   13.0770 C.ar    1  UNL1        0.0202
     39 C          63.9603   89.2362   14.0396 C.3     1  UNL1        0.0345
     40 C          67.9422   93.1159   14.9734 C.ar    1  UNL1        0.0000
     41 C          68.6949   92.0910   15.5777 C.ar    1  UNL1        0.0000
     42 C          69.6873   92.3986   16.5136 C.ar    1  UNL1        0.0000
     43 C          69.9390   93.7287   16.8569 C.ar    1  UNL1        0.0000
     44 C          69.1991   94.7544   16.2647 C.ar    1  UNL1        0.0000
     45 C          68.2061   94.4528   15.3277 C.ar    1  UNL1        0.0000
@<TRIPOS>BOND
     1    15    16    1
     2    16    17   ar
     3    17    14    1
     4    14    13    1
     5    13     7    1
     6     7     8    1
     7     8     9    1
     8     9    10    1
     9    10     1    1
    10     1     2   ar
    11     2     3   ar
    12     3     4   ar
    13     4    26    1
    14    26    27   am
    15    27    28    2
    16    27    30    1
    17    30    31   ar
    18    31    32   ar
    19    32    33   ar
    20    33    34   ar
    21    34    35   ar
    22    35    40    1
    23    40    41   ar
    24    41    42   ar
    25    42    43   ar
    26    43    44   ar
    27    44    45   ar
    28    35    36   ar
    29    36    37   ar
    30    37    38   ar
    31    38    39    1
    32     4     5   ar
    33     5     6   ar
    34    10    11    1
    35    11    12    1
    36    17    18   ar
    37    18    19   ar
    38    19    20   ar
    39    20    21   ar
    40    21    22    1
    41    22    23    2
    42    22    24    1
    43    21    16   ar
    44    12     7    1
    45     6     1   ar
    46    38    30   ar
    47    37    32   ar
    48    45    40   ar
    49    26    29    1
    50    24    25    1
@<TRIPOS>MOLECULE
*****
 45 50 0 0 0
SMALL
GASTEIGER

@<TRIPOS>ATOM
      1 C          60.1827   86.1100   10.4690 C.ar    1  UNL1        0.1318
      2 C          58.8917   86.1391    9.9187 C.ar    1  UNL1        0.0356
      3 C          58.6453   86.9067    8.7794 C.ar    1  UNL1        0.0191
      4 C          59.6881   87.6264    8.1748 C.ar    1  UNL1        0.0702
      5 C          60.9613   87.5722    8.7563 C.ar    1  UNL1        0.1149
      6 N          61.1778   86.8186    9.8664 N.ar    1  UNL1       -0.2279
      7 C          62.1721   84.5783   13.7312 C.3     1  UNL1        0.0471
      8 C          60.7256   84.9733   14.0836 C.3     1  UNL1        0.0252
      9 C          60.1232   85.8313   12.9606 C.3     1  UNL1        0.0923
     10 N          60.4801   85.3133   11.6314 N.pl3   1  UNL1       -0.2932
     11 C          61.0073   83.9467   11.5116 C.3     1  UNL1        0.0923
     12 C          62.2380   83.7564   12.4136 C.3     1  UNL1        0.0252
     13 C          62.8257   83.8219   14.8964 C.3     1  UNL1        0.2054
     14 O          63.7655   84.6704   15.5527 O.3     1  UNL1       -0.4758
     15 C          64.2114   87.1294   14.2065 C.3     1  UNL1        0.0344
     16 C          63.6201   87.0971   15.5971 C.ar    1  UNL1        0.0183
     17 C          63.4404   85.8504   16.2428 C.ar    1  UNL1        0.1347
     18 C          62.9428   85.8138   17.5579 C.ar    1  UNL1        0.0366
     19 C          62.6186   86.9918   18.2234 C.ar    1  UNL1        0.0033
     20 C          62.7634   88.2203   17.5854 C.ar    1  UNL1        0.0063
     21 C          63.2419   88.2952   16.2657 C.ar    1  UNL1        0.0744
     22 C          63.3190   89.6325   15.6244 C.2     1  UNL1        0.3378
     23 O          64.0684   90.5224   16.1107 O.2     1  UNL1       -0.2451
     24 O          62.5390   89.9386   14.5127 O.3     1  UNL1       -0.4771
     25 H          62.5817   90.8549   14.0830 H       1  UNL1        0.2954
     26 N          59.4686   88.4468    7.0144 N.am    1  UNL1       -0.2766
     27 C          59.6970   89.8635    6.9837 C.2     1  UNL1        0.2839
     28 O          59.6325   90.5352    8.0483 O.2     1  UNL1       -0.2665
     29 H          59.0155   88.0087    6.1815 H       1  UNL1        0.1553
     30 C          59.9259   90.5717    5.7119 C.ar    1  UNL1        0.1946
     31 O          61.1382   90.8130    5.2446 O.2     1  UNL1       -0.4492
     32 C          61.0121   91.4608    4.1123 C.ar    1  UNL1        0.1452
     33 C          62.0296   91.9194    3.2828 C.ar    1  UNL1        0.0375
     34 C          61.6664   92.5980    2.1064 C.ar    1  UNL1        0.0031
     35 C          60.2994   92.8075    1.7783 C.ar    1  UNL1        0.0002
     36 C          59.2949   92.3235    2.6504 C.ar    1  UNL1        0.0028
     37 C          59.6921   91.6542    3.8083 C.ar    1  UNL1        0.0337
     38 C          58.9631   91.0694    4.8246 C.ar    1  UNL1        0.0202
     39 C          57.4697   90.9950    4.9299 C.3     1  UNL1        0.0345
     40 C          59.9276   93.5269    0.5335 C.ar    1  UNL1        0.0000
     41 C          60.9201   93.9643   -0.3641 C.ar    1  UNL1        0.0000
     42 C          60.5670   94.6406   -1.5360 C.ar    1  UNL1        0.0000
     43 C          59.2232   94.8882   -1.8247 C.ar    1  UNL1        0.0000
     44 C          58.2293   94.4597   -0.9422 C.ar    1  UNL1        0.0000
     45 C          58.5764   93.7822    0.2307 C.ar    1  UNL1        0.0000
@<TRIPOS>BOND
     1    15    16    1
     2    16    17   ar
     3    17    14    1
     4    14    13    1
     5    13     7    1
     6     7     8    1
     7     8     9    1
     8     9    10    1
     9    10     1    1
    10     1     2   ar
    11     2     3   ar
    12     3     4   ar
    13     4    26    1
    14    26    27   am
    15    27    28    2
    16    27    30    1
    17    30    31   ar
    18    31    32   ar
    19    32    33   ar
    20    33    34   ar
    21    34    35   ar
    22    35    40    1
    23    40    41   ar
    24    41    42   ar
    25    42    43   ar
    26    43    44   ar
    27    44    45   ar
    28    35    36   ar
    29    36    37   ar
    30    37    38   ar
    31    38    39    1
    32     4     5   ar
    33     5     6   ar
    34    10    11    1
    35    11    12    1
    36    17    18   ar
    37    18    19   ar
    38    19    20   ar
    39    20    21   ar
    40    21    22    1
    41    22    23    2
    42    22    24    1
    43    21    16   ar
    44    12     7    1
    45     6     1   ar
    46    38    30   ar
    47    37    32   ar
    48    45    40   ar
    49    26    29    1
    50    24    25    1
