@<TRIPOS>MOLECULE
*****
 48 53 0 0 0
SMALL
GASTEIGER

@<TRIPOS>ATOM
      1 O          63.7050   83.3246   10.3315 O.2     1  UNL1       -0.2701
      2 C          62.6478   83.9825   10.5358 C.2     1  UNL1        0.2483
      3 N          61.3803   83.4355   10.1392 N.am    1  UNL1       -0.2945
      4 H          60.5072   83.8495   10.5380 H       1  UNL1        0.1501
      5 C          62.7308   85.2959   11.2135 C.ar    1  UNL1        0.0808
      6 C          62.3268   86.4554   10.5305 C.ar    1  UNL1        0.0080
      7 C          62.4005   87.7064   11.1481 C.ar    1  UNL1        0.0148
      8 C          62.8642   87.8218   12.4671 C.ar    1  UNL1        0.0502
      9 C          63.2581   86.6639   13.1561 C.ar    1  UNL1        0.0443
     10 C          63.1882   85.4100   12.5409 C.ar    1  UNL1        0.1457
     11 F          63.5270   84.3111   13.2615 F       1  UNL1       -0.2040
     12 N          62.9517   89.1129   13.0997 N.pl3   1  UNL1       -0.3040
     13 C          62.6604   89.2683   14.5321 C.3     1  UNL1        0.1122
     14 C          63.8480   89.9387   15.2323 C.3     1  UNL1        0.1122
     15 N          64.3817   91.0547   14.4341 N.pl3   1  UNL1       -0.3040
     16 C          63.6729   91.4853   13.2205 C.3     1  UNL1        0.1122
     17 C          63.4081   90.2743   12.3185 C.3     1  UNL1        0.1122
     18 C          65.6316   91.6637   14.8108 C.ar    1  UNL1        0.0488
     19 C          65.7311   92.4089   15.9966 C.ar    1  UNL1        0.0154
     20 C          66.9473   92.9888   16.3668 C.ar    1  UNL1        0.0135
     21 C          68.0803   92.8278   15.5626 C.ar    1  UNL1        0.0683
     22 CL         69.5930   93.5722   16.0626 Cl      1  UNL1       -0.0814
     23 C          67.9933   92.0773   14.3784 C.ar    1  UNL1        0.0694
     24 CL         69.3959   91.8408   13.3443 Cl      1  UNL1       -0.0813
     25 C          66.7737   91.4983   14.0089 C.ar    1  UNL1        0.0268
     26 C          61.2793   82.2037    9.3521 C.3     1  UNL1        0.1535
     27 C          60.8848   81.0552   10.2444 C.2     1  UNL1        0.2443
     28 O          61.4768   79.9471   10.1299 O.2     1  UNL1       -0.2730
     29 N          59.9147   81.2611   11.2841 N.am    1  UNL1       -0.2825
     30 H          59.6319   82.2443   11.4988 H       1  UNL1        0.1549
     31 C          59.4412   80.2233   12.1571 C.ar    1  UNL1        0.0535
     32 C          59.4696   80.4240   13.5436 C.ar    1  UNL1        0.0353
     33 C          58.9915   79.4260   14.3960 C.ar    1  UNL1        0.1002
     34 N          58.4868   78.2737   13.8810 N.ar    1  UNL1       -0.2422
     35 C          58.4287   78.0585   12.5400 C.ar    1  UNL1        0.1002
     36 C          58.8977   79.0303   11.6524 C.ar    1  UNL1        0.0353
     37 C          60.2582   82.3856    8.2131 C.3     1  UNL1        0.0569
     38 C          59.3835   83.5883    8.4390 C.ar    1  UNL1       -0.0008
     39 C          58.0721   83.5392    8.9017 C.ar    1  UNL1        0.0682
     40 N          57.5164   84.7684    8.8846 N.ar    1  UNL1       -0.3522
     41 C          58.4589   85.5970    8.4058 C.ar    1  UNL1        0.0572
     42 C          58.3260   86.9666    8.1875 C.ar    1  UNL1        0.0170
     43 C          59.4245   87.6595    7.6559 C.ar    1  UNL1        0.0023
     44 C          60.6206   86.9775    7.3544 C.ar    1  UNL1        0.0115
     45 C          60.7358   85.5922    7.5790 C.ar    1  UNL1        0.0588
     46 CL         62.2545   84.7954    7.1979 Cl      1  UNL1       -0.0822
     47 C          59.6225   84.9202    8.1142 C.ar    1  UNL1        0.0237
     48 H          56.5419   85.0166    9.1666 H       1  UNL1        0.1660
@<TRIPOS>BOND
     1     1     2    2
     2     2     3   am
     3     3    26    1
     4    26    37    1
     5    37    38    1
     6    38    39   ar
     7    39    40   ar
     8    40    41   ar
     9    41    42   ar
    10    42    43   ar
    11    43    44   ar
    12    44    45   ar
    13    45    46    1
    14    45    47   ar
    15    26    27    1
    16    27    28    2
    17    27    29   am
    18    29    31    1
    19    31    32   ar
    20    32    33   ar
    21    33    34   ar
    22    34    35   ar
    23    35    36   ar
    24     2     5    1
    25     5     6   ar
    26     6     7   ar
    27     7     8   ar
    28     8    12    1
    29    12    13    1
    30    13    14    1
    31    14    15    1
    32    15    18    1
    33    18    19   ar
    34    19    20   ar
    35    20    21   ar
    36    21    22    1
    37    21    23   ar
    38    23    24    1
    39    23    25   ar
    40    15    16    1
    41    16    17    1
    42     8     9   ar
    43     9    10   ar
    44    10    11    1
    45    47    38   ar
    46    36    31   ar
    47    10     5   ar
    48    47    41   ar
    49    17    12    1
    50    25    18   ar
    51     3     4    1
    52    40    48    1
    53    29    30    1
@<TRIPOS>MOLECULE
*****
 48 53 0 0 0
SMALL
GASTEIGER

@<TRIPOS>ATOM
      1 O          60.9943   85.6602    7.4421 O.2     1  UNL1       -0.2701
      2 C          60.5825   86.0253    8.5775 C.2     1  UNL1        0.2483
      3 N          59.5728   85.2567    9.2504 N.am    1  UNL1       -0.2945
      4 H          59.4283   85.4042   10.2751 H       1  UNL1        0.1501
      5 C          61.1744   87.2245    9.2122 C.ar    1  UNL1        0.0808
      6 C          60.6841   88.4985    8.8795 C.ar    1  UNL1        0.0080
      7 C          61.2302   89.6450    9.4620 C.ar    1  UNL1        0.0148
      8 C          62.2667   89.5401   10.4016 C.ar    1  UNL1        0.0502
      9 C          62.7513   88.2680   10.7445 C.ar    1  UNL1        0.0443
     10 C          62.2091   87.1180   10.1620 C.ar    1  UNL1        0.1457
     11 F          62.6696   85.9060   10.5627 F       1  UNL1       -0.2040
     12 N          62.8380   90.7226   10.9931 N.pl3   1  UNL1       -0.3040
     13 C          62.5028   91.1097   12.3710 C.3     1  UNL1        0.1122
     14 C          63.7881   91.2732   13.1903 C.3     1  UNL1        0.1122
     15 N          64.8252   91.9857   12.4257 N.pl3   1  UNL1       -0.3040
     16 C          64.4930   92.5688   11.1179 C.3     1  UNL1        0.1122
     17 C          63.8235   91.5102   10.2341 C.3     1  UNL1        0.1122
     18 C          66.1718   92.0395   12.9342 C.ar    1  UNL1        0.0488
     19 C          67.2665   91.9757   12.0572 C.ar    1  UNL1        0.0154
     20 C          68.5720   92.0405   12.5509 C.ar    1  UNL1        0.0135
     21 C          68.8021   92.1757   13.9239 C.ar    1  UNL1        0.0683
     22 CL         70.4594   92.2545   14.5066 Cl      1  UNL1       -0.0814
     23 C          67.7137   92.2486   14.8089 C.ar    1  UNL1        0.0694
     24 CL         67.9581   92.4300   16.5409 Cl      1  UNL1       -0.0813
     25 C          66.4067   92.1824   14.3123 C.ar    1  UNL1        0.0268
     26 C          58.8777   84.1461    8.5943 C.3     1  UNL1        0.1535
     27 C          59.7766   82.9377    8.5412 C.2     1  UNL1        0.2443
     28 O          59.8155   82.2374    7.4926 O.2     1  UNL1       -0.2730
     29 N          60.6557   82.6545    9.6418 N.am    1  UNL1       -0.2825
     30 H          60.7668   83.3883   10.3780 H       1  UNL1        0.1549
     31 C          61.5175   81.5071    9.7061 C.ar    1  UNL1        0.0535
     32 C          62.8168   81.6496   10.2111 C.ar    1  UNL1        0.0353
     33 C          63.6518   80.5330   10.2946 C.ar    1  UNL1        0.1002
     34 N          63.1994   79.3125    9.9029 N.ar    1  UNL1       -0.2422
     35 C          61.9377   79.1400    9.4268 C.ar    1  UNL1        0.1002
     36 C          61.0707   80.2309    9.3254 C.ar    1  UNL1        0.0353
     37 C          57.5716   83.8222    9.3440 C.3     1  UNL1        0.0569
     38 C          57.8420   83.2803   10.7210 C.ar    1  UNL1       -0.0008
     39 C          58.0875   84.0612   11.8462 C.ar    1  UNL1        0.0682
     40 N          58.4119   83.2851   12.9010 N.ar    1  UNL1       -0.3522
     41 C          58.3849   82.0186   12.4543 C.ar    1  UNL1        0.0572
     42 C          58.6790   80.8730   13.1906 C.ar    1  UNL1        0.0170
     43 C          58.6170   79.6336   12.5352 C.ar    1  UNL1        0.0023
     44 C          58.2679   79.5641   11.1713 C.ar    1  UNL1        0.0115
     45 C          57.9767   80.7331   10.4422 C.ar    1  UNL1        0.0588
     46 CL         57.5340   80.5869    8.7483 Cl      1  UNL1       -0.0822
     47 C          58.0436   81.9627   11.1211 C.ar    1  UNL1        0.0237
     48 H          58.6560   83.6100   13.8630 H       1  UNL1        0.1660
@<TRIPOS>BOND
     1     1     2    2
     2     2     3   am
     3     3    26    1
     4    26    37    1
     5    37    38    1
     6    38    39   ar
     7    39    40   ar
     8    40    41   ar
     9    41    42   ar
    10    42    43   ar
    11    43    44   ar
    12    44    45   ar
    13    45    46    1
    14    45    47   ar
    15    26    27    1
    16    27    28    2
    17    27    29   am
    18    29    31    1
    19    31    32   ar
    20    32    33   ar
    21    33    34   ar
    22    34    35   ar
    23    35    36   ar
    24     2     5    1
    25     5     6   ar
    26     6     7   ar
    27     7     8   ar
    28     8    12    1
    29    12    13    1
    30    13    14    1
    31    14    15    1
    32    15    18    1
    33    18    19   ar
    34    19    20   ar
    35    20    21   ar
    36    21    22    1
    37    21    23   ar
    38    23    24    1
    39    23    25   ar
    40    15    16    1
    41    16    17    1
    42     8     9   ar
    43     9    10   ar
    44    10    11    1
    45    47    38   ar
    46    36    31   ar
    47    10     5   ar
    48    47    41   ar
    49    17    12    1
    50    25    18   ar
    51     3     4    1
    52    40    48    1
    53    29    30    1
@<TRIPOS>MOLECULE
*****
 48 53 0 0 0
SMALL
GASTEIGER

@<TRIPOS>ATOM
      1 O          64.3021   89.4486   15.6568 O.2     1  UNL1       -0.2701
      2 C          64.2902   88.9502   14.4977 C.2     1  UNL1        0.2483
      3 N          64.5108   89.7943   13.3567 N.am    1  UNL1       -0.2945
      4 H          64.7591   89.3504   12.4435 H       1  UNL1        0.1501
      5 C          64.0821   87.4934   14.3371 C.ar    1  UNL1        0.0808
      6 C          64.3414   86.6327   15.4169 C.ar    1  UNL1        0.0080
      7 C          64.1568   85.2539   15.2873 C.ar    1  UNL1        0.0148
      8 C          63.6935   84.7090   14.0804 C.ar    1  UNL1        0.0502
      9 C          63.4229   85.5675   13.0031 C.ar    1  UNL1        0.0443
     10 C          63.6085   86.9479   13.1278 C.ar    1  UNL1        0.1457
     11 F          63.2828   87.7462   12.0798 F       1  UNL1       -0.2040
     12 N          63.5148   83.2864   13.9428 N.pl3   1  UNL1       -0.3040
     13 C          62.9782   82.4864   15.0531 C.3     1  UNL1        0.1122
     14 C          61.7559   81.6933   14.5766 C.3     1  UNL1        0.1122
     15 N          61.9841   81.1024   13.2476 N.pl3   1  UNL1       -0.3040
     16 C          63.3167   81.1869   12.6330 C.3     1  UNL1        0.1122
     17 C          63.8044   82.6401   12.6521 C.3     1  UNL1        0.1122
     18 C          60.8808   80.5131   12.5331 C.ar    1  UNL1        0.0488
     19 C          60.0210   79.6067   13.1740 C.ar    1  UNL1        0.0154
     20 C          58.9440   79.0453   12.4831 C.ar    1  UNL1        0.0135
     21 C          58.7075   79.3851   11.1470 C.ar    1  UNL1        0.0683
     22 CL         57.3415   78.6581   10.3118 Cl      1  UNL1       -0.0814
     23 C          59.5571   80.2971   10.4992 C.ar    1  UNL1        0.0694
     24 CL         59.2892   80.7603    8.8241 Cl      1  UNL1       -0.0813
     25 C          60.6360   80.8574   11.1929 C.ar    1  UNL1        0.0268
     26 C          64.5881   91.2528   13.4743 C.3     1  UNL1        0.1535
     27 C          65.8087   91.7620   12.7521 C.2     1  UNL1        0.2443
     28 O          66.9430   91.6501   13.2928 O.2     1  UNL1       -0.2730
     29 N          65.6840   92.2737   11.4152 N.am    1  UNL1       -0.2825
     30 H          64.7760   92.1248   10.9192 H       1  UNL1        0.1549
     31 C          66.7767   92.8205   10.6599 C.ar    1  UNL1        0.0535
     32 C          66.7440   94.1687   10.2797 C.ar    1  UNL1        0.0353
     33 C          67.8133   94.7104    9.5626 C.ar    1  UNL1        0.1002
     34 N          68.8864   93.9366    9.2501 N.ar    1  UNL1       -0.2422
     35 C          68.9548   92.6307    9.6217 C.ar    1  UNL1        0.1002
     36 C          67.9061   92.0493   10.3388 C.ar    1  UNL1        0.0353
     37 C          63.3095   91.8981   12.9072 C.3     1  UNL1        0.0569
     38 C          62.8698   91.2312   11.6326 C.ar    1  UNL1       -0.0008
     39 C          63.2855   91.6045   10.3582 C.ar    1  UNL1        0.0682
     40 N          62.6260   90.8972    9.4176 N.ar    1  UNL1       -0.3522
     41 C          61.7873   90.0849   10.0817 C.ar    1  UNL1        0.0572
     42 C          60.8841   89.1858    9.5190 C.ar    1  UNL1        0.0170
     43 C          60.0719   88.4375   10.3849 C.ar    1  UNL1        0.0023
     44 C          60.1757   88.6018   11.7810 C.ar    1  UNL1        0.0115
     45 C          61.0925   89.5177   12.3320 C.ar    1  UNL1        0.0588
     46 CL         61.1895   89.6721   14.0793 Cl      1  UNL1       -0.0822
     47 C          61.8967   90.2544   11.4443 C.ar    1  UNL1        0.0237
     48 H          62.7333   90.9837    8.3824 H       1  UNL1        0.1660
@<TRIPOS>BOND
     1     1     2    2
     2     2     3   am
     3     3    26    1
     4    26    37    1
     5    37    38    1
     6    38    39   ar
     7    39    40   ar
     8    40    41   ar
     9    41    42   ar
    10    42    43   ar
    11    43    44   ar
    12    44    45   ar
    13    45    46    1
    14    45    47   ar
    15    26    27    1
    16    27    28    2
    17    27    29   am
    18    29    31    1
    19    31    32   ar
    20    32    33   ar
    21    33    34   ar
    22    34    35   ar
    23    35    36   ar
    24     2     5    1
    25     5     6   ar
    26     6     7   ar
    27     7     8   ar
    28     8    12    1
    29    12    13    1
    30    13    14    1
    31    14    15    1
    32    15    18    1
    33    18    19   ar
    34    19    20   ar
    35    20    21   ar
    36    21    22    1
    37    21    23   ar
    38    23    24    1
    39    23    25   ar
    40    15    16    1
    41    16    17    1
    42     8     9   ar
    43     9    10   ar
    44    10    11    1
    45    47    38   ar
    46    36    31   ar
    47    10     5   ar
    48    47    41   ar
    49    17    12    1
    50    25    18   ar
    51     3     4    1
    52    40    48    1
    53    29    30    1
