@<TRIPOS>MOLECULE
*****
 29 32 0 0 0
SMALL
GASTEIGER

@<TRIPOS>ATOM
      1 N          48.8823   10.1165  -22.4120 N.ar    1  UNL1       -0.3246
      2 C          49.7305    9.9731  -23.4650 C.ar    1  UNL1        0.0600
      3 C          50.8737    9.1696  -23.5544 C.ar    1  UNL1        0.0177
      4 C          51.5718    9.1418  -24.7752 C.ar    1  UNL1        0.0082
      5 C          51.1249    9.9030  -25.8776 C.ar    1  UNL1        0.0347
      6 BR         52.0710    9.8223  -27.5335 Br      1  UNL1       -0.0490
      7 C          49.9803   10.7115  -25.7668 C.ar    1  UNL1        0.0082
      8 C          49.3116   10.7268  -24.5448 C.ar    1  UNL1        0.0177
      9 C          48.1676   11.3774  -24.1450 C.ar    1  UNL1        0.0177
     10 C          47.3127   12.2406  -24.8271 C.ar    1  UNL1        0.0082
     11 C          46.1862   12.7261  -24.1390 C.ar    1  UNL1        0.0347
     12 BR         44.9764   13.9118  -25.0197 Br      1  UNL1       -0.0490
     13 C          45.9427   12.3382  -22.8024 C.ar    1  UNL1        0.0082
     14 C          46.8196   11.4600  -22.1402 C.ar    1  UNL1        0.0177
     15 C          47.9346   10.9897  -22.8406 C.ar    1  UNL1        0.0600
     16 C          48.9053    9.3972  -21.1323 C.3     1  UNL1        0.1365
     17 O          50.0976    9.0485  -19.0788 O.3     1  UNL1       -0.3811
     18 C          50.0528    9.8773  -20.2124 C.3     1  UNL1        0.1486
     19 H          50.5049    8.1887  -19.3639 H       1  UNL1        0.2105
     20 C          49.8819   11.3424  -19.7485 C.3     1  UNL1        0.1001
     21 N          51.1354   12.0961  -19.9157 N.3     1  UNL1       -0.2965
     22 H          51.7591   11.6120  -20.5975 H       1  UNL1        0.1233
     23 C          50.9091   13.4803  -20.3718 C.3     1  UNL1        0.0542
     24 C          51.8999   13.8025  -21.5183 C.3     1  UNL1        0.0185
     25 C          51.3005   13.4827  -22.8937 C.3     1  UNL1        0.0366
     26 C          50.0329   14.3189  -23.1767 C.3     1  UNL1        0.1611
     27 F          50.3709   15.4418  -23.9135 F       1  UNL1       -0.2373
     28 C          49.2977   14.7619  -21.8955 C.3     1  UNL1        0.0366
     29 C          49.4270   13.7113  -20.7896 C.3     1  UNL1        0.0185
@<TRIPOS>BOND
     1    17    18    1
     2    18    20    1
     3    20    21    1
     4    21    23    1
     5    23    24    1
     6    24    25    1
     7    25    26    1
     8    26    27    1
     9    26    28    1
    10    28    29    1
    11    18    16    1
    12    16     1    1
    13     1     2   ar
    14     2     3   ar
    15     3     4   ar
    16     4     5   ar
    17     5     6    1
    18     5     7   ar
    19     7     8   ar
    20     8     9   ar
    21     9    10   ar
    22    10    11   ar
    23    11    12    1
    24    11    13   ar
    25    13    14   ar
    26    14    15   ar
    27    29    23    1
    28    15     1   ar
    29     8     2   ar
    30    15     9   ar
    31    17    19    1
    32    21    22    1
@<TRIPOS>MOLECULE
*****
 29 32 0 0 0
SMALL
GASTEIGER

@<TRIPOS>ATOM
      1 N          48.6757   10.0207  -22.3594 N.ar    1  UNL1       -0.3246
      2 C          47.7796   10.9334  -22.8207 C.ar    1  UNL1        0.0600
      3 C          46.6715   11.4730  -22.1563 C.ar    1  UNL1        0.0177
      4 C          45.9107   12.4517  -22.8209 C.ar    1  UNL1        0.0082
      5 C          46.2620   12.8765  -24.1212 C.ar    1  UNL1        0.0347
      6 BR         45.2329   14.2300  -24.9886 Br      1  UNL1       -0.0490
      7 C          47.3725   12.3168  -24.7768 C.ar    1  UNL1        0.0082
      8 C          48.1045   11.3442  -24.0994 C.ar    1  UNL1        0.0177
      9 C          49.2372   10.6498  -24.4553 C.ar    1  UNL1        0.0177
     10 C          50.0134   10.6843  -25.6119 C.ar    1  UNL1        0.0082
     11 C          51.1518    9.8597  -25.6617 C.ar    1  UNL1        0.0347
     12 BR         52.2565    9.8628  -27.2188 Br      1  UNL1       -0.0490
     13 C          51.4844    9.0331  -24.5651 C.ar    1  UNL1        0.0082
     14 C          50.6859    9.0232  -23.4072 C.ar    1  UNL1        0.0177
     15 C          49.5577    9.8486  -23.3776 C.ar    1  UNL1        0.0600
     16 C          48.7548    9.4357  -21.0151 C.3     1  UNL1        0.1365
     17 O          50.0025    9.3284  -18.9678 O.3     1  UNL1       -0.3811
     18 C          49.9478    9.9940  -20.2038 C.3     1  UNL1        0.1486
     19 H          50.3707    8.4225  -19.1420 H       1  UNL1        0.2105
     20 C          49.8421   11.5146  -19.9434 C.3     1  UNL1        0.1001
     21 N          51.1294   12.1820  -20.1979 N.3     1  UNL1       -0.2965
     22 H          51.6996   11.6219  -20.8682 H       1  UNL1        0.1233
     23 C          50.9654   13.5471  -20.7316 C.3     1  UNL1        0.0542
     24 C          52.0339   13.7932  -21.8260 C.3     1  UNL1        0.0185
     25 C          51.5149   13.4203  -23.2205 C.3     1  UNL1        0.0366
     26 C          50.2880   14.2681  -23.6229 C.3     1  UNL1        0.1611
     27 F          50.6986   15.3471  -24.3880 F       1  UNL1       -0.2373
     28 C          49.4843   14.7874  -22.4135 C.3     1  UNL1        0.0366
     29 C          49.5185   13.7886  -21.2538 C.3     1  UNL1        0.0185
@<TRIPOS>BOND
     1    17    18    1
     2    18    20    1
     3    20    21    1
     4    21    23    1
     5    23    24    1
     6    24    25    1
     7    25    26    1
     8    26    27    1
     9    26    28    1
    10    28    29    1
    11    18    16    1
    12    16     1    1
    13     1     2   ar
    14     2     3   ar
    15     3     4   ar
    16     4     5   ar
    17     5     6    1
    18     5     7   ar
    19     7     8   ar
    20     8     9   ar
    21     9    10   ar
    22    10    11   ar
    23    11    12    1
    24    11    13   ar
    25    13    14   ar
    26    14    15   ar
    27    29    23    1
    28    15     1   ar
    29     8     2   ar
    30    15     9   ar
    31    17    19    1
    32    21    22    1
@<TRIPOS>MOLECULE
*****
 29 32 0 0 0
SMALL
GASTEIGER

@<TRIPOS>ATOM
      1 N          46.3058   13.6136  -24.4123 N.ar    1  UNL1       -0.3246
      2 C          46.5438   14.9513  -24.4621 C.ar    1  UNL1        0.0600
      3 C          46.7461   15.8364  -23.3962 C.ar    1  UNL1        0.0177
      4 C          47.0305   17.1812  -23.6947 C.ar    1  UNL1        0.0082
      5 C          47.1117   17.6196  -25.0347 C.ar    1  UNL1        0.0347
      6 BR         47.5318   19.4426  -25.4137 Br      1  UNL1       -0.0490
      7 C          46.8963   16.7189  -26.0923 C.ar    1  UNL1        0.0082
      8 C          46.6090   15.3946  -25.7693 C.ar    1  UNL1        0.0177
      9 C          46.3877   14.2946  -26.5648 C.ar    1  UNL1        0.0177
     10 C          46.3672   14.1489  -27.9503 C.ar    1  UNL1        0.0082
     11 C          46.1389   12.8623  -28.4705 C.ar    1  UNL1        0.0347
     12 BR         46.1001   12.5978  -30.3609 Br      1  UNL1       -0.0490
     13 C          45.9426   11.7647  -27.6027 C.ar    1  UNL1        0.0082
     14 C          45.9748   11.9398  -26.2074 C.ar    1  UNL1        0.0177
     15 C          46.2014   13.2267  -25.7098 C.ar    1  UNL1        0.0600
     16 C          46.2869   12.7455  -23.2283 C.3     1  UNL1        0.1365
     17 O          47.2712   10.7032  -22.4408 O.3     1  UNL1       -0.3811
     18 C          47.5798   11.9059  -23.0983 C.3     1  UNL1        0.1486
     19 H          46.8013   10.1254  -23.0980 H       1  UNL1        0.2105
     20 C          48.6937   12.6309  -22.3080 C.3     1  UNL1        0.1001
     21 N          50.0259   12.1991  -22.7618 N.3     1  UNL1       -0.2965
     22 H          49.9363   11.5155  -23.5446 H       1  UNL1        0.1233
     23 C          50.8681   13.3264  -23.2035 C.3     1  UNL1        0.0542
     24 C          51.1880   13.1578  -24.7099 C.3     1  UNL1        0.0185
     25 C          50.1542   13.8682  -25.5931 C.3     1  UNL1        0.0366
     26 C          50.1229   15.3901  -25.3307 C.3     1  UNL1        0.1611
     27 F          50.9228   16.0386  -26.2567 F       1  UNL1       -0.2373
     28 C          50.5879   15.7723  -23.9109 C.3     1  UNL1        0.0366
     29 C          50.2002   14.6980  -22.8915 C.3     1  UNL1        0.0185
@<TRIPOS>BOND
     1    17    18    1
     2    18    20    1
     3    20    21    1
     4    21    23    1
     5    23    24    1
     6    24    25    1
     7    25    26    1
     8    26    27    1
     9    26    28    1
    10    28    29    1
    11    18    16    1
    12    16     1    1
    13     1     2   ar
    14     2     3   ar
    15     3     4   ar
    16     4     5   ar
    17     5     6    1
    18     5     7   ar
    19     7     8   ar
    20     8     9   ar
    21     9    10   ar
    22    10    11   ar
    23    11    12    1
    24    11    13   ar
    25    13    14   ar
    26    14    15   ar
    27    29    23    1
    28    15     1   ar
    29     8     2   ar
    30    15     9   ar
    31    17    19    1
    32    21    22    1
@<TRIPOS>MOLECULE
*****
 29 32 0 0 0
SMALL
GASTEIGER

@<TRIPOS>ATOM
      1 N          46.2020   13.5570  -24.6190 N.ar    1  UNL1       -0.3246
      2 C          46.1780   13.1802  -25.9252 C.ar    1  UNL1        0.0600
      3 C          45.9347   11.9077  -26.4563 C.ar    1  UNL1        0.0177
      4 C          45.9080   11.7663  -27.8555 C.ar    1  UNL1        0.0082
      5 C          46.1183   12.8816  -28.6960 C.ar    1  UNL1        0.0347
      6 BR         46.0442   12.6697  -30.5916 Br      1  UNL1       -0.0490
      7 C          46.3706   14.1501  -28.1452 C.ar    1  UNL1        0.0082
      8 C          46.3991   14.2614  -26.7568 C.ar    1  UNL1        0.0177
      9 C          46.5837   15.3510  -25.9380 C.ar    1  UNL1        0.0177
     10 C          46.8135   16.6940  -26.2295 C.ar    1  UNL1        0.0082
     11 C          46.9310   17.5879  -25.1500 C.ar    1  UNL1        0.0347
     12 BR         47.2454   19.4410  -25.4845 Br      1  UNL1       -0.0490
     13 C          46.8135   17.1233  -23.8209 C.ar    1  UNL1        0.0082
     14 C          46.5751   15.7626  -23.5560 C.ar    1  UNL1        0.0177
     15 C          46.4629   14.8895  -24.6424 C.ar    1  UNL1        0.0600
     16 C          45.8931   12.7388  -23.4397 C.3     1  UNL1        0.1365
     17 O          46.6016   10.9190  -22.0447 O.3     1  UNL1       -0.3811
     18 C          46.9995   11.6989  -23.1435 C.3     1  UNL1        0.1486
     19 H          45.9084   10.2878  -22.3727 H       1  UNL1        0.2105
     20 C          48.3664   12.3465  -22.8223 C.3     1  UNL1        0.1001
     21 N          49.2734   12.2602  -23.9786 N.3     1  UNL1       -0.2965
     22 H          48.7377   12.3743  -24.8664 H       1  UNL1        0.1233
     23 C          50.3480   13.2694  -23.9339 C.3     1  UNL1        0.0542
     24 C          50.8281   13.5601  -25.3778 C.3     1  UNL1        0.0185
     25 C          50.0571   14.7265  -26.0088 C.3     1  UNL1        0.0366
     26 C          50.2549   16.0399  -25.2202 C.3     1  UNL1        0.1611
     27 F          51.2689   16.7833  -25.8009 F       1  UNL1       -0.2373
     28 C          50.5891   15.8115  -23.7321 C.3     1  UNL1        0.0366
     29 C          49.8918   14.5602  -23.1920 C.3     1  UNL1        0.0185
@<TRIPOS>BOND
     1    17    18    1
     2    18    20    1
     3    20    21    1
     4    21    23    1
     5    23    24    1
     6    24    25    1
     7    25    26    1
     8    26    27    1
     9    26    28    1
    10    28    29    1
    11    18    16    1
    12    16     1    1
    13     1     2   ar
    14     2     3   ar
    15     3     4   ar
    16     4     5   ar
    17     5     6    1
    18     5     7   ar
    19     7     8   ar
    20     8     9   ar
    21     9    10   ar
    22    10    11   ar
    23    11    12    1
    24    11    13   ar
    25    13    14   ar
    26    14    15   ar
    27    29    23    1
    28    15     1   ar
    29     8     2   ar
    30    15     9   ar
    31    17    19    1
    32    21    22    1
@<TRIPOS>MOLECULE
*****
 29 32 0 0 0
SMALL
GASTEIGER

@<TRIPOS>ATOM
      1 N          45.8745   14.5405  -27.0095 N.ar    1  UNL1       -0.3246
      2 C          46.0445   13.5394  -27.9138 C.ar    1  UNL1        0.0600
      3 C          45.9360   13.6029  -29.3083 C.ar    1  UNL1        0.0177
      4 C          46.2106   12.4392  -30.0492 C.ar    1  UNL1        0.0082
      5 C          46.5881   11.2438  -29.3987 C.ar    1  UNL1        0.0347
      6 BR         46.9876    9.6873  -30.4288 Br      1  UNL1       -0.0490
      7 C          46.6828   11.1960  -27.9969 C.ar    1  UNL1        0.0082
      8 C          46.3984   12.3601  -27.2865 C.ar    1  UNL1        0.0177
      9 C          46.4351   12.6319  -25.9387 C.ar    1  UNL1        0.0177
     10 C          46.7566   11.8298  -24.8457 C.ar    1  UNL1        0.0082
     11 C          46.7304   12.4204  -23.5695 C.ar    1  UNL1        0.0347
     12 BR         47.1621   11.3738  -22.0322 Br      1  UNL1       -0.0490
     13 C          46.3907   13.7836  -23.4193 C.ar    1  UNL1        0.0082
     14 C          46.0765   14.5715  -24.5414 C.ar    1  UNL1        0.0177
     15 C          46.1066   13.9658  -25.8012 C.ar    1  UNL1        0.0600
     16 C          45.6182   15.9614  -27.2763 C.3     1  UNL1        0.1365
     17 O          46.9785   17.1125  -28.8838 O.3     1  UNL1       -0.3811
     18 C          46.9231   16.7539  -27.5265 C.3     1  UNL1        0.1486
     19 H          46.3395   17.8619  -29.0124 H       1  UNL1        0.2105
     20 C          48.1954   15.9488  -27.1744 C.3     1  UNL1        0.1001
     21 N          48.8643   16.5143  -25.9912 N.3     1  UNL1       -0.2965
     22 H          48.2037   16.5466  -25.1845 H       1  UNL1        0.1233
     23 C          50.0639   15.7516  -25.5984 C.3     1  UNL1        0.0542
     24 C          50.4393   16.1163  -24.1403 C.3     1  UNL1        0.0185
     25 C          49.7752   15.1723  -23.1298 C.3     1  UNL1        0.0366
     26 C          50.2217   13.7075  -23.3322 C.3     1  UNL1        0.1611
     27 F          51.2664   13.4161  -22.4711 F       1  UNL1       -0.2373
     28 C          50.6622   13.4001  -24.7778 C.3     1  UNL1        0.0366
     29 C          49.8578   14.2201  -25.7898 C.3     1  UNL1        0.0185
@<TRIPOS>BOND
     1    17    18    1
     2    18    20    1
     3    20    21    1
     4    21    23    1
     5    23    24    1
     6    24    25    1
     7    25    26    1
     8    26    27    1
     9    26    28    1
    10    28    29    1
    11    18    16    1
    12    16     1    1
    13     1     2   ar
    14     2     3   ar
    15     3     4   ar
    16     4     5   ar
    17     5     6    1
    18     5     7   ar
    19     7     8   ar
    20     8     9   ar
    21     9    10   ar
    22    10    11   ar
    23    11    12    1
    24    11    13   ar
    25    13    14   ar
    26    14    15   ar
    27    29    23    1
    28    15     1   ar
    29     8     2   ar
    30    15     9   ar
    31    17    19    1
    32    21    22    1
@<TRIPOS>MOLECULE
*****
 29 32 0 0 0
SMALL
GASTEIGER

@<TRIPOS>ATOM
      1 N          45.9659   14.4183  -27.0839 N.ar    1  UNL1       -0.3246
      2 C          46.2332   13.8811  -25.8638 C.ar    1  UNL1        0.0600
      3 C          46.1500   14.4958  -24.6086 C.ar    1  UNL1        0.0177
      4 C          46.4269   13.7189  -23.4692 C.ar    1  UNL1        0.0082
      5 C          46.7755   12.3561  -23.5944 C.ar    1  UNL1        0.0347
      6 BR         47.1143   11.3149  -22.0308 Br      1  UNL1       -0.0490
      7 C          46.8634   11.7578  -24.8635 C.ar    1  UNL1        0.0082
      8 C          46.5915   12.5512  -25.9758 C.ar    1  UNL1        0.0177
      9 C          46.5618   12.2517  -27.3179 C.ar    1  UNL1        0.0177
     10 C          46.8051   11.0625  -28.0020 C.ar    1  UNL1        0.0082
     11 C          46.6607   11.0702  -29.4010 C.ar    1  UNL1        0.0347
     12 BR         46.9791    9.4716  -30.3951 Br      1  UNL1       -0.0490
     13 C          46.2775   12.2520  -30.0738 C.ar    1  UNL1        0.0082
     14 C          46.0321   13.4371  -29.3569 C.ar    1  UNL1        0.0177
     15 C          46.1826   13.4097  -27.9671 C.ar    1  UNL1        0.0600
     16 C          45.4391   15.7556  -27.3835 C.3     1  UNL1        0.1365
     17 O          46.4308   16.9544  -29.2109 O.3     1  UNL1       -0.3811
     18 C          46.5505   16.7356  -27.8282 C.3     1  UNL1        0.1486
     19 H          45.6559   17.5615  -29.3426 H       1  UNL1        0.2105
     20 C          47.9738   16.2094  -27.5313 C.3     1  UNL1        0.1001
     21 N          48.5024   16.7961  -26.2889 N.3     1  UNL1       -0.2965
     22 H          47.8104   16.6875  -25.5159 H       1  UNL1        0.1233
     23 C          49.7824   16.1914  -25.8751 C.3     1  UNL1        0.0542
     24 C          50.1146   16.6496  -24.4330 C.3     1  UNL1        0.0185
     25 C          49.5648   15.6727  -23.3858 C.3     1  UNL1        0.0366
     26 C          50.1771   14.2627  -23.5378 C.3     1  UNL1        0.1611
     27 F          51.2493   14.1251  -22.6721 F       1  UNL1       -0.2373
     28 C          50.6487   13.9559  -24.9736 C.3     1  UNL1        0.0366
     29 C          49.7541   14.6404  -26.0103 C.3     1  UNL1        0.0185
@<TRIPOS>BOND
     1    17    18    1
     2    18    20    1
     3    20    21    1
     4    21    23    1
     5    23    24    1
     6    24    25    1
     7    25    26    1
     8    26    27    1
     9    26    28    1
    10    28    29    1
    11    18    16    1
    12    16     1    1
    13     1     2   ar
    14     2     3   ar
    15     3     4   ar
    16     4     5   ar
    17     5     6    1
    18     5     7   ar
    19     7     8   ar
    20     8     9   ar
    21     9    10   ar
    22    10    11   ar
    23    11    12    1
    24    11    13   ar
    25    13    14   ar
    26    14    15   ar
    27    29    23    1
    28    15     1   ar
    29     8     2   ar
    30    15     9   ar
    31    17    19    1
    32    21    22    1
@<TRIPOS>MOLECULE
*****
 29 32 0 0 0
SMALL
GASTEIGER

@<TRIPOS>ATOM
      1 N          46.3024   13.5068  -24.3923 N.ar    1  UNL1       -0.3246
      2 C          46.2621   13.0912  -25.6863 C.ar    1  UNL1        0.0600
      3 C          45.9304   11.8236  -26.1800 C.ar    1  UNL1        0.0177
      4 C          45.9055   11.6398  -27.5743 C.ar    1  UNL1        0.0082
      5 C          46.2045   12.7092  -28.4469 C.ar    1  UNL1        0.0347
      6 BR         46.1314   12.4428  -30.3356 Br      1  UNL1       -0.0490
      7 C          46.5446   13.9729  -27.9333 C.ar    1  UNL1        0.0082
      8 C          46.5691   14.1262  -26.5488 C.ar    1  UNL1        0.0177
      9 C          46.8262   15.2250  -25.7625 C.ar    1  UNL1        0.0177
     10 C          47.1566   16.5375  -26.0933 C.ar    1  UNL1        0.0082
     11 C          47.3301   17.4545  -25.0411 C.ar    1  UNL1        0.0347
     12 BR         47.7827   19.2680  -25.4298 Br      1  UNL1       -0.0490
     13 C          47.1674   17.0425  -23.6994 C.ar    1  UNL1        0.0082
     14 C          46.8273   15.7120  -23.3948 C.ar    1  UNL1        0.0177
     15 C          46.6607   14.8152  -24.4545 C.ar    1  UNL1        0.0600
     16 C          45.9239   12.7516  -23.1914 C.3     1  UNL1        0.1365
     17 O          46.4248   10.8343  -21.8376 O.3     1  UNL1       -0.3811
     18 C          46.9680   11.6692  -22.8284 C.3     1  UNL1        0.1486
     19 H          45.7669   10.2410  -22.2867 H       1  UNL1        0.2105
     20 C          48.2954   12.2630  -22.3027 C.3     1  UNL1        0.1001
     21 N          49.3109   12.3039  -23.3678 N.3     1  UNL1       -0.2965
     22 H          50.2599   12.4391  -22.9563 H       1  UNL1        0.1233
     23 C          49.3162   11.0825  -24.1944 C.3     1  UNL1        0.0542
     24 C          49.6902   11.4592  -25.6498 C.3     1  UNL1        0.0185
     25 C          51.2025   11.3661  -25.8899 C.3     1  UNL1        0.0366
     26 C          51.7320    9.9317  -25.6704 C.3     1  UNL1        0.1611
     27 F          51.7970    9.2687  -26.8845 F       1  UNL1       -0.2373
     28 C          50.8688    9.1074  -24.6940 C.3     1  UNL1        0.0366
     29 C          50.2615    9.9949  -23.6044 C.3     1  UNL1        0.0185
@<TRIPOS>BOND
     1    17    18    1
     2    18    20    1
     3    20    21    1
     4    21    23    1
     5    23    24    1
     6    24    25    1
     7    25    26    1
     8    26    27    1
     9    26    28    1
    10    28    29    1
    11    18    16    1
    12    16     1    1
    13     1     2   ar
    14     2     3   ar
    15     3     4   ar
    16     4     5   ar
    17     5     6    1
    18     5     7   ar
    19     7     8   ar
    20     8     9   ar
    21     9    10   ar
    22    10    11   ar
    23    11    12    1
    24    11    13   ar
    25    13    14   ar
    26    14    15   ar
    27    29    23    1
    28    15     1   ar
    29     8     2   ar
    30    15     9   ar
    31    17    19    1
    32    21    22    1
@<TRIPOS>MOLECULE
*****
 29 32 0 0 0
SMALL
GASTEIGER

@<TRIPOS>ATOM
      1 N          49.6177   12.8481  -23.2952 N.ar    1  UNL1       -0.3246
      2 C          49.7415   14.0804  -23.8563 C.ar    1  UNL1        0.0600
      3 C          49.3806   15.3201  -23.3146 C.ar    1  UNL1        0.0177
      4 C          49.6547   16.4777  -24.0651 C.ar    1  UNL1        0.0082
      5 C          50.2799   16.3856  -25.3281 C.ar    1  UNL1        0.0347
      6 BR         50.6712   17.9737  -26.3122 Br      1  UNL1       -0.0490
      7 C          50.6268   15.1317  -25.8606 C.ar    1  UNL1        0.0082
      8 C          50.3377   14.0007  -25.1004 C.ar    1  UNL1        0.0177
      9 C          50.5806   12.6666  -25.3308 C.ar    1  UNL1        0.0177
     10 C          51.1833   12.0118  -26.4029 C.ar    1  UNL1        0.0082
     11 C          51.3144   10.6136  -26.3266 C.ar    1  UNL1        0.0347
     12 BR         52.1325    9.6589  -27.7634 Br      1  UNL1       -0.0490
     13 C          50.8484    9.9125  -25.1919 C.ar    1  UNL1        0.0082
     14 C          50.2494   10.6003  -24.1210 C.ar    1  UNL1        0.0177
     15 C          50.1267   11.9898  -24.2163 C.ar    1  UNL1        0.0600
     16 C          49.1523   12.5168  -21.9427 C.3     1  UNL1        0.1365
     17 O          47.2501   12.2765  -20.4993 O.3     1  UNL1       -0.3811
     18 C          47.6137   12.6140  -21.8137 C.3     1  UNL1        0.1486
     19 H          47.4823   13.0531  -19.9253 H       1  UNL1        0.2105
     20 C          46.8655   11.6778  -22.7907 C.3     1  UNL1        0.1001
     21 N          45.5663   12.2520  -23.1775 N.3     1  UNL1       -0.2965
     22 H          45.4503   13.1987  -22.7550 H       1  UNL1        0.1233
     23 C          45.4044   12.3563  -24.6397 C.3     1  UNL1        0.0542
     24 C          44.9588   13.7963  -24.9971 C.3     1  UNL1        0.0185
     25 C          46.1590   14.7076  -25.2840 C.3     1  UNL1        0.0366
     26 C          46.9870   14.2055  -26.4875 C.3     1  UNL1        0.1611
     27 F          46.5865   14.8669  -27.6365 F       1  UNL1       -0.2373
     28 C          46.8676   12.6851  -26.7162 C.3     1  UNL1        0.0366
     29 C          46.7014   11.9356  -25.3917 C.3     1  UNL1        0.0185
@<TRIPOS>BOND
     1    17    18    1
     2    18    20    1
     3    20    21    1
     4    21    23    1
     5    23    24    1
     6    24    25    1
     7    25    26    1
     8    26    27    1
     9    26    28    1
    10    28    29    1
    11    18    16    1
    12    16     1    1
    13     1     2   ar
    14     2     3   ar
    15     3     4   ar
    16     4     5   ar
    17     5     6    1
    18     5     7   ar
    19     7     8   ar
    20     8     9   ar
    21     9    10   ar
    22    10    11   ar
    23    11    12    1
    24    11    13   ar
    25    13    14   ar
    26    14    15   ar
    27    29    23    1
    28    15     1   ar
    29     8     2   ar
    30    15     9   ar
    31    17    19    1
    32    21    22    1
@<TRIPOS>MOLECULE
*****
 29 32 0 0 0
SMALL
GASTEIGER

@<TRIPOS>ATOM
      1 N          46.0530   13.6621  -24.3272 N.ar    1  UNL1       -0.3246
      2 C          46.4767   14.9449  -24.4815 C.ar    1  UNL1        0.0600
      3 C          46.6830   15.9148  -23.4929 C.ar    1  UNL1        0.0177
      4 C          47.1801   17.1699  -23.8878 C.ar    1  UNL1        0.0082
      5 C          47.4645   17.4372  -25.2451 C.ar    1  UNL1        0.0347
      6 BR         48.1697   19.1373  -25.7509 Br      1  UNL1       -0.0490
      7 C          47.2423   16.4544  -26.2254 C.ar    1  UNL1        0.0082
      8 C          46.7425   15.2226  -25.8088 C.ar    1  UNL1        0.0177
      9 C          46.4589   14.0745  -26.5110 C.ar    1  UNL1        0.0177
     10 C          46.5677   13.7735  -27.8671 C.ar    1  UNL1        0.0082
     11 C          46.2219   12.4741  -28.2796 C.ar    1  UNL1        0.0347
     12 BR         46.3506   12.0001  -30.1245 Br      1  UNL1       -0.0490
     13 C          45.7843   11.5173  -27.3366 C.ar    1  UNL1        0.0082
     14 C          45.6899   11.8470  -25.9724 C.ar    1  UNL1        0.0177
     15 C          46.0366   13.1442  -25.5824 C.ar    1  UNL1        0.0600
     16 C          45.7876   12.9458  -23.0734 C.3     1  UNL1        0.1365
     17 O          46.3194   10.9784  -21.8059 O.3     1  UNL1       -0.3811
     18 C          46.8182   11.8217  -22.8129 C.3     1  UNL1        0.1486
     19 H          45.6117   10.4183  -22.2206 H       1  UNL1        0.2105
     20 C          48.1988   12.3591  -22.3703 C.3     1  UNL1        0.1001
     21 N          49.1347   12.4019  -23.5059 N.3     1  UNL1       -0.2965
     22 H          50.0994   12.6138  -23.1703 H       1  UNL1        0.1233
     23 C          49.1587   11.1405  -24.2696 C.3     1  UNL1        0.0542
     24 C          49.5407   11.4471  -25.7393 C.3     1  UNL1        0.0185
     25 C          51.0556   11.3576  -25.9630 C.3     1  UNL1        0.0366
     26 C          51.5976    9.9417  -25.6673 C.3     1  UNL1        0.1611
     27 F          51.6790    9.2189  -26.8459 F       1  UNL1       -0.2373
     28 C          50.7348    9.1588  -24.6570 C.3     1  UNL1        0.0366
     29 C          50.1101   10.0938  -23.6183 C.3     1  UNL1        0.0185
@<TRIPOS>BOND
     1    17    18    1
     2    18    20    1
     3    20    21    1
     4    21    23    1
     5    23    24    1
     6    24    25    1
     7    25    26    1
     8    26    27    1
     9    26    28    1
    10    28    29    1
    11    18    16    1
    12    16     1    1
    13     1     2   ar
    14     2     3   ar
    15     3     4   ar
    16     4     5   ar
    17     5     6    1
    18     5     7   ar
    19     7     8   ar
    20     8     9   ar
    21     9    10   ar
    22    10    11   ar
    23    11    12    1
    24    11    13   ar
    25    13    14   ar
    26    14    15   ar
    27    29    23    1
    28    15     1   ar
    29     8     2   ar
    30    15     9   ar
    31    17    19    1
    32    21    22    1
