@<TRIPOS>MOLECULE
*****
 35 40 0 0 0
SMALL
GASTEIGER

@<TRIPOS>ATOM
      1 C         -25.3050   -7.6804  -13.7659 C.ar    1  UNL1        0.1095
      2 N         -26.4548   -7.3383  -14.3998 N.ar    1  UNL1       -0.1677
      3 N         -27.4275   -7.2959  -13.4973 N.ar    1  UNL1       -0.2319
      4 C         -28.8303   -7.0638  -13.8142 C.3     1  UNL1        0.1554
      5 C         -26.9156   -7.6399  -12.3059 C.ar    1  UNL1        0.1654
      6 N         -27.5939   -7.8137  -11.1465 N.ar    1  UNL1       -0.2050
      7 C         -26.8913   -8.2033  -10.0430 C.ar    1  UNL1        0.2014
      8 N         -25.5353   -8.3851  -10.1114 N.ar    1  UNL1       -0.2089
      9 C         -24.8422   -8.2161  -11.2782 C.ar    1  UNL1        0.1379
     10 C         -25.5770   -7.8639  -12.4147 C.ar    1  UNL1        0.0865
     11 C         -23.5687   -9.2959  -14.7698 C.ar    1  UNL1        0.0809
     12 C         -24.0818   -8.0348  -14.4968 C.ar    1  UNL1        0.0577
     13 C         -23.2641   -7.1535  -15.1730 C.ar    1  UNL1        0.1231
     14 N         -22.2959   -7.8423  -15.8056 N.ar    1  UNL1       -0.1676
     15 N         -22.4865   -9.1315  -15.5684 N.ar    1  UNL1       -0.2488
     16 C         -21.6476  -10.1695  -16.1597 C.3     1  UNL1        0.1537
     17 C         -25.9782  -14.3544  -13.2549 C.3     1  UNL1        0.0310
     18 C         -25.3667  -13.0395  -13.6374 C.ar    1  UNL1       -0.0218
     19 C         -25.7266  -12.4155  -14.8400 C.ar    1  UNL1       -0.0042
     20 C         -25.1351  -11.2050  -15.2108 C.ar    1  UNL1        0.0012
     21 C         -24.1703  -10.5992  -14.3875 C.ar    1  UNL1        0.0174
     22 C         -23.7878  -11.2474  -13.2014 C.ar    1  UNL1        0.0012
     23 C         -24.3798  -12.4576  -12.8301 C.ar    1  UNL1       -0.0042
     24 N         -23.4087   -8.2696  -11.2716 N.pl3   1  UNL1       -0.2917
     25 C         -22.5976   -7.0641  -11.2037 C.3     1  UNL1        0.0936
     26 C         -21.1639   -7.5569  -11.0079 C.3     1  UNL1        0.0362
     27 C         -20.4732   -7.7247  -12.3764 C.3     1  UNL1        0.0032
     28 C         -21.3427   -8.8946  -10.2491 C.3     1  UNL1        0.0789
     29 C         -22.6768   -9.4338  -10.7930 C.3     1  UNL1        0.1081
     30 N         -20.1944   -9.8305  -10.4112 N.3     1  UNL1       -0.2723
     31 C         -19.3453   -9.8027   -9.1939 C.3     1  UNL1        0.0721
     32 C         -18.0916  -10.6594   -9.3928 C.3     1  UNL1        0.0174
     33 C         -18.4810  -12.1044   -9.7040 C.3     1  UNL1        0.0029
     34 C         -19.4534  -12.1523  -10.8827 C.3     1  UNL1        0.0174
     35 C         -20.6503  -11.2249  -10.6388 C.3     1  UNL1        0.0721
@<TRIPOS>BOND
     1    17    18    1
     2    18    19   ar
     3    19    20   ar
     4    20    21   ar
     5    21    11    1
     6    11    12   ar
     7    12     1    1
     8     1     2   ar
     9     2     3   ar
    10     3     4    1
    11     3     5   ar
    12     5     6   ar
    13     6     7   ar
    14     7     8   ar
    15     8     9   ar
    16     9    24    1
    17    24    25    1
    18    25    26    1
    19    26    27    1
    20    26    28    1
    21    28    30    1
    22    30    31    1
    23    31    32    1
    24    32    33    1
    25    33    34    1
    26    34    35    1
    27    28    29    1
    28     9    10   ar
    29    12    13   ar
    30    13    14   ar
    31    14    15   ar
    32    15    16    1
    33    21    22   ar
    34    22    23   ar
    35    23    18   ar
    36    15    11   ar
    37    10     1   ar
    38    10     5   ar
    39    29    24    1
    40    35    30    1
@<TRIPOS>MOLECULE
*****
 35 40 0 0 0
SMALL
GASTEIGER

@<TRIPOS>ATOM
      1 C         -21.8298   -7.5244  -11.9990 C.ar    1  UNL1        0.1095
      2 N         -21.5744   -6.3109  -11.4483 N.ar    1  UNL1       -0.1677
      3 N         -21.8640   -6.3750  -10.1542 N.ar    1  UNL1       -0.2319
      4 C         -21.8164   -5.2370   -9.2461 C.3     1  UNL1        0.1554
      5 C         -22.3317   -7.6033   -9.8849 C.ar    1  UNL1        0.1654
      6 N         -22.8287   -8.0460   -8.7053 N.ar    1  UNL1       -0.2050
      7 C         -23.2921   -9.3285   -8.6439 C.ar    1  UNL1        0.2014
      8 N         -23.2275  -10.1437   -9.7429 N.ar    1  UNL1       -0.2089
      9 C         -22.7313   -9.7047  -10.9392 C.ar    1  UNL1        0.1379
     10 C         -22.3034   -8.3750  -11.0063 C.ar    1  UNL1        0.0865
     11 C         -22.9170   -7.8515  -14.3105 C.ar    1  UNL1        0.0809
     12 C         -21.8319   -7.7419  -13.4511 C.ar    1  UNL1        0.0577
     13 C         -20.7186   -7.7510  -14.2654 C.ar    1  UNL1        0.1231
     14 N         -21.1075   -7.8789  -15.5478 N.ar    1  UNL1       -0.1676
     15 N         -22.4309   -7.9305  -15.5728 N.ar    1  UNL1       -0.2488
     16 C         -23.1889   -8.0051  -16.8181 C.3     1  UNL1        0.1537
     17 C         -28.5444   -7.4841  -12.9368 C.3     1  UNL1        0.0310
     18 C         -27.0943   -7.5795  -13.3075 C.ar    1  UNL1       -0.0218
     19 C         -26.4489   -8.8237  -13.3237 C.ar    1  UNL1       -0.0042
     20 C         -25.0906   -8.9094  -13.6402 C.ar    1  UNL1        0.0012
     21 C         -24.3527   -7.7518  -13.9422 C.ar    1  UNL1        0.0174
     22 C         -24.9965   -6.5044  -13.8891 C.ar    1  UNL1        0.0012
     23 C         -26.3551   -6.4187  -13.5733 C.ar    1  UNL1       -0.0042
     24 N         -22.5433  -10.6316  -12.0178 N.pl3   1  UNL1       -0.2917
     25 C         -21.2652  -11.2852  -12.2521 C.3     1  UNL1        0.0936
     26 C         -21.5413  -12.3276  -13.3354 C.3     1  UNL1        0.0362
     27 C         -21.2791  -11.7212  -14.7289 C.3     1  UNL1        0.0032
     28 C         -23.0257  -12.7027  -13.1052 C.3     1  UNL1        0.0789
     29 C         -23.6453  -11.3926  -12.5894 C.3     1  UNL1        0.1081
     30 N         -23.6948  -13.2598  -14.3146 N.3     1  UNL1       -0.2723
     31 C         -23.0164  -14.5114  -14.7349 C.3     1  UNL1        0.0721
     32 C         -23.6076  -15.0284  -16.0496 C.3     1  UNL1        0.0174
     33 C         -25.1042  -15.2947  -15.8892 C.3     1  UNL1        0.0029
     34 C         -25.8105  -14.0543  -15.3416 C.3     1  UNL1        0.0174
     35 C         -25.1265  -13.5594  -14.0612 C.3     1  UNL1        0.0721
@<TRIPOS>BOND
     1    17    18    1
     2    18    19   ar
     3    19    20   ar
     4    20    21   ar
     5    21    11    1
     6    11    12   ar
     7    12     1    1
     8     1     2   ar
     9     2     3   ar
    10     3     4    1
    11     3     5   ar
    12     5     6   ar
    13     6     7   ar
    14     7     8   ar
    15     8     9   ar
    16     9    24    1
    17    24    25    1
    18    25    26    1
    19    26    27    1
    20    26    28    1
    21    28    30    1
    22    30    31    1
    23    31    32    1
    24    32    33    1
    25    33    34    1
    26    34    35    1
    27    28    29    1
    28     9    10   ar
    29    12    13   ar
    30    13    14   ar
    31    14    15   ar
    32    15    16    1
    33    21    22   ar
    34    22    23   ar
    35    23    18   ar
    36    15    11   ar
    37    10     1   ar
    38    10     5   ar
    39    29    24    1
    40    35    30    1
@<TRIPOS>MOLECULE
*****
 35 40 0 0 0
SMALL
GASTEIGER

@<TRIPOS>ATOM
      1 C         -23.6799  -10.0568  -13.6894 C.ar    1  UNL1        0.1095
      2 N         -24.2451  -10.9610  -14.5283 N.ar    1  UNL1       -0.1677
      3 N         -23.7617  -10.7526  -15.7471 N.ar    1  UNL1       -0.2319
      4 C         -24.2093  -11.4609  -16.9387 C.3     1  UNL1        0.1554
      5 C         -22.9236   -9.7063  -15.6975 C.ar    1  UNL1        0.1654
      6 N         -22.2986   -9.1119  -16.7418 N.ar    1  UNL1       -0.2050
      7 C         -21.5086   -8.0286  -16.4861 C.ar    1  UNL1        0.2014
      8 N         -21.3393   -7.5799  -15.2029 N.ar    1  UNL1       -0.2089
      9 C         -21.9691   -8.1706  -14.1425 C.ar    1  UNL1        0.1379
     10 C         -22.8144   -9.2497  -14.4194 C.ar    1  UNL1        0.0865
     11 C         -25.1207   -8.9774  -11.8478 C.ar    1  UNL1        0.0809
     12 C         -24.1546   -9.8591  -12.3140 C.ar    1  UNL1        0.0577
     13 C         -23.8038  -10.6269  -11.2231 C.ar    1  UNL1        0.1231
     14 N         -24.5055  -10.2192  -10.1491 N.ar    1  UNL1       -0.1676
     15 N         -25.3032   -9.2325  -10.5296 N.ar    1  UNL1       -0.2488
     16 C         -26.2533   -8.5981   -9.6209 C.3     1  UNL1        0.1537
     17 C         -28.2571   -5.2256  -14.9745 C.3     1  UNL1        0.0310
     18 C         -27.4528   -6.1887  -14.1530 C.ar    1  UNL1       -0.0218
     19 C         -26.1224   -5.8963  -13.8217 C.ar    1  UNL1       -0.0042
     20 C         -25.3637   -6.8068  -13.0815 C.ar    1  UNL1        0.0012
     21 C         -25.9207   -8.0275  -12.6628 C.ar    1  UNL1        0.0174
     22 C         -27.2427   -8.3303  -13.0286 C.ar    1  UNL1        0.0012
     23 C         -28.0019   -7.4195  -13.7683 C.ar    1  UNL1       -0.0042
     24 N         -21.6474   -7.7654  -12.8045 N.pl3   1  UNL1       -0.2917
     25 C         -22.4861   -6.8370  -12.0628 C.3     1  UNL1        0.0936
     26 C         -21.9226   -6.8361  -10.6419 C.3     1  UNL1        0.0362
     27 C         -20.8705   -5.7183  -10.4935 C.3     1  UNL1        0.0032
     28 C         -21.3261   -8.2566  -10.4894 C.3     1  UNL1        0.0789
     29 C         -20.8491   -8.5941  -11.9124 C.3     1  UNL1        0.1081
     30 N         -20.2613   -8.3482   -9.4508 N.3     1  UNL1       -0.2723
     31 C         -20.8594   -8.1977   -8.1006 C.3     1  UNL1        0.0721
     32 C         -19.7660   -8.1595   -7.0290 C.3     1  UNL1        0.0174
     33 C         -18.9356   -9.4421   -7.0733 C.3     1  UNL1        0.0029
     34 C         -18.4052   -9.6850   -8.4865 C.3     1  UNL1        0.0174
     35 C         -19.5468   -9.6481   -9.5099 C.3     1  UNL1        0.0721
@<TRIPOS>BOND
     1    17    18    1
     2    18    19   ar
     3    19    20   ar
     4    20    21   ar
     5    21    11    1
     6    11    12   ar
     7    12     1    1
     8     1     2   ar
     9     2     3   ar
    10     3     4    1
    11     3     5   ar
    12     5     6   ar
    13     6     7   ar
    14     7     8   ar
    15     8     9   ar
    16     9    24    1
    17    24    25    1
    18    25    26    1
    19    26    27    1
    20    26    28    1
    21    28    30    1
    22    30    31    1
    23    31    32    1
    24    32    33    1
    25    33    34    1
    26    34    35    1
    27    28    29    1
    28     9    10   ar
    29    12    13   ar
    30    13    14   ar
    31    14    15   ar
    32    15    16    1
    33    21    22   ar
    34    22    23   ar
    35    23    18   ar
    36    15    11   ar
    37    10     1   ar
    38    10     5   ar
    39    29    24    1
    40    35    30    1
@<TRIPOS>MOLECULE
*****
 35 40 0 0 0
SMALL
GASTEIGER

@<TRIPOS>ATOM
      1 C         -25.1230   -8.9770  -11.2504 C.ar    1  UNL1        0.1095
      2 N         -25.7908   -8.6670  -10.1107 N.ar    1  UNL1       -0.1677
      3 N         -26.6880   -7.7318  -10.3987 N.ar    1  UNL1       -0.2319
      4 C         -27.5281   -7.0694   -9.4100 C.3     1  UNL1        0.1554
      5 C         -26.5739   -7.4210  -11.6988 C.ar    1  UNL1        0.1654
      6 N         -27.2377   -6.4467  -12.3656 N.ar    1  UNL1       -0.2050
      7 C         -26.9517   -6.2632  -13.6876 C.ar    1  UNL1        0.2014
      8 N         -26.0369   -7.0644  -14.3181 N.ar    1  UNL1       -0.2089
      9 C         -25.3586   -8.0479  -13.6526 C.ar    1  UNL1        0.1379
     10 C         -25.6225   -8.1971  -12.2874 C.ar    1  UNL1        0.0865
     11 C         -22.5855   -9.4127  -11.1908 C.ar    1  UNL1        0.0809
     12 C         -23.9144   -9.8110  -11.2491 C.ar    1  UNL1        0.0577
     13 C         -23.8867  -11.1881  -11.1764 C.ar    1  UNL1        0.1231
     14 N         -22.6084  -11.6029  -11.0981 N.ar    1  UNL1       -0.1676
     15 N         -21.8281  -10.5325  -11.0983 N.ar    1  UNL1       -0.2488
     16 C         -20.3776  -10.6201  -10.9596 C.3     1  UNL1        0.1537
     17 C         -20.6830   -3.9414  -10.8254 C.3     1  UNL1        0.0310
     18 C         -21.1888   -5.3497  -10.9255 C.ar    1  UNL1       -0.0218
     19 C         -21.7501   -5.9806   -9.8066 C.ar    1  UNL1       -0.0042
     20 C         -22.1943   -7.3028   -9.8917 C.ar    1  UNL1        0.0012
     21 C         -22.0815   -8.0186  -11.0961 C.ar    1  UNL1        0.0174
     22 C         -21.4854   -7.3927  -12.2034 C.ar    1  UNL1        0.0012
     23 C         -21.0417   -6.0702  -12.1186 C.ar    1  UNL1       -0.0042
     24 N         -24.5237   -8.9586  -14.3817 N.pl3   1  UNL1       -0.2917
     25 C         -23.1581   -8.6189  -14.7493 C.3     1  UNL1        0.0936
     26 C         -22.5624   -9.9091  -15.3124 C.3     1  UNL1        0.0362
     27 C         -22.7667   -9.9604  -16.8401 C.3     1  UNL1        0.0032
     28 C         -23.3321  -11.0209  -14.5584 C.3     1  UNL1        0.0789
     29 C         -24.7221  -10.4004  -14.3367 C.3     1  UNL1        0.1081
     30 N         -23.3536  -12.3253  -15.2788 N.3     1  UNL1       -0.2723
     31 C         -22.2224  -13.1717  -14.8235 C.3     1  UNL1        0.0721
     32 C         -22.1520  -14.4626  -15.6445 C.3     1  UNL1        0.0174
     33 C         -23.4564  -15.2480  -15.5100 C.3     1  UNL1        0.0029
     34 C         -24.6513  -14.3604  -15.8588 C.3     1  UNL1        0.0174
     35 C         -24.6209  -13.0618  -15.0434 C.3     1  UNL1        0.0721
@<TRIPOS>BOND
     1    17    18    1
     2    18    19   ar
     3    19    20   ar
     4    20    21   ar
     5    21    11    1
     6    11    12   ar
     7    12     1    1
     8     1     2   ar
     9     2     3   ar
    10     3     4    1
    11     3     5   ar
    12     5     6   ar
    13     6     7   ar
    14     7     8   ar
    15     8     9   ar
    16     9    24    1
    17    24    25    1
    18    25    26    1
    19    26    27    1
    20    26    28    1
    21    28    30    1
    22    30    31    1
    23    31    32    1
    24    32    33    1
    25    33    34    1
    26    34    35    1
    27    28    29    1
    28     9    10   ar
    29    12    13   ar
    30    13    14   ar
    31    14    15   ar
    32    15    16    1
    33    21    22   ar
    34    22    23   ar
    35    23    18   ar
    36    15    11   ar
    37    10     1   ar
    38    10     5   ar
    39    29    24    1
    40    35    30    1
@<TRIPOS>MOLECULE
*****
 35 40 0 0 0
SMALL
GASTEIGER

@<TRIPOS>ATOM
      1 C         -22.1530  -11.7726  -14.0393 C.ar    1  UNL1        0.1095
      2 N         -21.3806  -12.4242  -14.9449 N.ar    1  UNL1       -0.1677
      3 N         -22.0307  -13.5143  -15.3342 N.ar    1  UNL1       -0.2319
      4 C         -21.4768  -14.5247  -16.2254 C.3     1  UNL1        0.1554
      5 C         -23.1897  -13.5796  -14.6617 C.ar    1  UNL1        0.1654
      6 N         -24.0966  -14.5850  -14.6957 N.ar    1  UNL1       -0.2050
      7 C         -25.2037  -14.4789  -13.9043 C.ar    1  UNL1        0.2014
      8 N         -25.3945  -13.3710  -13.1217 N.ar    1  UNL1       -0.2089
      9 C         -24.4827  -12.3527  -13.0775 C.ar    1  UNL1        0.1379
     10 C         -23.3285  -12.4918  -13.8546 C.ar    1  UNL1        0.0865
     11 C         -21.6573   -9.2944  -13.5441 C.ar    1  UNL1        0.0809
     12 C         -21.6468  -10.6493  -13.2405 C.ar    1  UNL1        0.0577
     13 C         -21.1689  -10.7306  -11.9492 C.ar    1  UNL1        0.1231
     14 N         -20.8865   -9.4929  -11.5015 N.ar    1  UNL1       -0.1676
     15 N         -21.1894   -8.6301  -12.4598 N.ar    1  UNL1       -0.2488
     16 C         -21.0643   -7.1865  -12.2829 C.3     1  UNL1        0.1537
     17 C         -23.8934   -6.8740  -18.3223 C.3     1  UNL1        0.0310
     18 C         -23.3267   -7.5113  -17.0886 C.ar    1  UNL1       -0.0218
     19 C         -23.7356   -7.0808  -15.8188 C.ar    1  UNL1       -0.0042
     20 C         -23.1858   -7.6540  -14.6691 C.ar    1  UNL1        0.0012
     21 C         -22.2145   -8.6650  -14.7690 C.ar    1  UNL1        0.0174
     22 C         -21.7828   -9.0668  -16.0439 C.ar    1  UNL1        0.0012
     23 C         -22.3330   -8.4942  -17.1938 C.ar    1  UNL1       -0.0042
     24 N         -24.7920  -11.1476  -12.3632 N.pl3   1  UNL1       -0.2917
     25 C         -24.1652  -10.8297  -11.0897 C.3     1  UNL1        0.0936
     26 C         -24.5967   -9.3969  -10.7779 C.3     1  UNL1        0.0362
     27 C         -25.8862   -9.4074   -9.9323 C.3     1  UNL1        0.0032
     28 C         -24.7931   -8.7664  -12.1783 C.3     1  UNL1        0.0789
     29 C         -25.2772   -9.9497  -13.0337 C.3     1  UNL1        0.1081
     30 N         -25.7134   -7.5942  -12.1810 N.3     1  UNL1       -0.2723
     31 C         -24.9280   -6.3365  -12.2504 C.3     1  UNL1        0.0721
     32 C         -25.8490   -5.1196  -12.1238 C.3     1  UNL1        0.0174
     33 C         -26.8921   -5.1258  -13.2412 C.3     1  UNL1        0.0029
     34 C         -27.6359   -6.4612  -13.2684 C.3     1  UNL1        0.0174
     35 C         -26.6483   -7.6328  -13.3335 C.3     1  UNL1        0.0721
@<TRIPOS>BOND
     1    17    18    1
     2    18    19   ar
     3    19    20   ar
     4    20    21   ar
     5    21    11    1
     6    11    12   ar
     7    12     1    1
     8     1     2   ar
     9     2     3   ar
    10     3     4    1
    11     3     5   ar
    12     5     6   ar
    13     6     7   ar
    14     7     8   ar
    15     8     9   ar
    16     9    24    1
    17    24    25    1
    18    25    26    1
    19    26    27    1
    20    26    28    1
    21    28    30    1
    22    30    31    1
    23    31    32    1
    24    32    33    1
    25    33    34    1
    26    34    35    1
    27    28    29    1
    28     9    10   ar
    29    12    13   ar
    30    13    14   ar
    31    14    15   ar
    32    15    16    1
    33    21    22   ar
    34    22    23   ar
    35    23    18   ar
    36    15    11   ar
    37    10     1   ar
    38    10     5   ar
    39    29    24    1
    40    35    30    1
@<TRIPOS>MOLECULE
*****
 35 40 0 0 0
SMALL
GASTEIGER

@<TRIPOS>ATOM
      1 C         -24.2648  -12.0799  -15.8471 C.ar    1  UNL1        0.1095
      2 N         -24.3162  -13.1061  -16.7334 N.ar    1  UNL1       -0.1677
      3 N         -24.9087  -14.1353  -16.1401 N.ar    1  UNL1       -0.2319
      4 C         -25.0552  -15.4544  -16.7405 C.3     1  UNL1        0.1554
      5 C         -25.2026  -13.7858  -14.8786 C.ar    1  UNL1        0.1654
      6 N         -25.7230  -14.5798  -13.9126 N.ar    1  UNL1       -0.2050
      7 C         -25.9161  -14.0417  -12.6731 C.ar    1  UNL1        0.2014
      8 N         -25.6131  -12.7279  -12.4314 N.ar    1  UNL1       -0.2089
      9 C         -25.0835  -11.9194  -13.3989 C.ar    1  UNL1        0.1379
     10 C         -24.8441  -12.4919  -14.6521 C.ar    1  UNL1        0.0865
     11 C         -22.3446  -10.4142  -15.4344 C.ar    1  UNL1        0.0809
     12 C         -23.4779  -10.8658  -16.0976 C.ar    1  UNL1        0.0577
     13 C         -23.6563   -9.9939  -17.1514 C.ar    1  UNL1        0.1231
     14 N         -22.6942   -9.0530  -17.1170 N.ar    1  UNL1       -0.1676
     15 N         -21.9014   -9.3132  -16.0882 N.ar    1  UNL1       -0.2488
     16 C         -20.7114   -8.5200  -15.7956 C.3     1  UNL1        0.1537
     17 C         -19.6906  -13.0813  -11.0149 C.3     1  UNL1        0.0310
     18 C         -20.3908  -12.3967  -12.1508 C.ar    1  UNL1       -0.0218
     19 C         -20.5739  -13.0606  -13.3717 C.ar    1  UNL1       -0.0042
     20 C         -21.1999  -12.4124  -14.4398 C.ar    1  UNL1        0.0012
     21 C         -21.6501  -11.0876  -14.3070 C.ar    1  UNL1        0.0174
     22 C         -21.4315  -10.4157  -13.0929 C.ar    1  UNL1        0.0012
     23 C         -20.8062  -11.0640  -12.0245 C.ar    1  UNL1       -0.0042
     24 N         -24.9221  -10.5163  -13.1476 N.pl3   1  UNL1       -0.2917
     25 C         -25.8854   -9.5367  -13.6253 C.3     1  UNL1        0.0936
     26 C         -25.4677   -8.2162  -12.9786 C.3     1  UNL1        0.0362
     27 C         -24.5052   -7.4541  -13.9119 C.3     1  UNL1        0.0032
     28 C         -24.8046   -8.6584  -11.6513 C.3     1  UNL1        0.0789
     29 C         -24.1683  -10.0126  -12.0082 C.3     1  UNL1        0.1081
     30 N         -23.8453   -7.6590  -11.1018 N.3     1  UNL1       -0.2723
     31 C         -23.2126   -8.1918   -9.8692 C.3     1  UNL1        0.0721
     32 C         -22.3217   -7.1293   -9.2193 C.3     1  UNL1        0.0174
     33 C         -21.2319   -6.6831  -10.1939 C.3     1  UNL1        0.0029
     34 C         -21.8512   -6.2409  -11.5198 C.3     1  UNL1        0.0174
     35 C         -22.7766   -7.3292  -12.0780 C.3     1  UNL1        0.0721
@<TRIPOS>BOND
     1    17    18    1
     2    18    19   ar
     3    19    20   ar
     4    20    21   ar
     5    21    11    1
     6    11    12   ar
     7    12     1    1
     8     1     2   ar
     9     2     3   ar
    10     3     4    1
    11     3     5   ar
    12     5     6   ar
    13     6     7   ar
    14     7     8   ar
    15     8     9   ar
    16     9    24    1
    17    24    25    1
    18    25    26    1
    19    26    27    1
    20    26    28    1
    21    28    30    1
    22    30    31    1
    23    31    32    1
    24    32    33    1
    25    33    34    1
    26    34    35    1
    27    28    29    1
    28     9    10   ar
    29    12    13   ar
    30    13    14   ar
    31    14    15   ar
    32    15    16    1
    33    21    22   ar
    34    22    23   ar
    35    23    18   ar
    36    15    11   ar
    37    10     1   ar
    38    10     5   ar
    39    29    24    1
    40    35    30    1
@<TRIPOS>MOLECULE
*****
 35 40 0 0 0
SMALL
GASTEIGER

@<TRIPOS>ATOM
      1 C         -20.8400   -7.0837   -9.9916 C.ar    1  UNL1        0.1095
      2 N         -20.3319   -6.5651   -8.8453 N.ar    1  UNL1       -0.1677
      3 N         -19.5591   -7.4859   -8.2820 N.ar    1  UNL1       -0.2319
      4 C         -18.9193   -7.3357   -6.9819 C.3     1  UNL1        0.1554
      5 C         -19.5982   -8.5929   -9.0389 C.ar    1  UNL1        0.1654
      6 N         -19.0263   -9.7895   -8.7637 N.ar    1  UNL1       -0.2050
      7 C         -19.2140  -10.8105   -9.6500 C.ar    1  UNL1        0.2014
      8 N         -19.9398  -10.6120  -10.7946 N.ar    1  UNL1       -0.2089
      9 C         -20.5245   -9.4089  -11.0793 C.ar    1  UNL1        0.1379
     10 C         -20.3675   -8.3826  -10.1424 C.ar    1  UNL1        0.0865
     11 C         -23.2176   -6.8334  -10.9487 C.ar    1  UNL1        0.0809
     12 C         -21.9080   -6.4179  -10.7478 C.ar    1  UNL1        0.0577
     13 C         -21.8345   -5.1588  -11.3063 C.ar    1  UNL1        0.1231
     14 N         -23.0301   -4.8369  -11.8346 N.ar    1  UNL1       -0.1676
     15 N         -23.8627   -5.8425  -11.6106 N.ar    1  UNL1       -0.2488
     16 C         -25.2692   -5.7967  -11.9986 C.3     1  UNL1        0.1537
     17 C         -25.6163  -11.6855   -8.8528 C.3     1  UNL1        0.0310
     18 C         -24.9830  -10.4401   -9.3980 C.ar    1  UNL1       -0.0218
     19 C         -24.3298   -9.5449   -8.5395 C.ar    1  UNL1       -0.0042
     20 C         -23.7655   -8.3699   -9.0430 C.ar    1  UNL1        0.0012
     21 C         -23.8479   -8.0673  -10.4131 C.ar    1  UNL1        0.0174
     22 C         -24.5349   -8.9506  -11.2623 C.ar    1  UNL1        0.0012
     23 C         -25.0987  -10.1262  -10.7590 C.ar    1  UNL1       -0.0042
     24 N         -21.1464   -9.2012  -12.3552 N.pl3   1  UNL1       -0.2917
     25 C         -20.7999   -8.0698  -13.2011 C.3     1  UNL1        0.0936
     26 C         -21.5133   -8.3288  -14.5279 C.3     1  UNL1        0.0362
     27 C         -22.9033   -7.6609  -14.5176 C.3     1  UNL1        0.0032
     28 C         -21.5817   -9.8736  -14.6052 C.3     1  UNL1        0.0789
     29 C         -21.7113  -10.2958  -13.1317 C.3     1  UNL1        0.1081
     30 N         -22.6744  -10.3792  -15.4835 N.3     1  UNL1       -0.2723
     31 C         -22.0979  -11.1556  -16.6097 C.3     1  UNL1        0.0721
     32 C         -23.1955  -11.5731  -17.5927 C.3     1  UNL1        0.0174
     33 C         -24.2491  -12.4219  -16.8814 C.3     1  UNL1        0.0029
     34 C         -24.7745  -11.6929  -15.6445 C.3     1  UNL1        0.0174
     35 C         -23.6170  -11.2524  -14.7399 C.3     1  UNL1        0.0721
@<TRIPOS>BOND
     1    17    18    1
     2    18    19   ar
     3    19    20   ar
     4    20    21   ar
     5    21    11    1
     6    11    12   ar
     7    12     1    1
     8     1     2   ar
     9     2     3   ar
    10     3     4    1
    11     3     5   ar
    12     5     6   ar
    13     6     7   ar
    14     7     8   ar
    15     8     9   ar
    16     9    24    1
    17    24    25    1
    18    25    26    1
    19    26    27    1
    20    26    28    1
    21    28    30    1
    22    30    31    1
    23    31    32    1
    24    32    33    1
    25    33    34    1
    26    34    35    1
    27    28    29    1
    28     9    10   ar
    29    12    13   ar
    30    13    14   ar
    31    14    15   ar
    32    15    16    1
    33    21    22   ar
    34    22    23   ar
    35    23    18   ar
    36    15    11   ar
    37    10     1   ar
    38    10     5   ar
    39    29    24    1
    40    35    30    1
@<TRIPOS>MOLECULE
*****
 35 40 0 0 0
SMALL
GASTEIGER

@<TRIPOS>ATOM
      1 C         -22.8888   -6.7299  -11.9546 C.ar    1  UNL1        0.1095
      2 N         -22.8020   -5.6419  -11.1486 N.ar    1  UNL1       -0.1677
      3 N         -21.7418   -5.7923  -10.3639 N.ar    1  UNL1       -0.2319
      4 C         -21.3791   -4.8758   -9.2913 C.3     1  UNL1        0.1554
      5 C         -21.1757   -6.9771  -10.6388 C.ar    1  UNL1        0.1654
      6 N         -20.1319   -7.5513   -9.9942 N.ar    1  UNL1       -0.2050
      7 C         -19.7241   -8.7874  -10.4050 C.ar    1  UNL1        0.2014
      8 N         -20.3433   -9.4089  -11.4571 N.ar    1  UNL1       -0.2089
      9 C         -21.4003   -8.8392  -12.1115 C.ar    1  UNL1        0.1379
     10 C         -21.8423   -7.5943  -11.6530 C.ar    1  UNL1        0.0865
     11 C         -25.1278   -7.8572  -12.5447 C.ar    1  UNL1        0.0809
     12 C         -24.0670   -6.9954  -12.7897 C.ar    1  UNL1        0.0577
     13 C         -24.4036   -6.3209  -13.9448 C.ar    1  UNL1        0.1231
     14 N         -25.5953   -6.7643  -14.3867 N.ar    1  UNL1       -0.1676
     15 N         -26.0328   -7.6823  -13.5379 N.ar    1  UNL1       -0.2488
     16 C         -27.3338   -8.3282  -13.6840 C.3     1  UNL1        0.1537
     17 C         -25.8306  -11.1420   -7.8113 C.3     1  UNL1        0.0310
     18 C         -25.6364  -10.2858   -9.0272 C.ar    1  UNL1       -0.0218
     19 C         -26.3843   -9.1117   -9.1920 C.ar    1  UNL1       -0.0042
     20 C         -26.2250   -8.3294  -10.3388 C.ar    1  UNL1        0.0012
     21 C         -25.3179   -8.7095  -11.3429 C.ar    1  UNL1        0.0174
     22 C         -24.5978   -9.9057  -11.1886 C.ar    1  UNL1        0.0012
     23 C         -24.7565  -10.6878  -10.0413 C.ar    1  UNL1       -0.0042
     24 N         -21.9205   -9.4539  -13.2988 N.pl3   1  UNL1       -0.2917
     25 C         -21.5488   -8.9910  -14.6267 C.3     1  UNL1        0.0936
     26 C         -22.1373  -10.0224  -15.5893 C.3     1  UNL1        0.0362
     27 C         -23.5484   -9.5848  -16.0315 C.3     1  UNL1        0.0032
     28 C         -22.1382  -11.3301  -14.7605 C.3     1  UNL1        0.0789
     29 C         -22.3745  -10.8371  -13.3227 C.3     1  UNL1        0.1081
     30 N         -23.1324  -12.3349  -15.2326 N.3     1  UNL1       -0.2723
     31 C         -22.5002  -13.6762  -15.3016 C.3     1  UNL1        0.0721
     32 C         -23.4682  -14.6967  -15.9072 C.3     1  UNL1        0.0174
     33 C         -24.7424  -14.7817  -15.0671 C.3     1  UNL1        0.0029
     34 C         -25.3506  -13.3917  -14.8792 C.3     1  UNL1        0.0174
     35 C         -24.3075  -12.4113  -14.3287 C.3     1  UNL1        0.0721
@<TRIPOS>BOND
     1    17    18    1
     2    18    19   ar
     3    19    20   ar
     4    20    21   ar
     5    21    11    1
     6    11    12   ar
     7    12     1    1
     8     1     2   ar
     9     2     3   ar
    10     3     4    1
    11     3     5   ar
    12     5     6   ar
    13     6     7   ar
    14     7     8   ar
    15     8     9   ar
    16     9    24    1
    17    24    25    1
    18    25    26    1
    19    26    27    1
    20    26    28    1
    21    28    30    1
    22    30    31    1
    23    31    32    1
    24    32    33    1
    25    33    34    1
    26    34    35    1
    27    28    29    1
    28     9    10   ar
    29    12    13   ar
    30    13    14   ar
    31    14    15   ar
    32    15    16    1
    33    21    22   ar
    34    22    23   ar
    35    23    18   ar
    36    15    11   ar
    37    10     1   ar
    38    10     5   ar
    39    29    24    1
    40    35    30    1
@<TRIPOS>MOLECULE
*****
 35 40 0 0 0
SMALL
GASTEIGER

@<TRIPOS>ATOM
      1 C         -23.8479   -7.7132  -14.5221 C.ar    1  UNL1        0.1095
      2 N         -24.5899   -7.1902  -15.5305 N.ar    1  UNL1       -0.1677
      3 N         -23.8090   -7.0664  -16.5970 N.ar    1  UNL1       -0.2319
      4 C         -24.2222   -6.4447  -17.8479 C.3     1  UNL1        0.1554
      5 C         -22.5735   -7.4723  -16.2672 C.ar    1  UNL1        0.1654
      6 N         -21.4627   -7.4144  -17.0400 N.ar    1  UNL1       -0.2050
      7 C         -20.2840   -7.8469  -16.5047 C.ar    1  UNL1        0.2014
      8 N         -20.2423   -8.3476  -15.2303 N.ar    1  UNL1       -0.2089
      9 C         -21.3574   -8.4065  -14.4409 C.ar    1  UNL1        0.1379
     10 C         -22.5510   -7.9166  -14.9803 C.ar    1  UNL1        0.0865
     11 C         -24.8921   -8.8523  -12.4620 C.ar    1  UNL1        0.0809
     12 C         -24.3367   -7.7746  -13.1389 C.ar    1  UNL1        0.0577
     13 C         -24.2118   -6.7759  -12.1957 C.ar    1  UNL1        0.1231
     14 N         -24.6843   -7.2182  -11.0154 N.ar    1  UNL1       -0.1676
     15 N         -25.0850   -8.4705  -11.1762 N.ar    1  UNL1       -0.2488
     16 C         -25.5967   -9.2775  -10.0727 C.3     1  UNL1        0.1537
     17 C         -25.6446  -14.2103  -14.5630 C.3     1  UNL1        0.0310
     18 C         -25.4352  -12.8256  -14.0264 C.ar    1  UNL1       -0.0218
     19 C         -25.0036  -12.6367  -12.7061 C.ar    1  UNL1       -0.0042
     20 C         -24.8368  -11.3462  -12.1967 C.ar    1  UNL1        0.0012
     21 C         -25.1026  -10.2219  -12.9973 C.ar    1  UNL1        0.0174
     22 C         -25.5693  -10.4178  -14.3077 C.ar    1  UNL1        0.0012
     23 C         -25.7354  -11.7083  -14.8175 C.ar    1  UNL1       -0.0042
     24 N         -21.3001   -9.0740  -13.1724 N.pl3   1  UNL1       -0.2917
     25 C         -21.3912  -10.5216  -13.0639 C.3     1  UNL1        0.0936
     26 C         -21.0805  -10.8336  -11.6001 C.3     1  UNL1        0.0362
     27 C         -22.3868  -10.8733  -10.7815 C.3     1  UNL1        0.0032
     28 C         -20.1339   -9.6831  -11.1791 C.3     1  UNL1        0.0789
     29 C         -20.6295   -8.4928  -12.0180 C.3     1  UNL1        0.1081
     30 N         -20.1184   -9.4305   -9.7105 N.3     1  UNL1       -0.2723
     31 C         -18.7806   -9.7573   -9.1565 C.3     1  UNL1        0.0721
     32 C         -18.7839   -9.6277   -7.6306 C.3     1  UNL1        0.0174
     33 C         -19.1666   -8.2058   -7.2204 C.3     1  UNL1        0.0029
     34 C         -20.4863   -7.7989   -7.8761 C.3     1  UNL1        0.0174
     35 C         -20.4289   -8.0138   -9.3936 C.3     1  UNL1        0.0721
@<TRIPOS>BOND
     1    17    18    1
     2    18    19   ar
     3    19    20   ar
     4    20    21   ar
     5    21    11    1
     6    11    12   ar
     7    12     1    1
     8     1     2   ar
     9     2     3   ar
    10     3     4    1
    11     3     5   ar
    12     5     6   ar
    13     6     7   ar
    14     7     8   ar
    15     8     9   ar
    16     9    24    1
    17    24    25    1
    18    25    26    1
    19    26    27    1
    20    26    28    1
    21    28    30    1
    22    30    31    1
    23    31    32    1
    24    32    33    1
    25    33    34    1
    26    34    35    1
    27    28    29    1
    28     9    10   ar
    29    12    13   ar
    30    13    14   ar
    31    14    15   ar
    32    15    16    1
    33    21    22   ar
    34    22    23   ar
    35    23    18   ar
    36    15    11   ar
    37    10     1   ar
    38    10     5   ar
    39    29    24    1
    40    35    30    1
