@<TRIPOS>MOLECULE
*****
 45 50 0 0 0
SMALL
GASTEIGER

@<TRIPOS>ATOM
      1 C         -64.0156  -52.0427  -24.3752 C.ar    1  UNL1        0.0702
      2 C         -63.4107  -52.6639  -23.2729 C.ar    1  UNL1        0.0191
      3 C         -64.0706  -53.6922  -22.5977 C.ar    1  UNL1        0.0356
      4 C         -65.3396  -54.1140  -23.0364 C.ar    1  UNL1        0.1318
      5 N         -65.8906  -53.5078  -24.1259 N.ar    1  UNL1       -0.2279
      6 C         -65.2663  -52.5054  -24.7982 C.ar    1  UNL1        0.1149
      7 N         -66.0533  -55.1821  -22.3693 N.pl3   1  UNL1       -0.2932
      8 C         -67.0652  -55.9762  -23.0898 C.3     1  UNL1        0.0923
      9 C         -67.9274  -56.8109  -22.1312 C.3     1  UNL1        0.0252
     10 C         -68.3134  -55.9693  -20.9026 C.3     1  UNL1        0.0472
     11 C         -67.0596  -55.4882  -20.1229 C.3     1  UNL1        0.0252
     12 C         -65.7708  -55.5076  -20.9621 C.3     1  UNL1        0.0923
     13 C         -69.2761  -56.7531  -19.9906 C.3     1  UNL1        0.2054
     14 O         -69.3936  -56.1274  -18.7115 O.3     1  UNL1       -0.4750
     15 C         -70.4202  -55.2532  -18.3142 C.ar    1  UNL1        0.1440
     16 C         -71.1033  -54.4358  -19.2339 C.ar    1  UNL1        0.0373
     17 C         -72.1080  -53.5738  -18.7996 C.ar    1  UNL1        0.0033
     18 C         -72.4534  -53.5213  -17.4507 C.ar    1  UNL1        0.0071
     19 C         -71.7988  -54.3356  -16.5128 C.ar    1  UNL1        0.0837
     20 C         -70.7703  -55.2047  -16.9515 C.ar    1  UNL1        0.0702
     21 I         -69.6296  -56.3885  -15.5933 I       1  UNL1       -0.0392
     22 C         -72.2211  -54.2652  -15.0959 C.2     1  UNL1        0.3385
     23 O         -73.2125  -54.9293  -14.6947 O.2     1  UNL1       -0.2451
     24 O         -71.5567  -53.4376  -14.1931 O.3     1  UNL1       -0.4771
     25 H         -70.7299  -52.9158  -14.4577 H       1  UNL1        0.2954
     26 C         -63.8236  -49.6404  -25.1783 C.2     1  UNL1        0.2839
     27 O         -64.8254  -49.2757  -24.5067 O.2     1  UNL1       -0.2665
     28 N         -63.3584  -51.0001  -25.1145 N.am    1  UNL1       -0.2766
     29 H         -62.5240  -51.2726  -25.6782 H       1  UNL1        0.1553
     30 C         -63.9998  -49.2639  -28.3894 C.3     1  UNL1        0.0345
     31 C         -63.1927  -48.4836  -27.3964 C.ar    1  UNL1        0.0202
     32 C         -63.1328  -48.6360  -26.0056 C.ar    1  UNL1        0.1946
     33 O         -62.3525  -47.7065  -25.4826 O.2     1  UNL1       -0.4492
     34 C         -61.8835  -46.9754  -26.4640 C.ar    1  UNL1        0.1452
     35 C         -61.0197  -45.8896  -26.3720 C.ar    1  UNL1        0.0375
     36 C         -60.6439  -45.2426  -27.5623 C.ar    1  UNL1        0.0031
     37 C         -61.1345  -45.6876  -28.8200 C.ar    1  UNL1        0.0002
     38 C         -62.0129  -46.7967  -28.8686 C.ar    1  UNL1        0.0028
     39 C         -62.3625  -47.4149  -27.6680 C.ar    1  UNL1        0.0337
     40 C         -60.7308  -44.9966  -30.0709 C.ar    1  UNL1        0.0000
     41 C         -59.4362  -45.1674  -30.5972 C.ar    1  UNL1        0.0000
     42 C         -59.0585  -44.5145  -31.7747 C.ar    1  UNL1        0.0000
     43 C         -59.9659  -43.6866  -32.4392 C.ar    1  UNL1        0.0000
     44 C         -61.2531  -43.5091  -31.9274 C.ar    1  UNL1        0.0000
     45 C         -61.6360  -44.1587  -30.7498 C.ar    1  UNL1        0.0000
@<TRIPOS>BOND
     1    30    31    1
     2    31    32   ar
     3    32    26    1
     4    26    27    2
     5    26    28   am
     6    28     1    1
     7     1     2   ar
     8     2     3   ar
     9     3     4   ar
    10     4     7    1
    11     7     8    1
    12     8     9    1
    13     9    10    1
    14    10    13    1
    15    13    14    1
    16    14    15    1
    17    15    16   ar
    18    16    17   ar
    19    17    18   ar
    20    18    19   ar
    21    19    22    1
    22    22    23    2
    23    22    24    1
    24    19    20   ar
    25    20    21    1
    26    10    11    1
    27    11    12    1
    28     4     5   ar
    29     5     6   ar
    30    32    33   ar
    31    33    34   ar
    32    34    35   ar
    33    35    36   ar
    34    36    37   ar
    35    37    40    1
    36    40    41   ar
    37    41    42   ar
    38    42    43   ar
    39    43    44   ar
    40    44    45   ar
    41    37    38   ar
    42    38    39   ar
    43    39    31   ar
    44     6     1   ar
    45    39    34   ar
    46    12     7    1
    47    45    40   ar
    48    20    15   ar
    49    28    29    1
    50    24    25    1
