@<TRIPOS>MOLECULE
*****
 38 42 0 0 0
SMALL
GASTEIGER

@<TRIPOS>ATOM
      1 C         -28.4887   49.0220   -9.4615 C.ar    1  UNL1        0.0673
      2 C         -29.8395   49.3866   -9.6540 C.ar    1  UNL1        0.0161
      3 C         -30.1767   50.6846  -10.1002 C.ar    1  UNL1        0.0028
      4 C         -29.1719   51.6383  -10.3450 C.ar    1  UNL1        0.0186
      5 C         -27.8513   51.2527  -10.1301 C.ar    1  UNL1        0.0768
      6 N         -26.7404   51.9870  -10.2680 N.ar    1  UNL1       -0.3373
      7 C         -25.7388   51.1392   -9.9125 C.ar    1  UNL1        0.1406
      8 N         -26.1851   49.9045   -9.5580 N.ar    1  UNL1       -0.2258
      9 C         -27.5181   50.0009   -9.7090 C.ar    1  UNL1        0.1116
     10 H         -26.6801   52.9765  -10.5941 H       1  UNL1        0.1674
     11 N         -27.9757   47.0148   -6.4627 N.3     1  UNL1       -0.2655
     12 C         -28.8544   46.1162   -7.2381 C.3     1  UNL1        0.0941
     13 C         -29.1955   46.7720   -8.5868 C.3     1  UNL1        0.1082
     14 N         -28.1392   47.7158   -8.9707 N.pl3   1  UNL1       -0.3034
     15 C         -26.7564   47.3766   -8.6210 C.3     1  UNL1        0.1082
     16 C         -26.6421   47.1146   -7.1048 C.3     1  UNL1        0.0941
     17 C         -27.8629   46.5736   -5.0593 C.3     1  UNL1        0.1154
     18 N         -26.4423   49.8883   -3.9169 N.am    1  UNL1       -0.0442
     19 C         -27.0960   48.9397   -4.6500 C.2     1  UNL1        0.2969
     20 C         -27.1158   47.6013   -4.2391 C.2     1  UNL1        0.1684
     21 C         -26.4567   47.2712   -3.0464 C.2     1  UNL1        0.4261
     22 O         -26.4400   46.0814   -2.6288 O.2     1  UNL1       -0.2139
     23 N         -25.8341   48.2416   -2.3274 N.am    1  UNL1       -0.0486
     24 C         -25.8326   49.5376   -2.7408 C.2     1  UNL1        0.6659
     25 O         -25.2698   50.4110   -2.0257 O.2     1  UNL1       -0.1527
     26 H         -25.3542   47.9885   -1.4332 H       1  UNL1        0.4575
     27 C         -26.9065   51.3606   -5.8347 C.3     1  UNL1        0.0920
     28 C         -26.4513   51.2849   -4.3819 C.3     1  UNL1        0.3234
     29 C         -24.2989   51.4925   -9.9346 C.ar    1  UNL1        0.0339
     30 C         -23.6730   51.8111  -11.1488 C.ar    1  UNL1        0.0027
     31 C         -22.3251   52.1760  -11.1814 C.ar    1  UNL1       -0.0042
     32 C         -21.5529   52.2287  -10.0007 C.ar    1  UNL1       -0.0228
     33 C         -22.1889   51.8826   -8.7864 C.ar    1  UNL1       -0.0042
     34 C         -23.5381   51.5206   -8.7565 C.ar    1  UNL1        0.0027
     35 C         -20.0770   52.6736  -10.0716 C.3     1  UNL1        0.0189
     36 C         -19.2596   52.2675   -8.8215 C.3     1  UNL1        0.0044
     37 C         -19.3991   52.0317  -11.3009 C.3     1  UNL1        0.0044
     38 C         -20.0118   54.2110  -10.1965 C.3     1  UNL1        0.0044
@<TRIPOS>BOND
     1    27    28    1
     2    28    18    1
     3    18    19    1
     4    19    20    2
     5    20    17    1
     6    17    11    1
     7    11    12    1
     8    12    13    1
     9    13    14    1
    10    14     1    1
    11     1     2   ar
    12     2     3   ar
    13     3     4   ar
    14     4     5   ar
    15     5     6   ar
    16     6     7   ar
    17     7    29    1
    18    29    30   ar
    19    30    31   ar
    20    31    32   ar
    21    32    35    1
    22    35    36    1
    23    35    37    1
    24    35    38    1
    25    32    33   ar
    26    33    34   ar
    27     7     8   ar
    28     8     9   ar
    29    14    15    1
    30    15    16    1
    31    20    21    1
    32    21    22    2
    33    21    23    1
    34    23    24    1
    35    24    25    2
    36    24    18    1
    37    16    11    1
    38     9     1   ar
    39     9     5   ar
    40    34    29   ar
    41     6    10    1
    42    23    26    1
@<TRIPOS>MOLECULE
*****
 38 42 0 0 0
SMALL
GASTEIGER

@<TRIPOS>ATOM
      1 C         -28.8722   51.2178   -8.1610 C.ar    1  UNL1        0.0673
      2 C         -30.0889   50.8357   -8.7678 C.ar    1  UNL1        0.0161
      3 C         -30.1278   50.4724  -10.1332 C.ar    1  UNL1        0.0028
      4 C         -28.9569   50.5005  -10.9125 C.ar    1  UNL1        0.0186
      5 C         -27.7769   50.8973  -10.2888 C.ar    1  UNL1        0.0768
      6 N         -26.5577   51.0261  -10.8265 N.ar    1  UNL1       -0.3373
      7 C         -25.7864   51.4594   -9.7943 C.ar    1  UNL1        0.1406
      8 N         -26.4804   51.6057   -8.6340 N.ar    1  UNL1       -0.2258
      9 C         -27.7300   51.2400   -8.9713 C.ar    1  UNL1        0.1116
     10 H         -26.2822   50.8170  -11.8112 H       1  UNL1        0.1674
     11 N         -28.5625   50.0453   -4.7238 N.3     1  UNL1       -0.2655
     12 C         -27.5674   51.1364   -4.7242 C.3     1  UNL1        0.0941
     13 C         -27.5382   51.8024   -6.1102 C.3     1  UNL1        0.1082
     14 N         -28.8309   51.6261   -6.7824 N.pl3   1  UNL1       -0.3034
     15 C         -30.0418   51.6481   -5.9561 C.3     1  UNL1        0.1082
     16 C         -29.9352   50.5974   -4.8313 C.3     1  UNL1        0.0941
     17 C         -28.4206   49.1914   -3.5290 C.3     1  UNL1        0.1154
     18 N         -26.2778   46.7186   -5.4275 N.am    1  UNL1       -0.0442
     19 C         -27.0209   47.8209   -5.1155 C.2     1  UNL1        0.2969
     20 C         -27.6179   47.9520   -3.8557 C.2     1  UNL1        0.1684
     21 C         -27.4159   46.9243   -2.9235 C.2     1  UNL1        0.4261
     22 O         -27.9310   46.9879   -1.7743 O.2     1  UNL1       -0.2139
     23 N         -26.6526   45.8505   -3.2563 N.am    1  UNL1       -0.0486
     24 C         -26.0756   45.7457   -4.4839 C.2     1  UNL1        0.6659
     25 O         -25.3486   44.7472   -4.7388 O.2     1  UNL1       -0.1527
     26 H         -26.4980   45.0936   -2.5513 H       1  UNL1        0.4575
     27 C         -25.9209   47.8963   -7.5599 C.3     1  UNL1        0.0920
     28 C         -25.6628   46.6236   -6.7615 C.3     1  UNL1        0.3234
     29 C         -24.3298   51.7192   -9.8923 C.ar    1  UNL1        0.0339
     30 C         -23.7691   52.1196  -11.1141 C.ar    1  UNL1        0.0027
     31 C         -22.4040   52.3981  -11.2143 C.ar    1  UNL1       -0.0042
     32 C         -21.5493   52.2792  -10.0970 C.ar    1  UNL1       -0.0228
     33 C         -22.1221   51.8521   -8.8770 C.ar    1  UNL1       -0.0042
     34 C         -23.4885   51.5769   -8.7791 C.ar    1  UNL1        0.0027
     35 C         -20.0538   52.6326  -10.2373 C.3     1  UNL1        0.0189
     36 C         -19.2212   52.2576   -8.9875 C.3     1  UNL1        0.0044
     37 C         -19.4521   51.8781  -11.4421 C.3     1  UNL1        0.0044
     38 C         -19.9065   54.1531  -10.4610 C.3     1  UNL1        0.0044
@<TRIPOS>BOND
     1    27    28    1
     2    28    18    1
     3    18    19    1
     4    19    20    2
     5    20    17    1
     6    17    11    1
     7    11    12    1
     8    12    13    1
     9    13    14    1
    10    14     1    1
    11     1     2   ar
    12     2     3   ar
    13     3     4   ar
    14     4     5   ar
    15     5     6   ar
    16     6     7   ar
    17     7    29    1
    18    29    30   ar
    19    30    31   ar
    20    31    32   ar
    21    32    35    1
    22    35    36    1
    23    35    37    1
    24    35    38    1
    25    32    33   ar
    26    33    34   ar
    27     7     8   ar
    28     8     9   ar
    29    14    15    1
    30    15    16    1
    31    20    21    1
    32    21    22    2
    33    21    23    1
    34    23    24    1
    35    24    25    2
    36    24    18    1
    37    16    11    1
    38     9     1   ar
    39     9     5   ar
    40    34    29   ar
    41     6    10    1
    42    23    26    1
@<TRIPOS>MOLECULE
*****
 38 42 0 0 0
SMALL
GASTEIGER

@<TRIPOS>ATOM
      1 C         -28.4519   49.0128   -9.7672 C.ar    1  UNL1        0.0673
      2 C         -29.8074   49.3895   -9.8903 C.ar    1  UNL1        0.0161
      3 C         -30.1580   50.7296  -10.1714 C.ar    1  UNL1        0.0028
      4 C         -29.1617   51.7119  -10.3178 C.ar    1  UNL1        0.0186
      5 C         -27.8359   51.3115  -10.1745 C.ar    1  UNL1        0.0768
      6 N         -26.7306   52.0639  -10.2430 N.ar    1  UNL1       -0.3373
      7 C         -25.7193   51.1858  -10.0099 C.ar    1  UNL1        0.1406
      8 N         -26.1540   49.9147   -9.7982 N.ar    1  UNL1       -0.2258
      9 C         -27.4900   50.0203   -9.9127 C.ar    1  UNL1        0.1116
     10 H         -26.6804   53.0857  -10.4491 H       1  UNL1        0.1674
     11 N         -29.0090   46.2633   -7.4402 N.3     1  UNL1       -0.2655
     12 C         -29.1553   45.5563   -8.7284 C.3     1  UNL1        0.0941
     13 C         -28.9389   46.5478   -9.8841 C.3     1  UNL1        0.1082
     14 N         -28.0882   47.6594   -9.4431 N.pl3   1  UNL1       -0.3034
     15 C         -27.0170   47.3651   -8.4862 C.3     1  UNL1        0.1082
     16 C         -27.5991   46.6763   -7.2343 C.3     1  UNL1        0.0941
     17 C         -29.4947   45.4376   -6.3181 C.3     1  UNL1        0.1154
     18 N         -27.7566   45.9156   -2.9922 N.am    1  UNL1       -0.0442
     19 C         -28.1570   45.3790   -4.1823 C.2     1  UNL1        0.2969
     20 C         -29.0819   46.0447   -4.9959 C.2     1  UNL1        0.1684
     21 C         -29.5705   47.2833   -4.5563 C.2     1  UNL1        0.4261
     22 O         -30.4068   47.9267   -5.2470 O.2     1  UNL1       -0.2139
     23 N         -29.1358   47.8017   -3.3779 N.am    1  UNL1       -0.0486
     24 C         -28.2312   47.1416   -2.6055 C.2     1  UNL1        0.6659
     25 O         -27.8311   47.6748   -1.5348 O.2     1  UNL1       -0.1527
     26 H         -29.4971   48.7313   -3.0628 H       1  UNL1        0.4575
     27 C         -25.6871   44.5833   -3.0487 C.3     1  UNL1        0.0920
     28 C         -26.7779   45.1853   -2.1704 C.3     1  UNL1        0.3234
     29 C         -24.2814   51.5480  -10.0152 C.ar    1  UNL1        0.0339
     30 C         -23.6527   51.9075  -11.2164 C.ar    1  UNL1        0.0027
     31 C         -22.3069   52.2812  -11.2322 C.ar    1  UNL1       -0.0042
     32 C         -21.5397   52.3021  -10.0473 C.ar    1  UNL1       -0.0228
     33 C         -22.1784   51.9151   -8.8468 C.ar    1  UNL1       -0.0042
     34 C         -23.5255   51.5443   -8.8337 C.ar    1  UNL1        0.0027
     35 C         -20.0662   52.7576  -10.0984 C.3     1  UNL1        0.0189
     36 C         -19.2765   52.4044   -8.8148 C.3     1  UNL1        0.0044
     37 C         -19.3529   52.0780  -11.2867 C.3     1  UNL1        0.0044
     38 C         -20.0107   54.2901  -10.2773 C.3     1  UNL1        0.0044
@<TRIPOS>BOND
     1    27    28    1
     2    28    18    1
     3    18    19    1
     4    19    20    2
     5    20    17    1
     6    17    11    1
     7    11    12    1
     8    12    13    1
     9    13    14    1
    10    14     1    1
    11     1     2   ar
    12     2     3   ar
    13     3     4   ar
    14     4     5   ar
    15     5     6   ar
    16     6     7   ar
    17     7    29    1
    18    29    30   ar
    19    30    31   ar
    20    31    32   ar
    21    32    35    1
    22    35    36    1
    23    35    37    1
    24    35    38    1
    25    32    33   ar
    26    33    34   ar
    27     7     8   ar
    28     8     9   ar
    29    14    15    1
    30    15    16    1
    31    20    21    1
    32    21    22    2
    33    21    23    1
    34    23    24    1
    35    24    25    2
    36    24    18    1
    37    16    11    1
    38     9     1   ar
    39     9     5   ar
    40    34    29   ar
    41     6    10    1
    42    23    26    1
@<TRIPOS>MOLECULE
*****
 38 42 0 0 0
SMALL
GASTEIGER

@<TRIPOS>ATOM
      1 C         -29.3659   49.1371   -9.9057 C.ar    1  UNL1        0.0673
      2 C         -30.6776   49.5239  -10.2583 C.ar    1  UNL1        0.0161
      3 C         -30.9211   50.7863  -10.8453 C.ar    1  UNL1        0.0028
      4 C         -29.8616   51.6832  -11.0735 C.ar    1  UNL1        0.0186
      5 C         -28.5828   51.2785  -10.6997 C.ar    1  UNL1        0.0768
      6 N         -27.4363   51.9634  -10.7927 N.ar    1  UNL1       -0.3373
      7 C         -26.5059   51.1208  -10.2704 C.ar    1  UNL1        0.1406
      8 N         -27.0309   49.9370   -9.8553 N.ar    1  UNL1       -0.2258
      9 C         -28.3392   50.0599  -10.1419 C.ar    1  UNL1        0.1116
     10 H         -27.3074   52.9174  -11.1957 H       1  UNL1        0.1674
     11 N         -27.3204   47.4041   -7.4363 N.3     1  UNL1       -0.2655
     12 C         -28.6674   46.9576   -7.0277 C.3     1  UNL1        0.0941
     13 C         -29.7178   47.5719   -7.9682 C.3     1  UNL1        0.1082
     14 N         -29.1147   47.8701   -9.2726 N.pl3   1  UNL1       -0.3034
     15 C         -28.0875   46.9544   -9.7783 C.3     1  UNL1        0.1082
     16 C         -26.9524   46.8076   -8.7437 C.3     1  UNL1        0.0941
     17 C         -26.3157   47.0904   -6.4024 C.3     1  UNL1        0.1154
     18 N         -27.7199   46.7103   -2.9104 N.am    1  UNL1       -0.0442
     19 C         -27.2566   46.4206   -4.1618 C.2     1  UNL1        0.2969
     20 C         -26.8423   47.4394   -5.0284 C.2     1  UNL1        0.1684
     21 C         -26.9052   48.7613   -4.5649 C.2     1  UNL1        0.4261
     22 O         -26.5471   49.7192   -5.3026 O.2     1  UNL1       -0.2139
     23 N         -27.3499   49.0156   -3.3064 N.am    1  UNL1       -0.0486
     24 C         -27.7413   48.0103   -2.4775 C.2     1  UNL1        0.6659
     25 O         -28.1166   48.2895   -1.3063 O.2     1  UNL1       -0.1527
     26 H         -27.3832   50.0036   -2.9647 H       1  UNL1        0.4575
     27 C         -29.5907   45.2296   -2.3031 C.3     1  UNL1        0.0920
     28 C         -28.1398   45.6085   -2.0292 C.3     1  UNL1        0.3234
     29 C         -25.0575   51.4267  -10.1839 C.ar    1  UNL1        0.0339
     30 C         -24.3457   51.7844  -11.3384 C.ar    1  UNL1        0.0027
     31 C         -22.9882   52.1055  -11.2675 C.ar    1  UNL1       -0.0042
     32 C         -22.2922   52.0738  -10.0396 C.ar    1  UNL1       -0.0228
     33 C         -23.0150   51.6890   -8.8870 C.ar    1  UNL1       -0.0042
     34 C         -24.3736   51.3709   -8.9606 C.ar    1  UNL1        0.0027
     35 C         -20.8021   52.4723   -9.9948 C.3     1  UNL1        0.0189
     36 C         -20.2082   52.4424   -8.5657 C.3     1  UNL1        0.0044
     37 C         -19.9772   51.4987  -10.8633 C.3     1  UNL1        0.0044
     38 C         -20.6400   53.9073  -10.5408 C.3     1  UNL1        0.0044
@<TRIPOS>BOND
     1    27    28    1
     2    28    18    1
     3    18    19    1
     4    19    20    2
     5    20    17    1
     6    17    11    1
     7    11    12    1
     8    12    13    1
     9    13    14    1
    10    14     1    1
    11     1     2   ar
    12     2     3   ar
    13     3     4   ar
    14     4     5   ar
    15     5     6   ar
    16     6     7   ar
    17     7    29    1
    18    29    30   ar
    19    30    31   ar
    20    31    32   ar
    21    32    35    1
    22    35    36    1
    23    35    37    1
    24    35    38    1
    25    32    33   ar
    26    33    34   ar
    27     7     8   ar
    28     8     9   ar
    29    14    15    1
    30    15    16    1
    31    20    21    1
    32    21    22    2
    33    21    23    1
    34    23    24    1
    35    24    25    2
    36    24    18    1
    37    16    11    1
    38     9     1   ar
    39     9     5   ar
    40    34    29   ar
    41     6    10    1
    42    23    26    1
@<TRIPOS>MOLECULE
*****
 38 42 0 0 0
SMALL
GASTEIGER

@<TRIPOS>ATOM
      1 C         -28.8761   50.8780   -8.2469 C.ar    1  UNL1        0.0673
      2 C         -30.0864   50.5109   -8.8755 C.ar    1  UNL1        0.0161
      3 C         -30.1208   50.2323  -10.2608 C.ar    1  UNL1        0.0028
      4 C         -28.9521   50.3313  -11.0376 C.ar    1  UNL1        0.0186
      5 C         -27.7788   50.7112  -10.3911 C.ar    1  UNL1        0.0768
      6 N         -26.5633   50.8966  -10.9206 N.ar    1  UNL1       -0.3373
      7 C         -25.7985   51.2798   -9.8639 C.ar    1  UNL1        0.1406
      8 N         -26.4931   51.3404   -8.6963 N.ar    1  UNL1       -0.2258
      9 C         -27.7361   50.9724   -9.0550 C.ar    1  UNL1        0.1116
     10 H         -26.2855   50.7543  -11.9165 H       1  UNL1        0.1674
     11 N         -27.4574   49.9496   -5.0204 N.3     1  UNL1       -0.2655
     12 C         -27.2032   51.4043   -5.0150 C.3     1  UNL1        0.0941
     13 C         -27.7487   52.0243   -6.3125 C.3     1  UNL1        0.1082
     14 N         -28.8402   51.2006   -6.8456 N.pl3   1  UNL1       -0.3034
     15 C         -29.7323   50.5408   -5.8872 C.3     1  UNL1        0.1082
     16 C         -28.9114   49.6783   -4.9060 C.3     1  UNL1        0.0941
     17 C         -26.6999   49.2696   -3.9524 C.3     1  UNL1        0.1154
     18 N         -28.5113   46.2586   -2.5513 N.am    1  UNL1       -0.0442
     19 C         -28.0447   47.5309   -2.7182 C.2     1  UNL1        0.2969
     20 C         -27.1877   47.8486   -3.7791 C.2     1  UNL1        0.1684
     21 C         -26.8376   46.8236   -4.6695 C.2     1  UNL1        0.4261
     22 O         -26.0676   47.0514   -5.6418 O.2     1  UNL1       -0.2139
     23 N         -27.3363   45.5725   -4.4895 N.am    1  UNL1       -0.0486
     24 C         -28.1733   45.2864   -3.4559 C.2     1  UNL1        0.6659
     25 O         -28.6382   44.1191   -3.3457 O.2     1  UNL1       -0.1527
     26 H         -27.0788   44.8164   -5.1647 H       1  UNL1        0.4575
     27 C         -29.9274   47.2641   -0.8063 C.3     1  UNL1        0.0920
     28 C         -29.4150   45.9690   -1.4260 C.3     1  UNL1        0.3234
     29 C         -24.3473   51.5731   -9.9465 C.ar    1  UNL1        0.0339
     30 C         -23.7565   51.8474  -11.1887 C.ar    1  UNL1        0.0027
     31 C         -22.3971   52.1561  -11.2785 C.ar    1  UNL1       -0.0042
     32 C         -21.5784   52.1948  -10.1291 C.ar    1  UNL1       -0.0228
     33 C         -22.1805   51.8935   -8.8858 C.ar    1  UNL1       -0.0042
     34 C         -23.5412   51.5877   -8.7988 C.ar    1  UNL1        0.0027
     35 C         -20.0896   52.5774  -10.2634 C.3     1  UNL1        0.0189
     36 C         -19.4030   51.9255  -11.4879 C.3     1  UNL1        0.0044
     37 C         -19.9577   54.1079  -10.4147 C.3     1  UNL1        0.0044
     38 C         -19.3284   52.1211   -9.0000 C.3     1  UNL1        0.0044
@<TRIPOS>BOND
     1    27    28    1
     2    28    18    1
     3    18    19    1
     4    19    20    2
     5    20    17    1
     6    17    11    1
     7    11    12    1
     8    12    13    1
     9    13    14    1
    10    14     1    1
    11     1     2   ar
    12     2     3   ar
    13     3     4   ar
    14     4     5   ar
    15     5     6   ar
    16     6     7   ar
    17     7    29    1
    18    29    30   ar
    19    30    31   ar
    20    31    32   ar
    21    32    35    1
    22    35    36    1
    23    35    37    1
    24    35    38    1
    25    32    33   ar
    26    33    34   ar
    27     7     8   ar
    28     8     9   ar
    29    14    15    1
    30    15    16    1
    31    20    21    1
    32    21    22    2
    33    21    23    1
    34    23    24    1
    35    24    25    2
    36    24    18    1
    37    16    11    1
    38     9     1   ar
    39     9     5   ar
    40    34    29   ar
    41     6    10    1
    42    23    26    1
@<TRIPOS>MOLECULE
*****
 38 42 0 0 0
SMALL
GASTEIGER

@<TRIPOS>ATOM
      1 C         -28.4036   48.9257   -9.2990 C.ar    1  UNL1        0.0673
      2 C         -29.7597   49.2334   -9.5457 C.ar    1  UNL1        0.0161
      3 C         -30.1227   50.4757  -10.1138 C.ar    1  UNL1        0.0028
      4 C         -29.1390   51.4309  -10.4283 C.ar    1  UNL1        0.0186
      5 C         -27.8129   51.1035  -10.1579 C.ar    1  UNL1        0.0768
      6 N         -26.7194   51.8530  -10.3441 N.ar    1  UNL1       -0.3373
      7 C         -25.7026   51.0692   -9.8967 C.ar    1  UNL1        0.1406
      8 N         -26.1227   49.8598   -9.4383 N.ar    1  UNL1       -0.2258
      9 C         -27.4547   49.9049   -9.6190 C.ar    1  UNL1        0.1116
     10 H         -26.6791   52.8101  -10.7581 H       1  UNL1        0.1674
     11 N         -28.1225   47.1389   -6.1346 N.3     1  UNL1       -0.2655
     12 C         -28.8390   46.1340   -6.9456 C.3     1  UNL1        0.0941
     13 C         -29.0582   46.6836   -8.3653 C.3     1  UNL1        0.1082
     14 N         -28.0290   47.6797   -8.6855 N.pl3   1  UNL1       -0.3034
     15 C         -26.6789   47.4652   -8.1558 C.3     1  UNL1        0.1082
     16 C         -26.7310   47.3005   -6.6226 C.3     1  UNL1        0.0941
     17 C         -28.1505   46.7891   -4.7015 C.3     1  UNL1        0.1154
     18 N         -30.3393   49.7705   -3.9075 N.am    1  UNL1       -0.0442
     19 C         -29.5224   48.8997   -4.5700 C.2     1  UNL1        0.2969
     20 C         -29.0387   47.7469   -3.9394 C.2     1  UNL1        0.1684
     21 C         -29.4313   47.5098   -2.6144 C.2     1  UNL1        0.4261
     22 O         -29.0249   46.4887   -1.9961 O.2     1  UNL1       -0.2139
     23 N         -30.2633   48.3836   -1.9895 N.am    1  UNL1       -0.0486
     24 C         -30.7276   49.4946   -2.6227 C.2     1  UNL1        0.6659
     25 O         -31.5236   50.2615   -2.0152 O.2     1  UNL1       -0.1527
     26 H         -30.5601   48.1935   -1.0047 H       1  UNL1        0.4575
     27 C         -30.2327   51.0471   -6.0099 C.3     1  UNL1        0.0920
     28 C         -30.8301   50.9675   -4.6098 C.3     1  UNL1        0.3234
     29 C         -24.2723   51.4591   -9.9276 C.ar    1  UNL1        0.0339
     30 C         -23.6513   51.7528  -11.1506 C.ar    1  UNL1        0.0027
     31 C         -22.3133   52.1516  -11.1926 C.ar    1  UNL1       -0.0042
     32 C         -21.5463   52.2644  -10.0127 C.ar    1  UNL1       -0.0228
     33 C         -22.1767   51.9430   -8.7887 C.ar    1  UNL1       -0.0042
     34 C         -23.5161   51.5470   -8.7495 C.ar    1  UNL1        0.0027
     35 C         -20.0823   52.7451  -10.0955 C.3     1  UNL1        0.0189
     36 C         -19.9308   54.2704   -9.8802 C.3     1  UNL1        0.0044
     37 C         -19.2402   52.0355   -9.0138 C.3     1  UNL1        0.0044
     38 C         -19.5117   52.4086  -11.4900 C.3     1  UNL1        0.0044
@<TRIPOS>BOND
     1    27    28    1
     2    28    18    1
     3    18    19    1
     4    19    20    2
     5    20    17    1
     6    17    11    1
     7    11    12    1
     8    12    13    1
     9    13    14    1
    10    14     1    1
    11     1     2   ar
    12     2     3   ar
    13     3     4   ar
    14     4     5   ar
    15     5     6   ar
    16     6     7   ar
    17     7    29    1
    18    29    30   ar
    19    30    31   ar
    20    31    32   ar
    21    32    35    1
    22    35    36    1
    23    35    37    1
    24    35    38    1
    25    32    33   ar
    26    33    34   ar
    27     7     8   ar
    28     8     9   ar
    29    14    15    1
    30    15    16    1
    31    20    21    1
    32    21    22    2
    33    21    23    1
    34    23    24    1
    35    24    25    2
    36    24    18    1
    37    16    11    1
    38     9     1   ar
    39     9     5   ar
    40    34    29   ar
    41     6    10    1
    42    23    26    1
@<TRIPOS>MOLECULE
*****
 38 42 0 0 0
SMALL
GASTEIGER

@<TRIPOS>ATOM
      1 C         -29.9001   49.9371   -9.0796 C.ar    1  UNL1        0.0673
      2 C         -31.1447   50.0925   -9.7288 C.ar    1  UNL1        0.0161
      3 C         -31.2309   50.7758  -10.9630 C.ar    1  UNL1        0.0028
      4 C         -30.0796   51.3249  -11.5564 C.ar    1  UNL1        0.0186
      5 C         -28.8707   51.1687  -10.8833 C.ar    1  UNL1        0.0768
      6 N         -27.6614   51.6228  -11.2349 N.ar    1  UNL1       -0.3373
      7 C         -26.8492   51.2139  -10.2242 C.ar    1  UNL1        0.1406
      8 N         -27.5082   50.5226   -9.2562 N.ar    1  UNL1       -0.2258
      9 C         -28.7784   50.5036   -9.6981 C.ar    1  UNL1        0.1116
     10 H         -27.4183   52.1510  -12.1015 H       1  UNL1        0.1674
     11 N         -27.6347   48.9474   -6.4013 N.3     1  UNL1       -0.2655
     12 C         -28.7160   49.5772   -5.6171 C.3     1  UNL1        0.0941
     13 C         -29.8196   50.0685   -6.5690 C.3     1  UNL1        0.1082
     14 N         -29.8096   49.2770   -7.8048 N.pl3   1  UNL1       -0.3034
     15 C         -29.4734   47.8534   -7.7045 C.3     1  UNL1        0.1082
     16 C         -28.1076   47.6791   -7.0084 C.3     1  UNL1        0.0941
     17 C         -26.4312   48.7302   -5.5759 C.3     1  UNL1        0.1154
     18 N         -27.3345   45.6002   -3.6531 N.am    1  UNL1       -0.0442
     19 C         -27.0688   46.4629   -4.6777 C.2     1  UNL1        0.2969
     20 C         -26.7393   47.7999   -4.4241 C.2     1  UNL1        0.1684
     21 C         -26.6772   48.2184   -3.0873 C.2     1  UNL1        0.4261
     22 O         -26.3874   49.4115   -2.7996 O.2     1  UNL1       -0.2139
     23 N         -26.9250   47.3305   -2.0890 N.am    1  UNL1       -0.0486
     24 C         -27.2368   46.0337   -2.3568 C.2     1  UNL1        0.6659
     25 O         -27.4275   45.2361   -1.3985 O.2     1  UNL1       -0.1527
     26 H         -26.8658   47.6483   -1.0943 H       1  UNL1        0.4575
     27 C         -29.0270   44.1197   -4.6556 C.3     1  UNL1        0.0920
     28 C         -27.6711   44.2012   -3.9638 C.3     1  UNL1        0.3234
     29 C         -25.3870   51.4559  -10.1783 C.ar    1  UNL1        0.0339
     30 C         -24.6905   51.7698  -11.3547 C.ar    1  UNL1        0.0027
     31 C         -23.3187   52.0309  -11.3223 C.ar    1  UNL1       -0.0042
     32 C         -22.5929   51.9808  -10.1124 C.ar    1  UNL1       -0.0228
     33 C         -23.3017   51.6404   -8.9374 C.ar    1  UNL1       -0.0042
     34 C         -24.6745   51.3823   -8.9724 C.ar    1  UNL1        0.0027
     35 C         -21.0860   52.3131  -10.1104 C.3     1  UNL1        0.0189
     36 C         -20.4792   52.3726   -8.6877 C.3     1  UNL1        0.0044
     37 C         -20.3149   51.2352  -10.9017 C.3     1  UNL1        0.0044
     38 C         -20.8652   53.6899  -10.7732 C.3     1  UNL1        0.0044
@<TRIPOS>BOND
     1    27    28    1
     2    28    18    1
     3    18    19    1
     4    19    20    2
     5    20    17    1
     6    17    11    1
     7    11    12    1
     8    12    13    1
     9    13    14    1
    10    14     1    1
    11     1     2   ar
    12     2     3   ar
    13     3     4   ar
    14     4     5   ar
    15     5     6   ar
    16     6     7   ar
    17     7    29    1
    18    29    30   ar
    19    30    31   ar
    20    31    32   ar
    21    32    35    1
    22    35    36    1
    23    35    37    1
    24    35    38    1
    25    32    33   ar
    26    33    34   ar
    27     7     8   ar
    28     8     9   ar
    29    14    15    1
    30    15    16    1
    31    20    21    1
    32    21    22    2
    33    21    23    1
    34    23    24    1
    35    24    25    2
    36    24    18    1
    37    16    11    1
    38     9     1   ar
    39     9     5   ar
    40    34    29   ar
    41     6    10    1
    42    23    26    1
@<TRIPOS>MOLECULE
*****
 38 42 0 0 0
SMALL
GASTEIGER

@<TRIPOS>ATOM
      1 C         -28.9891   50.6535  -10.1152 C.ar    1  UNL1        0.0673
      2 C         -29.9113   49.8670   -9.3903 C.ar    1  UNL1        0.0161
      3 C         -29.4934   49.1292   -8.2594 C.ar    1  UNL1        0.0028
      4 C         -28.1484   49.1553   -7.8478 C.ar    1  UNL1        0.0186
      5 C         -27.2611   49.9273   -8.5933 C.ar    1  UNL1        0.0768
      6 N         -25.9440   50.0838   -8.4120 N.ar    1  UNL1       -0.3373
      7 C         -25.5686   50.9130   -9.4218 C.ar    1  UNL1        0.1406
      8 N         -26.6032   51.2780  -10.2254 N.ar    1  UNL1       -0.2258
      9 C         -27.6583   50.6481   -9.6786 C.ar    1  UNL1        0.1116
     10 H         -25.3630   49.6695   -7.6505 H       1  UNL1        0.1674
     11 N         -30.8001   50.4155  -13.2693 N.3     1  UNL1       -0.2655
     12 C         -31.3877   51.6526  -12.7171 C.3     1  UNL1        0.0941
     13 C         -30.7417   51.9632  -11.3563 C.3     1  UNL1        0.1082
     14 N         -29.3981   51.3764  -11.2896 N.pl3   1  UNL1       -0.3034
     15 C         -28.6000   51.3494  -12.5192 C.3     1  UNL1        0.1082
     16 C         -29.3820   50.6387  -13.6433 C.3     1  UNL1        0.0941
     17 C         -31.5839   49.9154  -14.4149 C.3     1  UNL1        0.1154
     18 N         -30.5128   46.8305  -16.3245 N.am    1  UNL1       -0.0442
     19 C         -30.8636   48.1161  -16.0268 C.2     1  UNL1        0.2969
     20 C         -31.2174   48.4806  -14.7220 C.2     1  UNL1        0.1684
     21 C         -31.1854   47.4883  -13.7318 C.2     1  UNL1        0.4261
     22 O         -31.4959   47.7588  -12.5399 O.2     1  UNL1       -0.2139
     23 N         -30.8103   46.2230  -14.0551 N.am    1  UNL1       -0.0486
     24 C         -30.4636   45.8911  -15.3280 C.2     1  UNL1        0.6659
     25 O         -30.0908   44.7122  -15.5767 O.2     1  UNL1       -0.1527
     26 H         -30.7786   45.4914  -13.3082 H       1  UNL1        0.4575
     27 C         -29.4029   47.6529  -18.3624 C.3     1  UNL1        0.0920
     28 C         -30.1421   46.4913  -17.7082 C.3     1  UNL1        0.3234
     29 C         -24.1858   51.4084   -9.6249 C.ar    1  UNL1        0.0339
     30 C         -23.2997   51.4800   -8.5400 C.ar    1  UNL1        0.0027
     31 C         -21.9848   51.9150   -8.7215 C.ar    1  UNL1       -0.0042
     32 C         -21.5110   52.3005   -9.9943 C.ar    1  UNL1       -0.0228
     33 C         -22.4204   52.2462  -11.0755 C.ar    1  UNL1       -0.0042
     34 C         -23.7344   51.8081  -10.8913 C.ar    1  UNL1        0.0027
     35 C         -20.0411   52.7388  -10.1625 C.3     1  UNL1        0.0189
     36 C         -19.1770   52.4605   -8.9088 C.3     1  UNL1        0.0044
     37 C         -19.4043   51.9793  -11.3459 C.3     1  UNL1        0.0044
     38 C         -19.9888   54.2564  -10.4415 C.3     1  UNL1        0.0044
@<TRIPOS>BOND
     1    27    28    1
     2    28    18    1
     3    18    19    1
     4    19    20    2
     5    20    17    1
     6    17    11    1
     7    11    12    1
     8    12    13    1
     9    13    14    1
    10    14     1    1
    11     1     2   ar
    12     2     3   ar
    13     3     4   ar
    14     4     5   ar
    15     5     6   ar
    16     6     7   ar
    17     7    29    1
    18    29    30   ar
    19    30    31   ar
    20    31    32   ar
    21    32    35    1
    22    35    36    1
    23    35    37    1
    24    35    38    1
    25    32    33   ar
    26    33    34   ar
    27     7     8   ar
    28     8     9   ar
    29    14    15    1
    30    15    16    1
    31    20    21    1
    32    21    22    2
    33    21    23    1
    34    23    24    1
    35    24    25    2
    36    24    18    1
    37    16    11    1
    38     9     1   ar
    39     9     5   ar
    40    34    29   ar
    41     6    10    1
    42    23    26    1
@<TRIPOS>MOLECULE
*****
 38 42 0 0 0
SMALL
GASTEIGER

@<TRIPOS>ATOM
      1 C         -28.9615   49.9556   -8.9026 C.ar    1  UNL1        0.0673
      2 C         -29.6130   48.9242   -8.1910 C.ar    1  UNL1        0.0161
      3 C         -28.8688   48.0004   -7.4226 C.ar    1  UNL1        0.0028
      4 C         -27.4656   48.0855   -7.3673 C.ar    1  UNL1        0.0186
      5 C         -26.8525   49.1035   -8.0929 C.ar    1  UNL1        0.0768
      6 N         -25.5449   49.3640   -8.2134 N.ar    1  UNL1       -0.3373
      7 C         -25.4983   50.4392   -9.0441 C.ar    1  UNL1        0.1406
      8 N         -26.7284   50.8574   -9.4456 N.ar    1  UNL1       -0.2258
      9 C         -27.5638   50.0029   -8.8282 C.ar    1  UNL1        0.1116
     10 H         -24.7598   48.8559   -7.7502 H       1  UNL1        0.1674
     11 N         -30.3496   50.5310  -12.2233 N.3     1  UNL1       -0.2655
     12 C         -31.5227   50.8499  -11.3849 C.3     1  UNL1        0.0941
     13 C         -31.1518   50.6852   -9.9014 C.3     1  UNL1        0.1082
     14 N         -29.7083   50.8760   -9.7177 N.pl3   1  UNL1       -0.3034
     15 C         -29.0349   51.8678  -10.5618 C.3     1  UNL1        0.1082
     16 C         -29.2957   51.5608  -12.0512 C.3     1  UNL1        0.0941
     17 C         -30.7290   50.3845  -13.6416 C.3     1  UNL1        0.1154
     18 N         -30.1157   46.6529  -13.5452 N.am    1  UNL1       -0.0442
     19 C         -30.2851   47.9509  -13.1567 C.2     1  UNL1        0.2969
     20 C         -30.5263   48.9575  -14.0997 C.2     1  UNL1        0.1684
     21 C         -30.6023   48.5874  -15.4500 C.2     1  UNL1        0.4261
     22 O         -30.8154   49.4519  -16.3429 O.2     1  UNL1       -0.2139
     23 N         -30.4517   47.2839  -15.8028 N.am    1  UNL1       -0.0486
     24 C         -30.2249   46.3200  -14.8700 C.2     1  UNL1        0.6659
     25 O         -30.1233   45.1182  -15.2390 O.2     1  UNL1       -0.1527
     26 H         -30.5208   47.0148  -16.8112 H       1  UNL1        0.4575
     27 C         -29.4060   46.2690  -11.2192 C.3     1  UNL1        0.0920
     28 C         -29.8700   45.6249  -12.5206 C.3     1  UNL1        0.3234
     29 C         -24.2484   51.1226   -9.4556 C.ar    1  UNL1        0.0339
     30 C         -23.2500   51.3901   -8.5074 C.ar    1  UNL1        0.0027
     31 C         -22.0543   52.0051   -8.8858 C.ar    1  UNL1       -0.0042
     32 C         -21.8172   52.3808  -10.2259 C.ar    1  UNL1       -0.0228
     33 C         -22.8406   52.1271  -11.1679 C.ar    1  UNL1       -0.0042
     34 C         -24.0346   51.5094  -10.7868 C.ar    1  UNL1        0.0027
     35 C         -20.4685   53.0229  -10.6128 C.3     1  UNL1        0.0189
     36 C         -19.3209   51.9926  -10.7447 C.3     1  UNL1        0.0044
     37 C         -20.6065   53.7439  -11.9707 C.3     1  UNL1        0.0044
     38 C         -20.0598   54.0452   -9.5305 C.3     1  UNL1        0.0044
@<TRIPOS>BOND
     1    27    28    1
     2    28    18    1
     3    18    19    1
     4    19    20    2
     5    20    17    1
     6    17    11    1
     7    11    12    1
     8    12    13    1
     9    13    14    1
    10    14     1    1
    11     1     2   ar
    12     2     3   ar
    13     3     4   ar
    14     4     5   ar
    15     5     6   ar
    16     6     7   ar
    17     7    29    1
    18    29    30   ar
    19    30    31   ar
    20    31    32   ar
    21    32    35    1
    22    35    36    1
    23    35    37    1
    24    35    38    1
    25    32    33   ar
    26    33    34   ar
    27     7     8   ar
    28     8     9   ar
    29    14    15    1
    30    15    16    1
    31    20    21    1
    32    21    22    2
    33    21    23    1
    34    23    24    1
    35    24    25    2
    36    24    18    1
    37    16    11    1
    38     9     1   ar
    39     9     5   ar
    40    34    29   ar
    41     6    10    1
    42    23    26    1
