@<TRIPOS>MOLECULE
*****
 51 56 0 0 0
SMALL
GASTEIGER

@<TRIPOS>ATOM
      1 O          -9.2864  -11.9632   31.7008 O.2     1  UNL1       -0.2701
      2 C          -9.6804  -11.9379   30.5024 C.2     1  UNL1        0.2483
      3 N         -10.7670  -11.0771   30.1276 N.am    1  UNL1       -0.2945
      4 H         -10.8993  -10.8477   29.1163 H       1  UNL1        0.1501
      5 C          -8.9907  -12.7741   29.4942 C.ar    1  UNL1        0.0808
      6 C          -9.7210  -13.7312   28.7697 C.ar    1  UNL1        0.0080
      7 C          -9.0903  -14.5336   27.8156 C.ar    1  UNL1        0.0148
      8 C          -7.7175  -14.3895   27.5616 C.ar    1  UNL1        0.0502
      9 C          -6.9897  -13.4215   28.2693 C.ar    1  UNL1        0.0443
     10 C          -7.6169  -12.6164   29.2252 C.ar    1  UNL1        0.1457
     11 F          -6.8890  -11.6526   29.8432 F       1  UNL1       -0.2040
     12 N          -7.0614  -15.2105   26.5769 N.pl3   1  UNL1       -0.3040
     13 C          -7.8236  -15.8125   25.4775 C.3     1  UNL1        0.1123
     14 C          -7.0027  -15.7848   24.1853 C.3     1  UNL1        0.1136
     15 N          -5.6347  -16.2630   24.4331 N.pl3   1  UNL1       -0.2897
     16 C          -4.8857  -15.6613   25.5440 C.3     1  UNL1        0.1136
     17 C          -5.7098  -15.7214   26.8284 C.3     1  UNL1        0.1123
     18 C          -4.9405  -17.0748   23.4643 C.ar    1  UNL1        0.1348
     19 C          -3.5425  -17.1874   23.4745 C.ar    1  UNL1        0.0708
     20 C          -2.8968  -17.9838   22.5247 C.ar    1  UNL1        0.1418
     21 O          -1.5031  -18.0644   22.5780 O.3     1  UNL1       -0.5054
     22 C          -3.6588  -18.6771   21.5547 C.ar    1  UNL1        0.1242
     23 C          -5.0587  -18.5410   21.5914 C.ar    1  UNL1        0.1072
     24 N          -5.6522  -17.7585   22.5291 N.ar    1  UNL1       -0.2290
     25 H          -0.9512  -18.6172   21.9362 H       1  UNL1        0.2922
     26 C          -2.9999  -19.5484   20.5072 C.3     1  UNL1        0.4228
     27 F          -3.9330  -20.2342   19.7483 F       1  UNL1       -0.1657
     28 F          -2.2460  -18.7619   19.6549 F       1  UNL1       -0.1657
     29 F          -2.1792  -20.4759   21.1232 F       1  UNL1       -0.1657
     30 C         -11.5590  -10.3482   31.1235 C.3     1  UNL1        0.1535
     31 C         -12.0638  -11.3000   32.1728 C.2     1  UNL1        0.2443
     32 O         -12.4677  -10.8495   33.2799 O.2     1  UNL1       -0.2730
     33 N         -12.1672  -12.7013   31.8761 N.am    1  UNL1       -0.2825
     34 H         -12.1453  -12.9892   30.8713 H       1  UNL1        0.1549
     35 C         -12.3984  -13.7184   32.8657 C.ar    1  UNL1        0.0535
     36 C         -11.6198  -13.7355   34.0310 C.ar    1  UNL1        0.0353
     37 C         -11.8558  -14.7075   35.0063 C.ar    1  UNL1        0.1002
     38 N         -12.8467  -15.6214   34.8326 N.ar    1  UNL1       -0.2422
     39 C         -13.6311  -15.6183   33.7225 C.ar    1  UNL1        0.1002
     40 C         -13.4280  -14.6643   32.7222 C.ar    1  UNL1        0.0353
     41 C         -10.7227   -9.2376   31.7804 C.3     1  UNL1        0.0569
     42 C         -10.9388   -7.9194   31.0956 C.ar    1  UNL1       -0.0017
     43 C         -12.1627   -7.3545   30.7500 C.ar    1  UNL1        0.0681
     44 N         -11.9815   -6.1226   30.2216 N.ar    1  UNL1       -0.3523
     45 C         -10.6554   -5.9020   30.2393 C.ar    1  UNL1        0.0563
     46 C          -9.9831   -4.7574   29.8132 C.ar    1  UNL1        0.0170
     47 C          -8.5823   -4.7314   29.9421 C.ar    1  UNL1        0.0015
     48 C          -7.8931   -5.8361   30.4904 C.ar    1  UNL1        0.0001
     49 C          -8.5981   -6.9774   30.9141 C.ar    1  UNL1        0.0012
     50 C          -9.9857   -6.9749   30.7694 C.ar    1  UNL1        0.0131
     51 H         -12.7252   -5.4718   29.8842 H       1  UNL1        0.1660
@<TRIPOS>BOND
     1     1     2    2
     2     2     3   am
     3     3    30    1
     4    30    41    1
     5    41    42    1
     6    42    43   ar
     7    43    44   ar
     8    44    45   ar
     9    45    46   ar
    10    46    47   ar
    11    47    48   ar
    12    48    49   ar
    13    49    50   ar
    14    30    31    1
    15    31    32    2
    16    31    33   am
    17    33    35    1
    18    35    36   ar
    19    36    37   ar
    20    37    38   ar
    21    38    39   ar
    22    39    40   ar
    23     2     5    1
    24     5     6   ar
    25     6     7   ar
    26     7     8   ar
    27     8    12    1
    28    12    13    1
    29    13    14    1
    30    14    15    1
    31    15    18    1
    32    18    19   ar
    33    19    20   ar
    34    20    21    1
    35    20    22   ar
    36    22    26    1
    37    26    27    1
    38    26    28    1
    39    26    29    1
    40    22    23   ar
    41    23    24   ar
    42    15    16    1
    43    16    17    1
    44     8     9   ar
    45     9    10   ar
    46    10    11    1
    47    50    42   ar
    48    40    35   ar
    49    10     5   ar
    50    50    45   ar
    51    17    12    1
    52    24    18   ar
    53     3     4    1
    54    44    51    1
    55    33    34    1
    56    21    25    1
@<TRIPOS>MOLECULE
*****
 51 56 0 0 0
SMALL
GASTEIGER

@<TRIPOS>ATOM
      1 O         -10.4424  -11.3692   30.3610 O.2     1  UNL1       -0.2701
      2 C          -9.3155  -11.8926   30.5803 C.2     1  UNL1        0.2483
      3 N          -8.6678  -11.6857   31.8451 N.am    1  UNL1       -0.2945
      4 H          -7.8960  -12.3328   32.1253 H       1  UNL1        0.1501
      5 C          -8.6947  -12.7414   29.5384 C.ar    1  UNL1        0.0808
      6 C          -9.4819  -13.6765   28.8453 C.ar    1  UNL1        0.0080
      7 C          -8.9167  -14.4902   27.8603 C.ar    1  UNL1        0.0148
      8 C          -7.5539  -14.3796   27.5433 C.ar    1  UNL1        0.0502
      9 C          -6.7697  -13.4336   28.2197 C.ar    1  UNL1        0.0443
     10 C          -7.3313  -12.6172   29.2064 C.ar    1  UNL1        0.1457
     11 F          -6.5512  -11.6749   29.7932 F       1  UNL1       -0.2040
     12 N          -6.9652  -15.2125   26.5265 N.pl3   1  UNL1       -0.3040
     13 C          -7.7935  -15.7943   25.4646 C.3     1  UNL1        0.1123
     14 C          -7.0361  -15.7815   24.1339 C.3     1  UNL1        0.1136
     15 N          -5.6688  -16.2909   24.3139 N.pl3   1  UNL1       -0.2897
     16 C          -4.8532  -15.7092   25.3880 C.3     1  UNL1        0.1136
     17 C          -5.6148  -15.7543   26.7109 C.3     1  UNL1        0.1123
     18 C          -5.0411  -17.1155   23.3112 C.ar    1  UNL1        0.1348
     19 C          -3.6474  -17.2623   23.2551 C.ar    1  UNL1        0.0708
     20 C          -3.0668  -18.0703   22.2737 C.ar    1  UNL1        0.1418
     21 O          -1.6746  -18.1852   22.2610 O.3     1  UNL1       -0.5054
     22 C          -3.8904  -18.7407   21.3386 C.ar    1  UNL1        0.1242
     23 C          -5.2832  -18.5705   21.4414 C.ar    1  UNL1        0.1072
     24 N          -5.8126  -17.7776   22.4084 N.ar    1  UNL1       -0.2290
     25 H          -1.1672  -18.7487   21.5923 H       1  UNL1        0.2922
     26 C          -3.3031  -19.6235   20.2586 C.3     1  UNL1        0.4228
     27 F          -2.5824  -18.8904   19.3312 F       1  UNL1       -0.1657
     28 F          -2.4516  -20.5524   20.8288 F       1  UNL1       -0.1657
     29 F          -4.3207  -20.2815   19.5916 F       1  UNL1       -0.1657
     30 C          -9.1874  -10.7396   32.8377 C.3     1  UNL1        0.1535
     31 C          -9.0201   -9.3307   32.3392 C.2     1  UNL1        0.2443
     32 O          -8.1541   -8.5814   32.8686 O.2     1  UNL1       -0.2730
     33 N          -9.7810   -8.8776   31.2087 N.am    1  UNL1       -0.2825
     34 H         -10.2275   -9.6014   30.6007 H       1  UNL1        0.1549
     35 C          -9.8827   -7.5010   30.8066 C.ar    1  UNL1        0.0535
     36 C          -8.7623   -6.8572   30.2636 C.ar    1  UNL1        0.0353
     37 C          -8.8621   -5.5266   29.8499 C.ar    1  UNL1        0.1002
     38 N         -10.0446   -4.8655   29.9585 N.ar    1  UNL1       -0.2422
     39 C         -11.1534   -5.4687   30.4627 C.ar    1  UNL1        0.1002
     40 C         -11.0969   -6.7979   30.8892 C.ar    1  UNL1        0.0353
     41 C         -10.6699  -11.0190   33.1353 C.3     1  UNL1        0.0569
     42 C         -10.8540  -12.3796   33.7420 C.ar    1  UNL1       -0.0017
     43 C         -10.1148  -12.9303   34.7845 C.ar    1  UNL1        0.0681
     44 N         -10.6105  -14.1416   35.1261 N.ar    1  UNL1       -0.3523
     45 C         -11.6609  -14.3555   34.3147 C.ar    1  UNL1        0.0563
     46 C         -12.5066  -15.4638   34.3011 C.ar    1  UNL1        0.0170
     47 C         -13.5649  -15.4719   33.3739 C.ar    1  UNL1        0.0015
     48 C         -13.7537  -14.3834   32.4933 C.ar    1  UNL1        0.0001
     49 C         -12.8856  -13.2770   32.5311 C.ar    1  UNL1        0.0012
     50 C         -11.8434  -13.3002   33.4582 C.ar    1  UNL1        0.0131
     51 H         -10.2557  -14.7724   35.8789 H       1  UNL1        0.1660
@<TRIPOS>BOND
     1     1     2    2
     2     2     3   am
     3     3    30    1
     4    30    41    1
     5    41    42    1
     6    42    43   ar
     7    43    44   ar
     8    44    45   ar
     9    45    46   ar
    10    46    47   ar
    11    47    48   ar
    12    48    49   ar
    13    49    50   ar
    14    30    31    1
    15    31    32    2
    16    31    33   am
    17    33    35    1
    18    35    36   ar
    19    36    37   ar
    20    37    38   ar
    21    38    39   ar
    22    39    40   ar
    23     2     5    1
    24     5     6   ar
    25     6     7   ar
    26     7     8   ar
    27     8    12    1
    28    12    13    1
    29    13    14    1
    30    14    15    1
    31    15    18    1
    32    18    19   ar
    33    19    20   ar
    34    20    21    1
    35    20    22   ar
    36    22    26    1
    37    26    27    1
    38    26    28    1
    39    26    29    1
    40    22    23   ar
    41    23    24   ar
    42    15    16    1
    43    16    17    1
    44     8     9   ar
    45     9    10   ar
    46    10    11    1
    47    50    42   ar
    48    40    35   ar
    49    10     5   ar
    50    50    45   ar
    51    17    12    1
    52    24    18   ar
    53     3     4    1
    54    44    51    1
    55    33    34    1
    56    21    25    1
@<TRIPOS>MOLECULE
*****
 51 56 0 0 0
SMALL
GASTEIGER

@<TRIPOS>ATOM
      1 O          -8.5591  -10.0910   30.6035 O.2     1  UNL1       -0.2701
      2 C          -8.5069  -11.3264   30.8546 C.2     1  UNL1        0.2483
      3 N          -8.8288  -11.7999   32.1715 N.am    1  UNL1       -0.2945
      4 H          -9.0589  -12.8118   32.2984 H       1  UNL1        0.1501
      5 C          -8.1460  -12.2717   29.7741 C.ar    1  UNL1        0.0808
      6 C          -9.1265  -13.1281   29.2454 C.ar    1  UNL1        0.0080
      7 C          -8.8080  -14.0305   28.2275 C.ar    1  UNL1        0.0148
      8 C          -7.5036  -14.0891   27.7126 C.ar    1  UNL1        0.0502
      9 C          -6.5274  -13.2219   28.2248 C.ar    1  UNL1        0.0443
     10 C          -6.8418  -12.3173   29.2437 C.ar    1  UNL1        0.1457
     11 F          -5.8833  -11.4559   29.6681 F       1  UNL1       -0.2040
     12 N          -7.1688  -15.0141   26.6608 N.pl3   1  UNL1       -0.3040
     13 C          -8.2134  -15.8025   25.9979 C.3     1  UNL1        0.1123
     14 C          -7.9155  -15.9259   24.5011 C.3     1  UNL1        0.1136
     15 N          -6.5108  -16.3017   24.2841 N.pl3   1  UNL1       -0.2897
     16 C          -5.4744  -15.5126   24.9626 C.3     1  UNL1        0.1136
     17 C          -5.7749  -15.4225   26.4571 C.3     1  UNL1        0.1123
     18 C          -6.1358  -17.2137   23.2319 C.ar    1  UNL1        0.1348
     19 C          -7.0349  -17.5619   22.2134 C.ar    1  UNL1        0.0708
     20 C          -6.6429  -18.4463   21.2048 C.ar    1  UNL1        0.1418
     21 O          -7.5745  -18.7602   20.2122 O.3     1  UNL1       -0.5054
     22 C          -5.3354  -18.9872   21.2144 C.ar    1  UNL1        0.1242
     23 C          -4.4664  -18.6001   22.2509 C.ar    1  UNL1        0.1072
     24 N          -4.8815  -17.7381   23.2144 N.ar    1  UNL1       -0.2290
     25 H          -7.3803  -19.3862   19.4425 H       1  UNL1        0.2922
     26 C          -4.8706  -19.9497   20.1428 C.3     1  UNL1        0.4228
     27 F          -5.9181  -20.3716   19.3417 F       1  UNL1       -0.1657
     28 F          -3.9337  -19.3303   19.3356 F       1  UNL1       -0.1657
     29 F          -4.3033  -21.0644   20.7335 F       1  UNL1       -0.1657
     30 C          -9.0497  -10.8825   33.2939 C.3     1  UNL1        0.1535
     31 C          -8.2919   -9.6035   33.0667 C.2     1  UNL1        0.2443
     32 O          -8.9228   -8.5160   32.9613 O.2     1  UNL1       -0.2730
     33 N          -6.8559   -9.6150   33.0615 N.am    1  UNL1       -0.2825
     34 H          -6.3742  -10.4458   33.4746 H       1  UNL1        0.1549
     35 C          -6.0439   -8.5153   32.6160 C.ar    1  UNL1        0.0535
     36 C          -5.0965   -7.9609   33.4876 C.ar    1  UNL1        0.0353
     37 C          -4.2889   -6.9075   33.0520 C.ar    1  UNL1        0.1002
     38 N          -4.4107   -6.4341   31.7838 N.ar    1  UNL1       -0.2422
     39 C          -5.3064   -6.9639   30.9095 C.ar    1  UNL1        0.1002
     40 C          -6.1342   -8.0177   31.3047 C.ar    1  UNL1        0.0353
     41 C         -10.5476  -10.5818   33.4674 C.3     1  UNL1        0.0569
     42 C         -11.3910  -11.6047   32.7632 C.ar    1  UNL1       -0.0017
     43 C         -11.9743  -11.4764   31.5063 C.ar    1  UNL1        0.0681
     44 N         -12.5950  -12.6256   31.1546 N.ar    1  UNL1       -0.3523
     45 C         -12.4006  -13.4801   32.1742 C.ar    1  UNL1        0.0563
     46 C         -12.8375  -14.8008   32.2652 C.ar    1  UNL1        0.0170
     47 C         -12.5023  -15.5259   33.4235 C.ar    1  UNL1        0.0015
     48 C         -11.7440  -14.9225   34.4515 C.ar    1  UNL1        0.0001
     49 C         -11.3146  -13.5882   34.3313 C.ar    1  UNL1        0.0012
     50 C         -11.6665  -12.8941   33.1734 C.ar    1  UNL1        0.0131
     51 H         -13.1068  -12.8120   30.2637 H       1  UNL1        0.1660
@<TRIPOS>BOND
     1     1     2    2
     2     2     3   am
     3     3    30    1
     4    30    41    1
     5    41    42    1
     6    42    43   ar
     7    43    44   ar
     8    44    45   ar
     9    45    46   ar
    10    46    47   ar
    11    47    48   ar
    12    48    49   ar
    13    49    50   ar
    14    30    31    1
    15    31    32    2
    16    31    33   am
    17    33    35    1
    18    35    36   ar
    19    36    37   ar
    20    37    38   ar
    21    38    39   ar
    22    39    40   ar
    23     2     5    1
    24     5     6   ar
    25     6     7   ar
    26     7     8   ar
    27     8    12    1
    28    12    13    1
    29    13    14    1
    30    14    15    1
    31    15    18    1
    32    18    19   ar
    33    19    20   ar
    34    20    21    1
    35    20    22   ar
    36    22    26    1
    37    26    27    1
    38    26    28    1
    39    26    29    1
    40    22    23   ar
    41    23    24   ar
    42    15    16    1
    43    16    17    1
    44     8     9   ar
    45     9    10   ar
    46    10    11    1
    47    50    42   ar
    48    40    35   ar
    49    10     5   ar
    50    50    45   ar
    51    17    12    1
    52    24    18   ar
    53     3     4    1
    54    44    51    1
    55    33    34    1
    56    21    25    1
@<TRIPOS>MOLECULE
*****
 51 56 0 0 0
SMALL
GASTEIGER

@<TRIPOS>ATOM
      1 O         -10.7266  -12.1338   29.8994 O.2     1  UNL1       -0.2701
      2 C          -9.4997  -12.3555   30.0930 C.2     1  UNL1        0.2483
      3 N          -8.8702  -11.8789   31.2925 N.am    1  UNL1       -0.2945
      4 H          -7.9560  -12.2971   31.5794 H       1  UNL1        0.1501
      5 C          -8.7365  -13.1348   29.0923 C.ar    1  UNL1        0.0808
      6 C          -9.3880  -14.1301   28.3443 C.ar    1  UNL1        0.0080
      7 C          -8.6870  -14.8801   27.3967 C.ar    1  UNL1        0.0148
      8 C          -7.3217  -14.6445   27.1727 C.ar    1  UNL1        0.0502
      9 C          -6.6731  -13.6384   27.9038 C.ar    1  UNL1        0.0443
     10 C          -7.3708  -12.8854   28.8534 C.ar    1  UNL1        0.1457
     11 F          -6.7200  -11.8826   29.4949 F       1  UNL1       -0.2040
     12 N          -6.5935  -15.4111   26.1948 N.pl3   1  UNL1       -0.3040
     13 C          -7.1356  -15.6104   24.8463 C.3     1  UNL1        0.1123
     14 C          -6.0114  -15.5515   23.8085 C.3     1  UNL1        0.1136
     15 N          -4.8725  -16.3778   24.2346 N.pl3   1  UNL1       -0.2897
     16 C          -4.3460  -16.1778   25.5910 C.3     1  UNL1        0.1136
     17 C          -5.4772  -16.2655   26.6132 C.3     1  UNL1        0.1123
     18 C          -4.1108  -17.1476   23.2823 C.ar    1  UNL1        0.1348
     19 C          -2.9094  -16.6620   22.7459 C.ar    1  UNL1        0.0708
     20 C          -2.1908  -17.4313   21.8266 C.ar    1  UNL1        0.1418
     21 O          -0.9994  -16.9039   21.3227 O.3     1  UNL1       -0.5054
     22 C          -2.6792  -18.7022   21.4411 C.ar    1  UNL1        0.1242
     23 C          -3.8834  -19.1505   22.0141 C.ar    1  UNL1        0.1072
     24 N          -4.5549  -18.3760   22.9046 N.ar    1  UNL1       -0.2290
     25 H          -0.4119  -17.3884   20.6577 H       1  UNL1        0.2922
     26 C          -1.9339  -19.5668   20.4473 C.3     1  UNL1        0.4228
     27 F          -0.7777  -20.0976   20.9937 F       1  UNL1       -0.1657
     28 F          -2.7412  -20.6157   20.0457 F       1  UNL1       -0.1657
     29 F          -1.5816  -18.8097   19.3446 F       1  UNL1       -0.1657
     30 C          -9.5603  -10.9868   32.2296 C.3     1  UNL1        0.1535
     31 C         -10.7493  -11.6896   32.8245 C.2     1  UNL1        0.2443
     32 O         -11.5333  -11.0547   33.5822 O.2     1  UNL1       -0.2730
     33 N         -11.0343  -13.0481   32.4564 N.am    1  UNL1       -0.2825
     34 H         -10.5760  -13.4258   31.5960 H       1  UNL1        0.1549
     35 C         -11.9840  -13.8845   33.1389 C.ar    1  UNL1        0.0535
     36 C         -13.0267  -14.4769   32.4134 C.ar    1  UNL1        0.0353
     37 C         -13.9387  -15.3090   33.0673 C.ar    1  UNL1        0.1002
     38 N         -13.8049  -15.5555   34.3972 N.ar    1  UNL1       -0.2422
     39 C         -12.7930  -15.0113   35.1235 C.ar    1  UNL1        0.1002
     40 C         -11.8600  -14.1725   34.5089 C.ar    1  UNL1        0.0353
     41 C          -8.6093  -10.5260   33.3465 C.3     1  UNL1        0.0569
     42 C          -7.2956  -10.0660   32.7845 C.ar    1  UNL1       -0.0017
     43 C          -6.1993  -10.8657   32.4761 C.ar    1  UNL1        0.0681
     44 N          -5.2182  -10.1246   31.9125 N.ar    1  UNL1       -0.3523
     45 C          -5.6894   -8.8667   31.8544 C.ar    1  UNL1        0.0563
     46 C          -5.0446   -7.7457   31.3336 C.ar    1  UNL1        0.0170
     47 C          -5.7356   -6.5203   31.3558 C.ar    1  UNL1        0.0015
     48 C          -7.0417   -6.4444   31.8891 C.ar    1  UNL1        0.0001
     49 C          -7.6686   -7.5928   32.4060 C.ar    1  UNL1        0.0012
     50 C          -6.9563   -8.7920   32.3740 C.ar    1  UNL1        0.0131
     51 H          -4.2904  -10.4671   31.5773 H       1  UNL1        0.1660
@<TRIPOS>BOND
     1     1     2    2
     2     2     3   am
     3     3    30    1
     4    30    41    1
     5    41    42    1
     6    42    43   ar
     7    43    44   ar
     8    44    45   ar
     9    45    46   ar
    10    46    47   ar
    11    47    48   ar
    12    48    49   ar
    13    49    50   ar
    14    30    31    1
    15    31    32    2
    16    31    33   am
    17    33    35    1
    18    35    36   ar
    19    36    37   ar
    20    37    38   ar
    21    38    39   ar
    22    39    40   ar
    23     2     5    1
    24     5     6   ar
    25     6     7   ar
    26     7     8   ar
    27     8    12    1
    28    12    13    1
    29    13    14    1
    30    14    15    1
    31    15    18    1
    32    18    19   ar
    33    19    20   ar
    34    20    21    1
    35    20    22   ar
    36    22    26    1
    37    26    27    1
    38    26    28    1
    39    26    29    1
    40    22    23   ar
    41    23    24   ar
    42    15    16    1
    43    16    17    1
    44     8     9   ar
    45     9    10   ar
    46    10    11    1
    47    50    42   ar
    48    40    35   ar
    49    10     5   ar
    50    50    45   ar
    51    17    12    1
    52    24    18   ar
    53     3     4    1
    54    44    51    1
    55    33    34    1
    56    21    25    1
@<TRIPOS>MOLECULE
*****
 51 56 0 0 0
SMALL
GASTEIGER

@<TRIPOS>ATOM
      1 O          -8.0048  -11.5006   31.7605 O.2     1  UNL1       -0.2701
      2 C          -8.6612  -11.5704   30.6852 C.2     1  UNL1        0.2483
      3 N          -9.8227  -10.7454   30.5047 N.am    1  UNL1       -0.2945
      4 H         -10.1863  -10.5961   29.5360 H       1  UNL1        0.1501
      5 C          -8.2010  -12.4802   29.6121 C.ar    1  UNL1        0.0808
      6 C          -6.8696  -12.4121   29.1682 C.ar    1  UNL1        0.0080
      7 C          -6.4141  -13.2587   28.1545 C.ar    1  UNL1        0.0148
      8 C          -7.2796  -14.1961   27.5694 C.ar    1  UNL1        0.0502
      9 C          -8.6039  -14.2800   28.0239 C.ar    1  UNL1        0.0443
     10 C          -9.0640  -13.4344   29.0382 C.ar    1  UNL1        0.1457
     11 F         -10.3342  -13.5897   29.4888 F       1  UNL1       -0.2040
     12 N          -6.8161  -15.0747   26.5267 N.pl3   1  UNL1       -0.3040
     13 C          -7.7703  -15.7733   25.6585 C.3     1  UNL1        0.1123
     14 C          -7.2414  -15.8253   24.2226 C.3     1  UNL1        0.1136
     15 N          -5.8354  -16.2549   24.2062 N.pl3   1  UNL1       -0.2897
     16 C          -4.8917  -15.5561   25.0884 C.3     1  UNL1        0.1136
     17 C          -5.4242  -15.5370   26.5196 C.3     1  UNL1        0.1123
     18 C          -5.3318  -17.1223   23.1702 C.ar    1  UNL1        0.1348
     19 C          -5.9620  -17.2083   21.9202 C.ar    1  UNL1        0.0708
     20 C          -5.4498  -18.0558   20.9340 C.ar    1  UNL1        0.1418
     21 O          -6.1128  -18.1045   19.7053 O.3     1  UNL1       -0.5054
     22 C          -4.2925  -18.8249   21.2010 C.ar    1  UNL1        0.1242
     23 C          -3.6898  -18.6970   22.4658 C.ar    1  UNL1        0.1072
     24 N          -4.2151  -17.8632   23.4000 N.ar    1  UNL1       -0.2290
     25 H          -5.8141  -18.6843   18.9327 H       1  UNL1        0.2922
     26 C          -3.7059  -19.7565   20.1624 C.3     1  UNL1        0.4228
     27 F          -2.9847  -20.7854   20.7438 F       1  UNL1       -0.1657
     28 F          -4.7237  -20.3154   19.4108 F       1  UNL1       -0.1657
     29 F          -2.8556  -19.0498   19.3312 F       1  UNL1       -0.1657
     30 C         -10.3829   -9.9439   31.5974 C.3     1  UNL1        0.1535
     31 C         -10.9891  -10.8467   32.6362 C.2     1  UNL1        0.2443
     32 O         -11.0169  -10.4778   33.8424 O.2     1  UNL1       -0.2730
     33 N         -11.6112  -12.0781   32.2375 N.am    1  UNL1       -0.2825
     34 H         -11.8637  -12.1919   31.2294 H       1  UNL1        0.1549
     35 C         -11.9970  -13.1179   33.1524 C.ar    1  UNL1        0.0535
     36 C         -13.1196  -13.9065   32.8656 C.ar    1  UNL1        0.0353
     37 C         -13.4852  -14.9333   33.7394 C.ar    1  UNL1        0.1002
     38 N         -12.7456  -15.1763   34.8535 N.ar    1  UNL1       -0.2422
     39 C         -11.6407  -14.4416   35.1484 C.ar    1  UNL1        0.1002
     40 C         -11.2408  -13.4046   34.3019 C.ar    1  UNL1        0.0353
     41 C          -9.3000   -9.0596   32.2374 C.3     1  UNL1        0.0569
     42 C          -8.9214   -7.9245   31.3309 C.ar    1  UNL1       -0.0017
     43 C          -7.7622   -7.8232   30.5676 C.ar    1  UNL1        0.0681
     44 N          -7.7930   -6.7037   29.8092 N.ar    1  UNL1       -0.3523
     45 C          -8.9648   -6.1030   30.0805 C.ar    1  UNL1        0.0563
     46 C          -9.4583   -4.9231   29.5258 C.ar    1  UNL1        0.0170
     47 C         -10.7278   -4.4816   29.9419 C.ar    1  UNL1        0.0015
     48 C         -11.4683   -5.2225   30.8898 C.ar    1  UNL1        0.0001
     49 C         -10.9459   -6.4112   31.4313 C.ar    1  UNL1        0.0012
     50 C          -9.6831   -6.8206   31.0024 C.ar    1  UNL1        0.0131
     51 H          -7.0599   -6.3830   29.1383 H       1  UNL1        0.1660
@<TRIPOS>BOND
     1     1     2    2
     2     2     3   am
     3     3    30    1
     4    30    41    1
     5    41    42    1
     6    42    43   ar
     7    43    44   ar
     8    44    45   ar
     9    45    46   ar
    10    46    47   ar
    11    47    48   ar
    12    48    49   ar
    13    49    50   ar
    14    30    31    1
    15    31    32    2
    16    31    33   am
    17    33    35    1
    18    35    36   ar
    19    36    37   ar
    20    37    38   ar
    21    38    39   ar
    22    39    40   ar
    23     2     5    1
    24     5     6   ar
    25     6     7   ar
    26     7     8   ar
    27     8    12    1
    28    12    13    1
    29    13    14    1
    30    14    15    1
    31    15    18    1
    32    18    19   ar
    33    19    20   ar
    34    20    21    1
    35    20    22   ar
    36    22    26    1
    37    26    27    1
    38    26    28    1
    39    26    29    1
    40    22    23   ar
    41    23    24   ar
    42    15    16    1
    43    16    17    1
    44     8     9   ar
    45     9    10   ar
    46    10    11    1
    47    50    42   ar
    48    40    35   ar
    49    10     5   ar
    50    50    45   ar
    51    17    12    1
    52    24    18   ar
    53     3     4    1
    54    44    51    1
    55    33    34    1
    56    21    25    1
