@<TRIPOS>MOLECULE
*****
 47 52 0 0 0
SMALL
GASTEIGER

@<TRIPOS>ATOM
      1 C          61.4365   84.2479   11.9240 C.ar    1  UNL1        0.0702
      2 C          60.9725   83.8645   10.6563 C.ar    1  UNL1        0.0191
      3 C          60.0922   82.7888   10.5288 C.ar    1  UNL1        0.0356
      4 C          59.6957   82.0782   11.6729 C.ar    1  UNL1        0.1318
      5 N          60.1664   82.4642   12.8912 N.ar    1  UNL1       -0.2279
      6 C          61.0239   83.5082   13.0390 C.ar    1  UNL1        0.1149
      7 N          58.7687   80.9802   11.5841 N.pl3   1  UNL1       -0.2932
      8 C          58.1625   80.3819   12.7811 C.3     1  UNL1        0.0923
      9 C          58.3911   78.8612   12.7995 C.3     1  UNL1        0.0252
     10 C          58.3888   78.2133   11.3850 C.3     1  UNL1        0.0472
     11 C          57.6849   79.1182   10.3469 C.3     1  UNL1        0.0252
     12 C          58.3511   80.5015   10.2590 C.3     1  UNL1        0.0923
     13 C          59.8189   77.8410   10.9464 C.3     1  UNL1        0.2054
     14 O          60.7680   78.3315   11.8911 O.3     1  UNL1       -0.4755
     15 C          61.7171   79.3274   11.6185 C.ar    1  UNL1        0.1388
     16 C          62.0660   79.6981   10.3066 C.ar    1  UNL1        0.0369
     17 C          63.0192   80.6950   10.0892 C.ar    1  UNL1        0.0033
     18 C          63.6322   81.3310   11.1711 C.ar    1  UNL1        0.0066
     19 C          63.2962   80.9748   12.4881 C.ar    1  UNL1        0.0785
     20 C          62.3348   79.9692   12.6992 C.ar    1  UNL1        0.0433
     21 C          63.9469   81.6497   13.6329 C.2     1  UNL1        0.3381
     22 O          63.5083   81.4871   14.8038 O.2     1  UNL1       -0.2451
     23 O          65.0519   82.4720   13.4274 O.3     1  UNL1       -0.4771
     24 H          65.5048   82.9388   14.2041 H       1  UNL1        0.2954
     25 C          62.0203   86.5992   12.6871 C.2     1  UNL1        0.2839
     26 O          60.8318   86.8461   13.0248 O.2     1  UNL1       -0.2665
     27 N          62.3628   85.3328   12.0970 N.am    1  UNL1       -0.2766
     28 H          63.3542   85.1575   11.8238 H       1  UNL1        0.1553
     29 C          64.0680   86.9096   15.1764 C.3     1  UNL1        0.0345
     30 C          63.9366   87.7707   13.9567 C.ar    1  UNL1        0.0202
     31 C          63.0369   87.6458   12.8908 C.ar    1  UNL1        0.1946
     32 O          63.1995   88.6465   12.0430 O.2     1  UNL1       -0.4492
     33 C          64.1742   89.3996   12.4910 C.ar    1  UNL1        0.1452
     34 C          64.6861   90.5547   11.9103 C.ar    1  UNL1        0.0375
     35 C          65.7419   91.2113   12.5670 C.ar    1  UNL1        0.0031
     36 C          66.2667   90.7069   13.7880 C.ar    1  UNL1        0.0002
     37 C          65.7148   89.5287   14.3458 C.ar    1  UNL1        0.0028
     38 C          64.6700   88.9032   13.6656 C.ar    1  UNL1        0.0337
     39 C          67.3819   91.4086   14.4729 C.ar    1  UNL1        0.0001
     40 C          67.1201   92.4370   15.3967 C.ar    1  UNL1        0.0013
     41 C          68.1710   93.0976   16.0398 C.ar    1  UNL1        0.0141
     42 C          69.4989   92.7417   15.7714 C.ar    1  UNL1        0.0415
     43 N          70.5730   93.4179   16.4304 N.pl3   1  UNL1       -0.3570
     44 C          69.7673   91.7186   14.8530 C.ar    1  UNL1        0.0141
     45 C          68.7183   91.0570   14.2079 C.ar    1  UNL1        0.0013
     46 H          71.5663   93.1596   16.2366 H       1  UNL1        0.1424
     47 H          70.3828   94.1819   17.1167 H       1  UNL1        0.1424
@<TRIPOS>BOND
     1    29    30    1
     2    30    31   ar
     3    31    25    1
     4    25    26    2
     5    25    27   am
     6    27     1    1
     7     1     2   ar
     8     2     3   ar
     9     3     4   ar
    10     4     7    1
    11     7     8    1
    12     8     9    1
    13     9    10    1
    14    10    13    1
    15    13    14    1
    16    14    15    1
    17    15    16   ar
    18    16    17   ar
    19    17    18   ar
    20    18    19   ar
    21    19    21    1
    22    21    22    2
    23    21    23    1
    24    19    20   ar
    25    10    11    1
    26    11    12    1
    27     4     5   ar
    28     5     6   ar
    29    31    32   ar
    30    32    33   ar
    31    33    34   ar
    32    34    35   ar
    33    35    36   ar
    34    36    39    1
    35    39    40   ar
    36    40    41   ar
    37    41    42   ar
    38    42    43    1
    39    42    44   ar
    40    44    45   ar
    41    36    37   ar
    42    37    38   ar
    43    38    30   ar
    44     6     1   ar
    45    38    33   ar
    46    12     7    1
    47    45    39   ar
    48    20    15   ar
    49    27    28    1
    50    23    24    1
    51    43    46    1
    52    43    47    1
@<TRIPOS>MOLECULE
*****
 47 52 0 0 0
SMALL
GASTEIGER

@<TRIPOS>ATOM
      1 C          58.4752   83.7464    8.9231 C.ar    1  UNL1        0.0702
      2 C          57.6331   83.7791   10.0453 C.ar    1  UNL1        0.0191
      3 C          57.5620   82.6775   10.8996 C.ar    1  UNL1        0.0356
      4 C          58.3176   81.5292   10.6142 C.ar    1  UNL1        0.1318
      5 N          59.1211   81.5186    9.5145 N.ar    1  UNL1       -0.2279
      6 C          59.2059   82.5794    8.6692 C.ar    1  UNL1        0.1149
      7 N          58.2907   80.3838   11.4861 N.pl3   1  UNL1       -0.2932
      8 C          58.2693   80.5257   12.9481 C.3     1  UNL1        0.0923
      9 C          59.4086   79.7134   13.5863 C.3     1  UNL1        0.0252
     10 C          59.7355   78.3953   12.8272 C.3     1  UNL1        0.0472
     11 C          58.5600   77.9532   11.9244 C.3     1  UNL1        0.0252
     12 C          58.1949   79.0399   10.8994 C.3     1  UNL1        0.0923
     13 C          61.0507   78.5272   12.0339 C.3     1  UNL1        0.2054
     14 O          61.8185   79.6217   12.5303 O.3     1  UNL1       -0.4755
     15 C          62.1893   80.7404   11.7702 C.ar    1  UNL1        0.1388
     16 C          63.2159   80.6927   10.8090 C.ar    1  UNL1        0.0369
     17 C          63.5479   81.8362   10.0797 C.ar    1  UNL1        0.0033
     18 C          62.8640   83.0341   10.2986 C.ar    1  UNL1        0.0066
     19 C          61.8356   83.1008   11.2536 C.ar    1  UNL1        0.0785
     20 C          61.5067   81.9443   11.9847 C.ar    1  UNL1        0.0433
     21 C          61.1123   84.3710   11.4841 C.2     1  UNL1        0.3381
     22 O          60.2617   84.4628   12.4102 O.2     1  UNL1       -0.2451
     23 O          61.3650   85.4787   10.6788 O.3     1  UNL1       -0.4771
     24 H          60.8754   86.3529   10.8280 H       1  UNL1        0.2954
     25 C          58.8979   86.1931    8.3874 C.2     1  UNL1        0.2839
     26 O          59.0725   86.4875    9.5999 O.2     1  UNL1       -0.2665
     27 N          58.5588   84.8485    8.0047 N.am    1  UNL1       -0.2766
     28 H          58.4164   84.6346    6.9937 H       1  UNL1        0.1553
     29 C          61.5943   87.1953    6.9004 C.3     1  UNL1        0.0345
     30 C          60.1886   87.6844    6.7240 C.ar    1  UNL1        0.0202
     31 C          59.0268   87.2627    7.3825 C.ar    1  UNL1        0.1946
     32 O          57.9960   87.9909    6.9906 O.2     1  UNL1       -0.4492
     33 C          58.4243   88.8458    6.0941 C.ar    1  UNL1        0.1452
     34 C          57.6783   89.7990    5.4097 C.ar    1  UNL1        0.0375
     35 C          58.3463   90.6195    4.4836 C.ar    1  UNL1        0.0031
     36 C          59.7423   90.4764    4.2574 C.ar    1  UNL1        0.0002
     37 C          60.4645   89.4945    4.9773 C.ar    1  UNL1        0.0028
     38 C          59.7685   88.6975    5.8861 C.ar    1  UNL1        0.0337
     39 C          60.4374   91.3486    3.2768 C.ar    1  UNL1        0.0001
     40 C          61.8149   91.1963    3.0344 C.ar    1  UNL1        0.0013
     41 C          62.4682   92.0188    2.1119 C.ar    1  UNL1        0.0141
     42 C          61.7569   93.0053    1.4169 C.ar    1  UNL1        0.0415
     43 N          62.4263   93.8457    0.4731 N.pl3   1  UNL1       -0.3570
     44 C          60.3852   93.1627    1.6530 C.ar    1  UNL1        0.0141
     45 C          59.7297   92.3420    2.5756 C.ar    1  UNL1        0.0013
     46 H          61.9044   94.5840   -0.0497 H       1  UNL1        0.1424
     47 H          63.4488   93.7359    0.2904 H       1  UNL1        0.1424
@<TRIPOS>BOND
     1    29    30    1
     2    30    31   ar
     3    31    25    1
     4    25    26    2
     5    25    27   am
     6    27     1    1
     7     1     2   ar
     8     2     3   ar
     9     3     4   ar
    10     4     7    1
    11     7     8    1
    12     8     9    1
    13     9    10    1
    14    10    13    1
    15    13    14    1
    16    14    15    1
    17    15    16   ar
    18    16    17   ar
    19    17    18   ar
    20    18    19   ar
    21    19    21    1
    22    21    22    2
    23    21    23    1
    24    19    20   ar
    25    10    11    1
    26    11    12    1
    27     4     5   ar
    28     5     6   ar
    29    31    32   ar
    30    32    33   ar
    31    33    34   ar
    32    34    35   ar
    33    35    36   ar
    34    36    39    1
    35    39    40   ar
    36    40    41   ar
    37    41    42   ar
    38    42    43    1
    39    42    44   ar
    40    44    45   ar
    41    36    37   ar
    42    37    38   ar
    43    38    30   ar
    44     6     1   ar
    45    38    33   ar
    46    12     7    1
    47    45    39   ar
    48    20    15   ar
    49    27    28    1
    50    23    24    1
    51    43    46    1
    52    43    47    1
@<TRIPOS>MOLECULE
*****
 47 52 0 0 0
SMALL
GASTEIGER

@<TRIPOS>ATOM
      1 C          60.1897   89.9441    5.0258 C.ar    1  UNL1        0.0702
      2 C          58.8856   90.4321    4.8504 C.ar    1  UNL1        0.0191
      3 C          58.5370   91.0892    3.6693 C.ar    1  UNL1        0.0356
      4 C          59.5053   91.2812    2.6711 C.ar    1  UNL1        0.1318
      5 N          60.7663   90.8059    2.8683 N.ar    1  UNL1       -0.2279
      6 C          61.1280   90.1633    4.0099 C.ar    1  UNL1        0.1149
      7 N          59.1765   91.9307    1.4290 N.pl3   1  UNL1       -0.2932
      8 C          58.0229   91.5137    0.6205 C.3     1  UNL1        0.0923
      9 C          58.4563   91.2126   -0.8240 C.3     1  UNL1        0.0252
     10 C          59.6128   92.1219   -1.3302 C.3     1  UNL1        0.0472
     11 C          59.7316   93.4126   -0.4863 C.3     1  UNL1        0.0252
     12 C          59.9624   93.0962    1.0008 C.3     1  UNL1        0.0923
     13 C          60.9433   91.3450   -1.3818 C.3     1  UNL1        0.2054
     14 O          61.9821   92.1792   -1.8905 O.3     1  UNL1       -0.4755
     15 C          63.0381   92.6899   -1.1217 C.ar    1  UNL1        0.1388
     16 C          64.1351   93.3580   -1.6963 C.ar    1  UNL1        0.0369
     17 C          65.1622   93.8460   -0.8859 C.ar    1  UNL1        0.0033
     18 C          65.1078   93.6750    0.4991 C.ar    1  UNL1        0.0066
     19 C          64.0201   93.0111    1.0909 C.ar    1  UNL1        0.0785
     20 C          62.9889   92.5221    0.2678 C.ar    1  UNL1        0.0433
     21 C          63.9645   92.8309    2.5585 C.2     1  UNL1        0.3381
     22 O          64.3453   93.7525    3.3303 O.2     1  UNL1       -0.2451
     23 O          63.4901   91.6398    3.1021 O.3     1  UNL1       -0.4771
     24 H          63.4479   91.5060    4.1053 H       1  UNL1        0.2954
     25 C          59.7788   88.3471    6.9579 C.2     1  UNL1        0.2839
     26 O          58.5988   88.1096    6.5853 O.2     1  UNL1       -0.2665
     27 N          60.5969   89.2846    6.2359 N.am    1  UNL1       -0.2766
     28 H          61.5688   89.4644    6.5694 H       1  UNL1        0.1553
     29 C          59.4462   85.2214    7.7358 C.3     1  UNL1        0.0345
     30 C          60.1588   86.3046    8.4876 C.ar    1  UNL1        0.0202
     31 C          60.2846   87.6601    8.1589 C.ar    1  UNL1        0.1946
     32 O          60.9331   88.2989    9.1170 O.2     1  UNL1       -0.4492
     33 C          61.2558   87.4236   10.0377 C.ar    1  UNL1        0.1452
     34 C          61.9522   87.6558   11.2186 C.ar    1  UNL1        0.0375
     35 C          62.1910   86.5624   12.0698 C.ar    1  UNL1        0.0031
     36 C          61.7320   85.2606   11.7302 C.ar    1  UNL1        0.0002
     37 C          61.0250   85.0687   10.5189 C.ar    1  UNL1        0.0028
     38 C          60.8084   86.1758    9.6986 C.ar    1  UNL1        0.0337
     39 C          61.9899   84.1131   12.6368 C.ar    1  UNL1        0.0001
     40 C          61.0253   83.1028   12.8043 C.ar    1  UNL1        0.0013
     41 C          61.2690   82.0237   13.6590 C.ar    1  UNL1        0.0141
     42 C          62.4791   81.9360   14.3590 C.ar    1  UNL1        0.0415
     43 N          62.7273   80.8313   15.2326 N.pl3   1  UNL1       -0.3570
     44 C          63.4444   82.9380   14.1970 C.ar    1  UNL1        0.0141
     45 C          63.2029   84.0186   13.3436 C.ar    1  UNL1        0.0013
     46 H          63.6266   80.7575   15.7588 H       1  UNL1        0.1424
     47 H          62.0138   80.0794   15.3598 H       1  UNL1        0.1424
@<TRIPOS>BOND
     1    29    30    1
     2    30    31   ar
     3    31    25    1
     4    25    26    2
     5    25    27   am
     6    27     1    1
     7     1     2   ar
     8     2     3   ar
     9     3     4   ar
    10     4     7    1
    11     7     8    1
    12     8     9    1
    13     9    10    1
    14    10    13    1
    15    13    14    1
    16    14    15    1
    17    15    16   ar
    18    16    17   ar
    19    17    18   ar
    20    18    19   ar
    21    19    21    1
    22    21    22    2
    23    21    23    1
    24    19    20   ar
    25    10    11    1
    26    11    12    1
    27     4     5   ar
    28     5     6   ar
    29    31    32   ar
    30    32    33   ar
    31    33    34   ar
    32    34    35   ar
    33    35    36   ar
    34    36    39    1
    35    39    40   ar
    36    40    41   ar
    37    41    42   ar
    38    42    43    1
    39    42    44   ar
    40    44    45   ar
    41    36    37   ar
    42    37    38   ar
    43    38    30   ar
    44     6     1   ar
    45    38    33   ar
    46    12     7    1
    47    45    39   ar
    48    20    15   ar
    49    27    28    1
    50    23    24    1
    51    43    46    1
    52    43    47    1
@<TRIPOS>MOLECULE
*****
 47 52 0 0 0
SMALL
GASTEIGER

@<TRIPOS>ATOM
      1 C          61.4685   84.1672   12.3945 C.ar    1  UNL1        0.0702
      2 C          60.2725   84.3021   11.6728 C.ar    1  UNL1        0.0191
      3 C          59.4054   83.2157   11.5454 C.ar    1  UNL1        0.0356
      4 C          59.7500   81.9826   12.1211 C.ar    1  UNL1        0.1318
      5 N          60.9202   81.8743   12.8094 N.ar    1  UNL1       -0.2279
      6 C          61.7794   82.9184   12.9461 C.ar    1  UNL1        0.1149
      7 N          58.8691   80.8471   12.0334 N.pl3   1  UNL1       -0.2932
      8 C          58.5166   80.0494   13.2156 C.3     1  UNL1        0.0923
      9 C          58.8081   78.5598   12.9685 C.3     1  UNL1        0.0252
     10 C          58.5754   78.1150   11.4959 C.3     1  UNL1        0.0472
     11 C          57.6570   79.1050   10.7418 C.3     1  UNL1        0.0252
     12 C          58.2375   80.5290   10.7452 C.3     1  UNL1        0.0923
     13 C          59.9160   77.9045   10.7647 C.3     1  UNL1        0.2054
     14 O          60.0858   78.8938    9.7515 O.3     1  UNL1       -0.4755
     15 C          61.0778   79.8850    9.7685 C.ar    1  UNL1        0.1388
     16 C          62.2860   79.7311   10.4732 C.ar    1  UNL1        0.0369
     17 C          63.2408   80.7499   10.4596 C.ar    1  UNL1        0.0033
     18 C          63.0038   81.9275    9.7471 C.ar    1  UNL1        0.0066
     19 C          61.8036   82.0990    9.0370 C.ar    1  UNL1        0.0785
     20 C          60.8462   81.0679    9.0553 C.ar    1  UNL1        0.0433
     21 C          61.5545   83.3474    8.2828 C.2     1  UNL1        0.3381
     22 O          60.3827   83.6653    7.9425 O.2     1  UNL1       -0.2451
     23 O          62.6138   84.1845    7.9413 O.3     1  UNL1       -0.4771
     24 H          62.4543   85.0414    7.4251 H       1  UNL1        0.2954
     25 C          62.0289   86.5955   12.8860 C.2     1  UNL1        0.2839
     26 O          60.8165   86.9050   13.0327 O.2     1  UNL1       -0.2665
     27 N          62.4007   85.2526   12.5283 N.am    1  UNL1       -0.2766
     28 H          63.4120   85.0259   12.4099 H       1  UNL1        0.1553
     29 C          64.1630   86.8872   15.3039 C.3     1  UNL1        0.0345
     30 C          63.9824   87.7631   14.1012 C.ar    1  UNL1        0.0202
     31 C          63.0457   87.6460   13.0667 C.ar    1  UNL1        0.1946
     32 O          63.1715   88.6587   12.2269 O.2     1  UNL1       -0.4492
     33 C          64.1570   89.4124   12.6495 C.ar    1  UNL1        0.1452
     34 C          64.6405   90.5783   12.0661 C.ar    1  UNL1        0.0375
     35 C          65.7151   91.2334   12.6930 C.ar    1  UNL1        0.0031
     36 C          66.2867   90.7167   13.8876 C.ar    1  UNL1        0.0002
     37 C          65.7626   89.5277   14.4493 C.ar    1  UNL1        0.0028
     38 C          64.6978   88.9041   13.7989 C.ar    1  UNL1        0.0337
     39 C          67.4215   91.4169   14.5412 C.ar    1  UNL1        0.0001
     40 C          67.1877   92.4706   15.4437 C.ar    1  UNL1        0.0013
     41 C          68.2570   93.1297   16.0573 C.ar    1  UNL1        0.0141
     42 C          69.5757   92.7470   15.7802 C.ar    1  UNL1        0.0415
     43 N          70.6686   93.4218   16.4090 N.pl3   1  UNL1       -0.3570
     44 C          69.8162   91.6987   14.8828 C.ar    1  UNL1        0.0141
     45 C          68.7487   91.0386   14.2672 C.ar    1  UNL1        0.0013
     46 H          71.6552   93.1437   16.2085 H       1  UNL1        0.1424
     47 H          70.4992   94.2045   17.0795 H       1  UNL1        0.1424
@<TRIPOS>BOND
     1    29    30    1
     2    30    31   ar
     3    31    25    1
     4    25    26    2
     5    25    27   am
     6    27     1    1
     7     1     2   ar
     8     2     3   ar
     9     3     4   ar
    10     4     7    1
    11     7     8    1
    12     8     9    1
    13     9    10    1
    14    10    13    1
    15    13    14    1
    16    14    15    1
    17    15    16   ar
    18    16    17   ar
    19    17    18   ar
    20    18    19   ar
    21    19    21    1
    22    21    22    2
    23    21    23    1
    24    19    20   ar
    25    10    11    1
    26    11    12    1
    27     4     5   ar
    28     5     6   ar
    29    31    32   ar
    30    32    33   ar
    31    33    34   ar
    32    34    35   ar
    33    35    36   ar
    34    36    39    1
    35    39    40   ar
    36    40    41   ar
    37    41    42   ar
    38    42    43    1
    39    42    44   ar
    40    44    45   ar
    41    36    37   ar
    42    37    38   ar
    43    38    30   ar
    44     6     1   ar
    45    38    33   ar
    46    12     7    1
    47    45    39   ar
    48    20    15   ar
    49    27    28    1
    50    23    24    1
    51    43    46    1
    52    43    47    1
