@<TRIPOS>MOLECULE
*****
 36 40 0 0 0
SMALL
GASTEIGER

@<TRIPOS>ATOM
      1 C         -24.5440   -9.3934  -12.2338 C.2     1  UNL1        0.2520
      2 O         -25.6836   -8.9962  -11.8678 O.2     1  UNL1       -0.2698
      3 N         -23.3734   -8.9228  -11.5440 N.am    1  UNL1       -0.2759
      4 C         -23.4065   -8.7339  -10.0912 C.3     1  UNL1        0.0954
      5 C         -22.0959   -9.2423   -9.4863 C.3     1  UNL1        0.0399
      6 C         -20.8186   -8.6075  -10.1371 C.3     1  UNL1        0.0645
      7 C         -21.1641   -7.7943  -11.4187 C.3     1  UNL1        0.0399
      8 C         -22.1935   -8.5001  -12.3127 C.3     1  UNL1        0.0954
      9 C         -20.1403   -7.6271   -9.1162 C.3     1  UNL1        0.0477
     10 C         -19.4131   -8.3879   -8.0489 C.ar    1  UNL1        0.0220
     11 C         -18.9680   -7.9969   -6.8077 C.ar    1  UNL1        0.0923
     12 N         -18.2043   -8.9998   -6.3052 N.ar    1  UNL1       -0.2534
     13 N         -18.1207   -9.9862   -7.1941 N.ar    1  UNL1       -0.1651
     14 C         -18.8572   -9.6127   -8.2543 C.ar    1  UNL1        0.1515
     15 C         -19.0326  -10.3125   -9.5171 C.2     1  UNL1        0.2650
     16 O         -18.4435  -11.4001   -9.7527 O.2     1  UNL1       -0.2684
     17 N         -19.8843   -9.7034  -10.5002 N.am    1  UNL1       -0.3023
     18 H         -19.9585  -10.1629  -11.4356 H       1  UNL1        0.1497
     19 C         -24.0474   -9.8790  -14.6495 C.ar    1  UNL1        0.1430
     20 C         -23.9748  -10.7950  -15.7162 C.ar    1  UNL1        0.0372
     21 C         -24.2593  -12.1522  -15.5118 C.ar    1  UNL1        0.0091
     22 C         -24.1827  -13.0627  -16.5737 C.ar    1  UNL1        0.0210
     23 C         -24.4646  -14.4090  -16.3442 C.ar    1  UNL1        0.1021
     24 N         -24.8094  -14.8322  -15.1006 N.ar    1  UNL1       -0.2101
     25 C         -24.8949  -13.9793  -14.0409 C.ar    1  UNL1        0.2248
     26 C         -24.6196  -12.6105  -14.2252 C.ar    1  UNL1        0.0536
     27 C         -24.6993  -11.6959  -13.1634 C.ar    1  UNL1        0.0122
     28 C         -24.4350  -10.3331  -13.3715 C.ar    1  UNL1        0.0876
     29 C         -22.9639   -7.9969  -15.9033 C.3     1  UNL1        0.2525
     30 O         -23.7234   -8.5219  -14.8199 O.3     1  UNL1       -0.4713
     31 O         -25.2549  -14.4621  -12.7767 O.3     1  UNL1       -0.4561
     32 C         -26.5561  -14.2925  -12.2272 C.3     1  UNL1        0.2542
     33 C         -17.4960   -8.9828   -5.0096 C.3     1  UNL1        0.0867
     34 C         -16.5217  -10.1732   -4.9458 C.3     1  UNL1        0.0244
     35 C         -16.7149   -7.6625   -4.8629 C.3     1  UNL1        0.0244
     36 C         -18.4991   -9.0943   -3.8410 C.3     1  UNL1        0.0244
@<TRIPOS>BOND
     1    29    30    1
     2    30    19    1
     3    19    20   ar
     4    20    21   ar
     5    21    22   ar
     6    22    23   ar
     7    23    24   ar
     8    24    25   ar
     9    25    31    1
    10    31    32    1
    11    25    26   ar
    12    26    27   ar
    13    27    28   ar
    14    28     1    1
    15     1     2    2
    16     1     3   am
    17     3     4    1
    18     4     5    1
    19     5     6    1
    20     6     7    1
    21     7     8    1
    22     6     9    1
    23     9    10    1
    24    10    11   ar
    25    11    12   ar
    26    12    33    1
    27    33    34    1
    28    33    35    1
    29    33    36    1
    30    12    13   ar
    31    13    14   ar
    32    14    15    1
    33    15    16    2
    34    15    17   am
    35    28    19   ar
    36     8     3    1
    37    14    10   ar
    38    26    21   ar
    39    17     6    1
    40    17    18    1
@<TRIPOS>MOLECULE
*****
 36 40 0 0 0
SMALL
GASTEIGER

@<TRIPOS>ATOM
      1 C         -24.5388   -9.6972  -12.1409 C.2     1  UNL1        0.2520
      2 O         -25.7185   -9.5140  -11.7345 O.2     1  UNL1       -0.2698
      3 N         -23.4378   -9.1579  -11.3894 N.am    1  UNL1       -0.2759
      4 C         -23.4802   -9.1615   -9.9245 C.3     1  UNL1        0.0954
      5 C         -22.1042   -9.5530   -9.3809 C.3     1  UNL1        0.0399
      6 C         -20.9363   -8.6675   -9.9376 C.3     1  UNL1        0.0645
      7 C         -21.4074   -7.7550  -11.1075 C.3     1  UNL1        0.0399
      8 C         -22.3380   -8.4795  -12.0905 C.3     1  UNL1        0.0954
      9 C         -20.3905   -7.7389   -8.7960 C.3     1  UNL1        0.0477
     10 C         -19.5514   -8.5190   -7.8295 C.ar    1  UNL1        0.0220
     11 C         -19.1511   -8.2300   -6.5458 C.ar    1  UNL1        0.0923
     12 N         -18.2484   -9.1710   -6.1702 N.ar    1  UNL1       -0.2534
     13 N         -18.0376  -10.0150   -7.1767 N.ar    1  UNL1       -0.1651
     14 C         -18.8315   -9.6173   -8.1855 C.ar    1  UNL1        0.1515
     15 C         -18.9217  -10.1690   -9.5282 C.2     1  UNL1        0.2650
     16 O         -18.1885  -11.1242   -9.8965 O.2     1  UNL1       -0.2684
     17 N         -19.8618   -9.5661  -10.4311 N.am    1  UNL1       -0.3023
     18 H         -19.8817   -9.9090  -11.4179 H       1  UNL1        0.1497
     19 C         -24.5668  -11.8466  -13.4435 C.ar    1  UNL1        0.1430
     20 C         -24.3199  -12.5478  -14.6392 C.ar    1  UNL1        0.0372
     21 C         -23.8493  -11.8762  -15.7760 C.ar    1  UNL1        0.0091
     22 C         -23.6079  -12.5750  -16.9659 C.ar    1  UNL1        0.0210
     23 C         -23.1456  -11.8838  -18.0853 C.ar    1  UNL1        0.1021
     24 N         -22.9326  -10.5439  -18.0208 N.ar    1  UNL1       -0.2101
     25 C         -23.1553   -9.8271  -16.8831 C.ar    1  UNL1        0.2248
     26 C         -23.6220  -10.4829  -15.7274 C.ar    1  UNL1        0.0536
     27 C         -23.8611   -9.7853  -14.5331 C.ar    1  UNL1        0.0122
     28 C         -24.3123  -10.4603  -13.3882 C.ar    1  UNL1        0.0876
     29 C         -25.8343  -13.6977  -12.3231 C.3     1  UNL1        0.2525
     30 O         -25.0811  -12.4900  -12.3045 O.3     1  UNL1       -0.4713
     31 O         -22.9208   -8.4467  -16.8643 O.3     1  UNL1       -0.4561
     32 C         -21.6654   -7.8816  -16.5058 C.3     1  UNL1        0.2542
     33 C         -17.5344   -9.2190   -4.8785 C.3     1  UNL1        0.0867
     34 C         -18.5593   -9.2923   -3.7320 C.3     1  UNL1        0.0244
     35 C         -16.6187  -10.4579   -4.8379 C.3     1  UNL1        0.0244
     36 C         -16.6644   -7.9570   -4.6919 C.3     1  UNL1        0.0244
@<TRIPOS>BOND
     1    29    30    1
     2    30    19    1
     3    19    20   ar
     4    20    21   ar
     5    21    22   ar
     6    22    23   ar
     7    23    24   ar
     8    24    25   ar
     9    25    31    1
    10    31    32    1
    11    25    26   ar
    12    26    27   ar
    13    27    28   ar
    14    28     1    1
    15     1     2    2
    16     1     3   am
    17     3     4    1
    18     4     5    1
    19     5     6    1
    20     6     7    1
    21     7     8    1
    22     6     9    1
    23     9    10    1
    24    10    11   ar
    25    11    12   ar
    26    12    33    1
    27    33    34    1
    28    33    35    1
    29    33    36    1
    30    12    13   ar
    31    13    14   ar
    32    14    15    1
    33    15    16    2
    34    15    17   am
    35    28    19   ar
    36     8     3    1
    37    14    10   ar
    38    26    21   ar
    39    17     6    1
    40    17    18    1
@<TRIPOS>MOLECULE
*****
 36 40 0 0 0
SMALL
GASTEIGER

@<TRIPOS>ATOM
      1 C         -24.9076   -9.0102  -11.0957 C.2     1  UNL1        0.2520
      2 O         -26.0174   -8.7690  -10.5473 O.2     1  UNL1       -0.2698
      3 N         -23.6941   -8.5611  -10.4686 N.am    1  UNL1       -0.2759
      4 C         -23.5639   -8.6067   -9.0097 C.3     1  UNL1        0.0954
      5 C         -22.1610   -9.0964   -8.6434 C.3     1  UNL1        0.0399
      6 C         -21.0131   -8.2660   -9.3148 C.3     1  UNL1        0.0645
      7 C         -21.5601   -7.2917  -10.3987 C.3     1  UNL1        0.0399
      8 C         -22.6437   -7.9287  -11.2801 C.3     1  UNL1        0.0954
      9 C         -20.2792   -7.4070   -8.2253 C.3     1  UNL1        0.0477
     10 C         -19.3831   -8.2651   -7.3842 C.ar    1  UNL1        0.0220
     11 C         -18.8171   -8.0399   -6.1511 C.ar    1  UNL1        0.0923
     12 N         -17.9378   -9.0443   -5.9077 N.ar    1  UNL1       -0.2534
     13 N         -17.9006   -9.8684   -6.9516 N.ar    1  UNL1       -0.1651
     14 C         -18.7810   -9.3933   -7.8489 C.ar    1  UNL1        0.1515
     15 C         -19.0632   -9.8974   -9.1836 C.2     1  UNL1        0.2650
     16 O         -18.4403  -10.8831   -9.6588 O.2     1  UNL1       -0.2684
     17 N         -20.0631   -9.2119   -9.9537 N.am    1  UNL1       -0.3023
     18 H         -20.2206   -9.5229  -10.9387 H       1  UNL1        0.1497
     19 C         -25.8342   -9.4883  -13.3827 C.ar    1  UNL1        0.1430
     20 C         -25.7921  -10.2226  -14.5833 C.ar    1  UNL1        0.0372
     21 C         -24.7964  -11.1860  -14.7958 C.ar    1  UNL1        0.0091
     22 C         -24.7539  -11.9129  -15.9926 C.ar    1  UNL1        0.0210
     23 C         -23.7501  -12.8619  -16.1832 C.ar    1  UNL1        0.1021
     24 N         -22.8216  -13.0777  -15.2156 N.ar    1  UNL1       -0.2101
     25 C         -22.8274  -12.3920  -14.0377 C.ar    1  UNL1        0.2248
     26 C         -23.8225  -11.4240  -13.8007 C.ar    1  UNL1        0.0536
     27 C         -23.8692  -10.6972  -12.6008 C.ar    1  UNL1        0.0122
     28 C         -24.8782   -9.7471  -12.3784 C.ar    1  UNL1        0.0876
     29 C         -26.6926   -7.1453  -13.6318 C.3     1  UNL1        0.2525
     30 O         -26.7955   -8.4861  -13.1650 O.3     1  UNL1       -0.4713
     31 O         -21.8492  -12.6493  -13.0693 O.3     1  UNL1       -0.4561
     32 C         -20.6329  -13.3269  -13.3615 C.3     1  UNL1        0.2542
     33 C         -17.0812   -9.1744   -4.7120 C.3     1  UNL1        0.0867
     34 C         -16.2857  -10.4899   -4.7955 C.3     1  UNL1        0.0244
     35 C         -16.1081   -7.9816   -4.6388 C.3     1  UNL1        0.0244
     36 C         -17.9395   -9.1895   -3.4285 C.3     1  UNL1        0.0244
@<TRIPOS>BOND
     1    29    30    1
     2    30    19    1
     3    19    20   ar
     4    20    21   ar
     5    21    22   ar
     6    22    23   ar
     7    23    24   ar
     8    24    25   ar
     9    25    31    1
    10    31    32    1
    11    25    26   ar
    12    26    27   ar
    13    27    28   ar
    14    28     1    1
    15     1     2    2
    16     1     3   am
    17     3     4    1
    18     4     5    1
    19     5     6    1
    20     6     7    1
    21     7     8    1
    22     6     9    1
    23     9    10    1
    24    10    11   ar
    25    11    12   ar
    26    12    33    1
    27    33    34    1
    28    33    35    1
    29    33    36    1
    30    12    13   ar
    31    13    14   ar
    32    14    15    1
    33    15    16    2
    34    15    17   am
    35    28    19   ar
    36     8     3    1
    37    14    10   ar
    38    26    21   ar
    39    17     6    1
    40    17    18    1
@<TRIPOS>MOLECULE
*****
 36 40 0 0 0
SMALL
GASTEIGER

@<TRIPOS>ATOM
      1 C         -23.5964   -9.1229  -13.3190 C.2     1  UNL1        0.2520
      2 O         -24.8179   -8.8371  -13.1902 O.2     1  UNL1       -0.2698
      3 N         -22.6530   -8.6645  -12.3354 N.am    1  UNL1       -0.2759
      4 C         -23.0260   -8.6418  -10.9184 C.3     1  UNL1        0.0954
      5 C         -21.8465   -9.1367  -10.0783 C.3     1  UNL1        0.0399
      6 C         -20.5130   -8.3589  -10.3523 C.3     1  UNL1        0.0645
      7 C         -20.6292   -7.4291  -11.5952 C.3     1  UNL1        0.0399
      8 C         -21.3703   -8.0897  -12.7663 C.3     1  UNL1        0.0954
      9 C         -20.1641   -7.4609   -9.1132 C.3     1  UNL1        0.0477
     10 C         -19.6338   -8.2922   -7.9844 C.ar    1  UNL1        0.0220
     11 C         -19.5118   -8.0172   -6.6424 C.ar    1  UNL1        0.0923
     12 N         -18.7994   -9.0234   -6.0751 N.ar    1  UNL1       -0.2534
     13 N         -18.4375   -9.8974   -7.0107 N.ar    1  UNL1       -0.1651
     14 C         -18.9464   -9.4514   -8.1718 C.ar    1  UNL1        0.1515
     15 C         -18.7762  -10.0145   -9.5019 C.2     1  UNL1        0.2650
     16 O         -18.0611  -11.0323   -9.6977 O.2     1  UNL1       -0.2684
     17 N         -19.4337   -9.3504  -10.5924 N.am    1  UNL1       -0.3023
     18 H         -19.2583   -9.7058  -11.5591 H       1  UNL1        0.1497
     19 C         -23.2327   -9.3939  -15.7913 C.ar    1  UNL1        0.1430
     20 C         -22.8284  -10.1876  -16.8816 C.ar    1  UNL1        0.0372
     21 C         -22.3313  -11.4820  -16.6763 C.ar    1  UNL1        0.0091
     22 C         -21.9259  -12.2687  -17.7623 C.ar    1  UNL1        0.0210
     23 C         -21.4292  -13.5512  -17.5322 C.ar    1  UNL1        0.1021
     24 N         -21.3391  -14.0316  -16.2650 N.ar    1  UNL1       -0.2101
     25 C         -21.7222  -13.2987  -15.1816 C.ar    1  UNL1        0.2248
     26 C         -22.2305  -11.9983  -15.3654 C.ar    1  UNL1        0.0536
     27 C         -22.6406  -11.2097  -14.2791 C.ar    1  UNL1        0.0122
     28 C         -23.1581   -9.9213  -14.4851 C.ar    1  UNL1        0.0876
     29 C         -23.1302   -7.1348  -16.8749 C.3     1  UNL1        0.2525
     30 O         -23.6921   -8.0773  -15.9682 O.3     1  UNL1       -0.4713
     31 O         -21.6110  -13.8368  -13.8936 O.3     1  UNL1       -0.4561
     32 C         -20.5058  -13.5704  -13.0383 C.3     1  UNL1        0.2542
     33 C         -18.4029   -9.1100   -4.6553 C.3     1  UNL1        0.0867
     34 C         -17.5238   -7.8980   -4.2968 C.3     1  UNL1        0.0244
     35 C         -19.6610   -9.1218   -3.7653 C.3     1  UNL1        0.0244
     36 C         -17.6020  -10.4039   -4.3934 C.3     1  UNL1        0.0244
@<TRIPOS>BOND
     1    29    30    1
     2    30    19    1
     3    19    20   ar
     4    20    21   ar
     5    21    22   ar
     6    22    23   ar
     7    23    24   ar
     8    24    25   ar
     9    25    31    1
    10    31    32    1
    11    25    26   ar
    12    26    27   ar
    13    27    28   ar
    14    28     1    1
    15     1     2    2
    16     1     3   am
    17     3     4    1
    18     4     5    1
    19     5     6    1
    20     6     7    1
    21     7     8    1
    22     6     9    1
    23     9    10    1
    24    10    11   ar
    25    11    12   ar
    26    12    33    1
    27    33    34    1
    28    33    35    1
    29    33    36    1
    30    12    13   ar
    31    13    14   ar
    32    14    15    1
    33    15    16    2
    34    15    17   am
    35    28    19   ar
    36     8     3    1
    37    14    10   ar
    38    26    21   ar
    39    17     6    1
    40    17    18    1
@<TRIPOS>MOLECULE
*****
 36 40 0 0 0
SMALL
GASTEIGER

@<TRIPOS>ATOM
      1 C         -20.9110   -7.8609   -8.9654 C.2     1  UNL1        0.2520
      2 O         -20.5118   -7.0002   -8.1345 O.2     1  UNL1       -0.2698
      3 N         -22.1254   -7.6283   -9.6994 N.am    1  UNL1       -0.2759
      4 C         -22.4515   -6.2779  -10.1658 C.3     1  UNL1        0.0954
      5 C         -23.0189   -6.3575  -11.5849 C.3     1  UNL1        0.0399
      6 C         -24.2334   -7.3398  -11.7190 C.3     1  UNL1        0.0645
      7 C         -24.4275   -8.2004  -10.4365 C.3     1  UNL1        0.0399
      8 C         -23.1018   -8.7159   -9.8587 C.3     1  UNL1        0.0954
      9 C         -25.5511   -6.5185  -11.9486 C.3     1  UNL1        0.0477
     10 C         -25.6152   -5.9944  -13.3514 C.ar    1  UNL1        0.0220
     11 C         -26.3742   -4.9896  -13.9043 C.ar    1  UNL1        0.0923
     12 N         -26.2019   -5.0309  -15.2497 N.ar    1  UNL1       -0.2534
     13 N         -25.3975   -6.0422  -15.5664 N.ar    1  UNL1       -0.1651
     14 C         -25.0409   -6.6272  -14.4102 C.ar    1  UNL1        0.1515
     15 C         -24.2262   -7.8168  -14.2197 C.2     1  UNL1        0.2650
     16 O         -23.7712   -8.4650  -15.1987 O.2     1  UNL1       -0.2684
     17 N         -23.9800   -8.2430  -12.8705 N.am    1  UNL1       -0.3023
     18 H         -23.4567   -9.1358  -12.7270 H       1  UNL1        0.1497
     19 C         -18.9876   -9.3654   -8.3701 C.ar    1  UNL1        0.1430
     20 C         -18.2457  -10.5399   -8.5990 C.ar    1  UNL1        0.0372
     21 C         -18.6400  -11.4514   -9.5882 C.ar    1  UNL1        0.0091
     22 C         -17.9027  -12.6214   -9.8119 C.ar    1  UNL1        0.0210
     23 C         -18.3183  -13.5158  -10.7978 C.ar    1  UNL1        0.1021
     24 N         -19.4295  -13.2534  -11.5335 N.ar    1  UNL1       -0.2101
     25 C         -20.1746  -12.1275  -11.3472 C.ar    1  UNL1        0.2248
     26 C         -19.7929  -11.1951  -10.3631 C.ar    1  UNL1        0.0536
     27 C         -20.5281  -10.0204  -10.1399 C.ar    1  UNL1        0.0122
     28 C         -20.1223   -9.0969   -9.1638 C.ar    1  UNL1        0.0876
     29 C         -18.4408   -8.8053   -5.9877 C.3     1  UNL1        0.2525
     30 O         -18.6378   -8.4590   -7.3543 O.3     1  UNL1       -0.4713
     31 O         -21.3127  -11.8997  -12.1306 O.3     1  UNL1       -0.4561
     32 C         -21.4600  -12.4179  -13.4473 C.3     1  UNL1        0.2542
     33 C         -26.8635   -4.1520  -16.2348 C.3     1  UNL1        0.0867
     34 C         -28.3880   -4.2124  -16.0288 C.3     1  UNL1        0.0244
     35 C         -26.3703   -2.7035  -16.0511 C.3     1  UNL1        0.0244
     36 C         -26.5348   -4.6055  -17.6738 C.3     1  UNL1        0.0244
@<TRIPOS>BOND
     1    29    30    1
     2    30    19    1
     3    19    20   ar
     4    20    21   ar
     5    21    22   ar
     6    22    23   ar
     7    23    24   ar
     8    24    25   ar
     9    25    31    1
    10    31    32    1
    11    25    26   ar
    12    26    27   ar
    13    27    28   ar
    14    28     1    1
    15     1     2    2
    16     1     3   am
    17     3     4    1
    18     4     5    1
    19     5     6    1
    20     6     7    1
    21     7     8    1
    22     6     9    1
    23     9    10    1
    24    10    11   ar
    25    11    12   ar
    26    12    33    1
    27    33    34    1
    28    33    35    1
    29    33    36    1
    30    12    13   ar
    31    13    14   ar
    32    14    15    1
    33    15    16    2
    34    15    17   am
    35    28    19   ar
    36     8     3    1
    37    14    10   ar
    38    26    21   ar
    39    17     6    1
    40    17    18    1
@<TRIPOS>MOLECULE
*****
 36 40 0 0 0
SMALL
GASTEIGER

@<TRIPOS>ATOM
      1 C         -21.0055   -7.4132   -8.9543 C.2     1  UNL1        0.2520
      2 O         -20.6783   -6.5260   -8.1199 O.2     1  UNL1       -0.2698
      3 N         -22.2184   -7.2619   -9.7116 N.am    1  UNL1       -0.2759
      4 C         -22.6222   -5.9368  -10.1898 C.3     1  UNL1        0.0954
      5 C         -23.1566   -6.0574  -11.6188 C.3     1  UNL1        0.0399
      6 C         -24.3024   -7.1166  -11.7711 C.3     1  UNL1        0.0645
      7 C         -24.4646   -7.9838  -10.4886 C.3     1  UNL1        0.0399
      8 C         -23.1194   -8.4108   -9.8842 C.3     1  UNL1        0.0954
      9 C         -25.6658   -6.3828  -12.0286 C.3     1  UNL1        0.0477
     10 C         -25.7374   -5.8684  -13.4346 C.ar    1  UNL1        0.0220
     11 C         -26.5492   -4.9164  -14.0058 C.ar    1  UNL1        0.0923
     12 N         -26.3493   -4.9507  -15.3476 N.ar    1  UNL1       -0.2534
     13 N         -25.4756   -5.9090  -15.6449 N.ar    1  UNL1       -0.1651
     14 C         -25.1037   -6.4661  -14.4798 C.ar    1  UNL1        0.1515
     15 C         -24.2176   -7.5999  -14.2691 C.2     1  UNL1        0.2650
     16 O         -23.7035   -8.2204  -15.2367 O.2     1  UNL1       -0.2684
     17 N         -23.9697   -8.0050  -12.9137 N.am    1  UNL1       -0.3023
     18 H         -23.3927   -8.8618  -12.7568 H       1  UNL1        0.1497
     19 C         -20.1225   -9.3071  -10.3511 C.ar    1  UNL1        0.1430
     20 C         -19.2994  -10.4420  -10.4810 C.ar    1  UNL1        0.0372
     21 C         -18.4781  -10.8528   -9.4220 C.ar    1  UNL1        0.0091
     22 C         -17.6569  -11.9800   -9.5547 C.ar    1  UNL1        0.0210
     23 C         -16.8443  -12.3655   -8.4892 C.ar    1  UNL1        0.1021
     24 N         -16.8495  -11.6523   -7.3333 N.ar    1  UNL1       -0.2101
     25 C         -17.6330  -10.5500   -7.1637 C.ar    1  UNL1        0.2248
     26 C         -18.4705  -10.1233   -8.2125 C.ar    1  UNL1        0.0536
     27 C         -19.2968   -8.9963   -8.0803 C.ar    1  UNL1        0.0122
     28 C         -20.1351   -8.5964   -9.1327 C.ar    1  UNL1        0.0876
     29 C         -20.4214   -8.2831  -12.6205 C.3     1  UNL1        0.2525
     30 O         -20.9206   -8.8498  -11.4139 O.3     1  UNL1       -0.4713
     31 O         -17.6048   -9.8466   -5.9532 O.3     1  UNL1       -0.4561
     32 C         -17.3388  -10.4715   -4.7031 C.3     1  UNL1        0.2542
     33 C         -27.0477   -4.1195  -16.3485 C.3     1  UNL1        0.0867
     34 C         -26.6087   -2.6526  -16.1886 C.3     1  UNL1        0.0244
     35 C         -26.7017   -4.6148  -17.7663 C.3     1  UNL1        0.0244
     36 C         -28.5772   -4.2078  -16.1555 C.3     1  UNL1        0.0244
@<TRIPOS>BOND
     1    29    30    1
     2    30    19    1
     3    19    20   ar
     4    20    21   ar
     5    21    22   ar
     6    22    23   ar
     7    23    24   ar
     8    24    25   ar
     9    25    31    1
    10    31    32    1
    11    25    26   ar
    12    26    27   ar
    13    27    28   ar
    14    28     1    1
    15     1     2    2
    16     1     3   am
    17     3     4    1
    18     4     5    1
    19     5     6    1
    20     6     7    1
    21     7     8    1
    22     6     9    1
    23     9    10    1
    24    10    11   ar
    25    11    12   ar
    26    12    33    1
    27    33    34    1
    28    33    35    1
    29    33    36    1
    30    12    13   ar
    31    13    14   ar
    32    14    15    1
    33    15    16    2
    34    15    17   am
    35    28    19   ar
    36     8     3    1
    37    14    10   ar
    38    26    21   ar
    39    17     6    1
    40    17    18    1
@<TRIPOS>MOLECULE
*****
 36 40 0 0 0
SMALL
GASTEIGER

@<TRIPOS>ATOM
      1 C         -20.4054   -7.4039   -8.2622 C.2     1  UNL1        0.2520
      2 O         -20.4502   -6.1472   -8.3573 O.2     1  UNL1       -0.2698
      3 N         -21.2066   -8.2109   -9.1423 N.am    1  UNL1       -0.2759
      4 C         -21.3880   -7.8103  -10.5402 C.3     1  UNL1        0.0954
      5 C         -21.2949   -9.0477  -11.4358 C.3     1  UNL1        0.0399
      6 C         -22.2745  -10.1982  -11.0174 C.3     1  UNL1        0.0645
      7 C         -22.9394   -9.9204   -9.6376 C.3     1  UNL1        0.0399
      8 C         -21.9538   -9.3570   -8.6040 C.3     1  UNL1        0.0954
      9 C         -23.4193  -10.3275  -12.0833 C.3     1  UNL1        0.0477
     10 C         -22.9159  -10.9928  -13.3286 C.ar    1  UNL1        0.0220
     11 C         -23.4303  -11.0261  -14.6036 C.ar    1  UNL1        0.0923
     12 N         -22.7023  -11.9177  -15.3223 N.ar    1  UNL1       -0.2534
     13 N         -21.7782  -12.4722  -14.5421 N.ar    1  UNL1       -0.1651
     14 C         -21.9091  -11.9080  -13.3294 C.ar    1  UNL1        0.1515
     15 C         -21.1792  -12.2196  -12.1107 C.2     1  UNL1        0.2650
     16 O         -20.3130  -13.1330  -12.0790 O.2     1  UNL1       -0.2684
     17 N         -21.5015  -11.4635  -10.9329 N.am    1  UNL1       -0.3023
     18 H         -21.0337  -11.7295  -10.0373 H       1  UNL1        0.1497
     19 C         -18.7833   -9.1814   -7.5362 C.ar    1  UNL1        0.1430
     20 C         -17.9785   -9.7584   -6.5355 C.ar    1  UNL1        0.0372
     21 C         -17.8968   -9.1774   -5.2625 C.ar    1  UNL1        0.0091
     22 C         -17.0923   -9.7509   -4.2692 C.ar    1  UNL1        0.0210
     23 C         -17.0227   -9.1512   -3.0122 C.ar    1  UNL1        0.1021
     24 N         -17.7290   -8.0199   -2.7552 N.ar    1  UNL1       -0.2101
     25 C         -18.5227   -7.4304   -3.6934 C.ar    1  UNL1        0.2248
     26 C         -18.6244   -8.0009   -4.9770 C.ar    1  UNL1        0.0536
     27 C         -19.4327   -7.4300   -5.9725 C.ar    1  UNL1        0.0122
     28 C         -19.5316   -8.0227   -7.2410 C.ar    1  UNL1        0.0876
     29 C         -18.1494  -10.8835   -9.2652 C.3     1  UNL1        0.2525
     30 O         -18.8463   -9.7200   -8.8330 O.3     1  UNL1       -0.4713
     31 O         -19.2328   -6.2644   -3.3818 O.3     1  UNL1       -0.4561
     32 C         -19.2440   -5.6920   -2.0794 C.3     1  UNL1        0.2542
     33 C         -22.9378  -12.2924  -16.7311 C.3     1  UNL1        0.0867
     34 C         -21.7340  -13.0982  -17.2523 C.3     1  UNL1        0.0244
     35 C         -24.2182  -13.1439  -16.8342 C.3     1  UNL1        0.0244
     36 C         -23.1126  -11.0321  -17.6060 C.3     1  UNL1        0.0244
@<TRIPOS>BOND
     1    29    30    1
     2    30    19    1
     3    19    20   ar
     4    20    21   ar
     5    21    22   ar
     6    22    23   ar
     7    23    24   ar
     8    24    25   ar
     9    25    31    1
    10    31    32    1
    11    25    26   ar
    12    26    27   ar
    13    27    28   ar
    14    28     1    1
    15     1     2    2
    16     1     3   am
    17     3     4    1
    18     4     5    1
    19     5     6    1
    20     6     7    1
    21     7     8    1
    22     6     9    1
    23     9    10    1
    24    10    11   ar
    25    11    12   ar
    26    12    33    1
    27    33    34    1
    28    33    35    1
    29    33    36    1
    30    12    13   ar
    31    13    14   ar
    32    14    15    1
    33    15    16    2
    34    15    17   am
    35    28    19   ar
    36     8     3    1
    37    14    10   ar
    38    26    21   ar
    39    17     6    1
    40    17    18    1
@<TRIPOS>MOLECULE
*****
 36 40 0 0 0
SMALL
GASTEIGER

@<TRIPOS>ATOM
      1 C         -29.4854   -5.2965  -14.7767 C.2     1  UNL1        0.2520
      2 O         -30.5958   -5.6381  -14.2860 O.2     1  UNL1       -0.2698
      3 N         -28.2703   -5.8249  -14.2180 N.am    1  UNL1       -0.2759
      4 C         -28.2201   -7.2157  -13.7590 C.3     1  UNL1        0.0954
      5 C         -26.8876   -7.8386  -14.1814 C.3     1  UNL1        0.0399
      6 C         -25.6367   -7.0158  -13.7162 C.3     1  UNL1        0.0645
      7 C         -26.0374   -5.6228  -13.1487 C.3     1  UNL1        0.0399
      8 C         -27.1270   -4.9316  -13.9805 C.3     1  UNL1        0.0954
      9 C         -24.8858   -7.7975  -12.5811 C.3     1  UNL1        0.0477
     10 C         -24.1149   -8.9511  -13.1481 C.ar    1  UNL1        0.0220
     11 C         -23.5953  -10.0720  -12.5438 C.ar    1  UNL1        0.0923
     12 N         -22.8233  -10.7156  -13.4555 N.ar    1  UNL1       -0.2534
     13 N         -22.8066  -10.0261  -14.5932 N.ar    1  UNL1       -0.1651
     14 C         -23.5933   -8.9530  -14.4048 C.ar    1  UNL1        0.1515
     15 C         -23.8505   -7.8557  -15.3240 C.2     1  UNL1        0.2650
     16 O         -23.2949   -7.8003  -16.4527 O.2     1  UNL1       -0.2684
     17 N         -24.7438   -6.8196  -14.8866 N.am    1  UNL1       -0.3023
     18 H         -24.8776   -5.9929  -15.5113 H       1  UNL1        0.1497
     19 C         -30.4953   -3.4184  -16.1072 C.ar    1  UNL1        0.1430
     20 C         -30.4486   -2.5493  -17.2139 C.ar    1  UNL1        0.0372
     21 C         -29.3696   -2.5894  -18.1076 C.ar    1  UNL1        0.0091
     22 C         -29.3231   -1.7211  -19.2060 C.ar    1  UNL1        0.0210
     23 C         -28.2362   -1.7758  -20.0778 C.ar    1  UNL1        0.1021
     24 N         -27.2313   -2.6637  -19.8617 N.ar    1  UNL1       -0.2101
     25 C         -27.2380   -3.5251  -18.8054 C.ar    1  UNL1        0.2248
     26 C         -28.3156   -3.5063  -17.8988 C.ar    1  UNL1        0.0536
     27 C         -28.3659   -4.3779  -16.7997 C.ar    1  UNL1        0.0122
     28 C         -29.4561   -4.3529  -15.9160 C.ar    1  UNL1        0.0876
     29 C         -31.7788   -2.2889  -14.2729 C.3     1  UNL1        0.2525
     30 O         -31.5441   -3.3664  -15.1728 O.3     1  UNL1       -0.4713
     31 O         -26.1794   -4.4235  -18.6238 O.3     1  UNL1       -0.4561
     32 C         -25.8384   -5.4187  -19.5815 C.3     1  UNL1        0.2542
     33 C         -22.0447  -11.9471  -13.2156 C.3     1  UNL1        0.0867
     34 C         -21.2243  -11.7877  -11.9226 C.3     1  UNL1        0.0244
     35 C         -23.0015  -13.1476  -13.0801 C.3     1  UNL1        0.0244
     36 C         -21.0795  -12.2166  -14.3904 C.3     1  UNL1        0.0244
@<TRIPOS>BOND
     1    29    30    1
     2    30    19    1
     3    19    20   ar
     4    20    21   ar
     5    21    22   ar
     6    22    23   ar
     7    23    24   ar
     8    24    25   ar
     9    25    31    1
    10    31    32    1
    11    25    26   ar
    12    26    27   ar
    13    27    28   ar
    14    28     1    1
    15     1     2    2
    16     1     3   am
    17     3     4    1
    18     4     5    1
    19     5     6    1
    20     6     7    1
    21     7     8    1
    22     6     9    1
    23     9    10    1
    24    10    11   ar
    25    11    12   ar
    26    12    33    1
    27    33    34    1
    28    33    35    1
    29    33    36    1
    30    12    13   ar
    31    13    14   ar
    32    14    15    1
    33    15    16    2
    34    15    17   am
    35    28    19   ar
    36     8     3    1
    37    14    10   ar
    38    26    21   ar
    39    17     6    1
    40    17    18    1
@<TRIPOS>MOLECULE
*****
 36 40 0 0 0
SMALL
GASTEIGER

@<TRIPOS>ATOM
      1 C         -23.1516   -9.3558  -14.3104 C.2     1  UNL1        0.2520
      2 O         -22.8803  -10.4350  -14.9037 O.2     1  UNL1       -0.2698
      3 N         -22.9923   -9.2711  -12.8839 N.am    1  UNL1       -0.2759
      4 C         -21.8648   -9.9431  -12.2322 C.3     1  UNL1        0.0954
      5 C         -21.2879   -9.0267  -11.1508 C.3     1  UNL1        0.0399
      6 C         -22.3567   -8.5271  -10.1183 C.3     1  UNL1        0.0645
      7 C         -23.8057   -8.8719  -10.5710 C.3     1  UNL1        0.0399
      8 C         -24.0351   -8.6298  -12.0696 C.3     1  UNL1        0.0954
      9 C         -22.1111   -9.2189   -8.7310 C.3     1  UNL1        0.0477
     10 C         -20.9267   -8.6168   -8.0372 C.ar    1  UNL1        0.0220
     11 C         -20.1539   -9.0869   -7.0011 C.ar    1  UNL1        0.0923
     12 N         -19.3235   -8.0857   -6.6145 N.ar    1  UNL1       -0.2534
     13 N         -19.5692   -6.9968   -7.3383 N.ar    1  UNL1       -0.1651
     14 C         -20.5445   -7.3217   -8.2039 C.ar    1  UNL1        0.1515
     15 C         -21.2148   -6.4609   -9.1656 C.2     1  UNL1        0.2650
     16 O         -20.9345   -5.2368   -9.2589 O.2     1  UNL1       -0.2684
     17 N         -22.2308   -7.0529   -9.9903 N.am    1  UNL1       -0.3023
     18 H         -22.7663   -6.4265  -10.6325 H       1  UNL1        0.1497
     19 C         -22.9970   -7.8240  -16.2972 C.ar    1  UNL1        0.1430
     20 C         -23.4672   -6.7044  -17.0096 C.ar    1  UNL1        0.0372
     21 C         -24.5743   -5.9788  -16.5486 C.ar    1  UNL1        0.0091
     22 C         -25.0431   -4.8673  -17.2609 C.ar    1  UNL1        0.0210
     23 C         -26.1500   -4.1651  -16.7853 C.ar    1  UNL1        0.1021
     24 N         -26.7677   -4.5575  -15.6411 N.ar    1  UNL1       -0.2101
     25 C         -26.3436   -5.6328  -14.9189 C.ar    1  UNL1        0.2248
     26 C         -25.2293   -6.3722  -15.3605 C.ar    1  UNL1        0.0536
     27 C         -24.7557   -7.4839  -14.6463 C.ar    1  UNL1        0.0122
     28 C         -23.6344   -8.1986  -15.0960 C.ar    1  UNL1        0.0876
     29 C         -20.5444   -8.2778  -16.5571 C.3     1  UNL1        0.2525
     30 O         -21.9170   -8.5937  -16.7631 O.3     1  UNL1       -0.4713
     31 O         -27.0126   -5.9994  -13.7446 O.3     1  UNL1       -0.4561
     32 C         -26.6914   -5.4536  -12.4706 C.3     1  UNL1        0.2542
     33 C         -18.3497   -8.1479   -5.5062 C.3     1  UNL1        0.0867
     34 C         -17.6822   -9.5351   -5.4915 C.3     1  UNL1        0.0244
     35 C         -17.2781   -7.0566   -5.6957 C.3     1  UNL1        0.0244
     36 C         -19.0536   -7.9170   -4.1514 C.3     1  UNL1        0.0244
@<TRIPOS>BOND
     1    29    30    1
     2    30    19    1
     3    19    20   ar
     4    20    21   ar
     5    21    22   ar
     6    22    23   ar
     7    23    24   ar
     8    24    25   ar
     9    25    31    1
    10    31    32    1
    11    25    26   ar
    12    26    27   ar
    13    27    28   ar
    14    28     1    1
    15     1     2    2
    16     1     3   am
    17     3     4    1
    18     4     5    1
    19     5     6    1
    20     6     7    1
    21     7     8    1
    22     6     9    1
    23     9    10    1
    24    10    11   ar
    25    11    12   ar
    26    12    33    1
    27    33    34    1
    28    33    35    1
    29    33    36    1
    30    12    13   ar
    31    13    14   ar
    32    14    15    1
    33    15    16    2
    34    15    17   am
    35    28    19   ar
    36     8     3    1
    37    14    10   ar
    38    26    21   ar
    39    17     6    1
    40    17    18    1
