@<TRIPOS>MOLECULE
*****
 37 41 0 0 0
SMALL
GASTEIGER

@<TRIPOS>ATOM
      1 C         -20.4890   -7.7663   -8.6541 C.2     1  UNL1        0.2494
      2 O         -20.3425   -6.9565   -7.6986 O.2     1  UNL1       -0.2699
      3 N         -21.4928   -7.4993   -9.6495 N.am    1  UNL1       -0.2675
      4 C         -21.3348   -6.2926  -10.4695 C.3     1  UNL1        0.1413
      5 C         -22.6793   -5.6221  -10.7272 C.3     1  UNL1        0.2268
      6 O         -23.4200   -6.2585  -11.7704 O.3     1  UNL1       -0.4739
      7 C         -23.3350   -7.5979  -12.1909 C.ar    1  UNL1        0.1362
      8 C         -23.7405   -7.8629  -13.5037 C.ar    1  UNL1        0.0366
      9 C         -23.6298   -9.1407  -14.0485 C.ar    1  UNL1        0.0031
     10 C         -23.1172  -10.1954  -13.2827 C.ar    1  UNL1       -0.0000
     11 C         -22.7470   -9.9504  -11.9510 C.ar    1  UNL1        0.0004
     12 C         -22.8555   -8.6649  -11.3825 C.ar    1  UNL1        0.0322
     13 C         -22.5406   -8.5109   -9.9037 C.3     1  UNL1        0.1304
     14 C         -22.9679  -11.5519  -13.8673 C.ar    1  UNL1        0.0015
     15 C         -21.7023  -12.2024  -13.8731 C.ar    1  UNL1        0.0016
     16 C         -21.5553  -13.4889  -14.4257 C.ar    1  UNL1        0.0206
     17 C         -22.6857  -14.0971  -14.9617 C.ar    1  UNL1        0.0985
     18 N         -22.7758  -15.3113  -15.5334 N.ar    1  UNL1       -0.2241
     19 C         -24.0909  -15.3904  -15.8687 C.ar    1  UNL1        0.1750
     20 N         -24.8024  -14.2883  -15.5301 N.ar    1  UNL1       -0.3349
     21 C         -23.8992  -13.4828  -14.9599 C.ar    1  UNL1        0.0757
     22 C         -24.0893  -12.2127  -14.4247 C.ar    1  UNL1        0.0185
     23 H         -25.8205  -14.1113  -15.6810 H       1  UNL1        0.1675
     24 C         -17.2659  -10.9348   -6.4881 C.3     1  UNL1        0.0324
     25 C         -18.0466  -10.5292   -7.7105 C.ar    1  UNL1       -0.0046
     26 C         -18.8798   -9.3991   -7.6324 C.ar    1  UNL1        0.0015
     27 C         -19.6158   -8.9619   -8.7459 C.ar    1  UNL1        0.0534
     28 C         -19.5274   -9.6824   -9.9444 C.ar    1  UNL1        0.0058
     29 C         -18.6967  -10.7988  -10.0390 C.ar    1  UNL1        0.0182
     30 C         -17.9367  -11.2257   -8.9399 C.ar    1  UNL1        0.1018
     31 S         -16.9023  -12.6516   -9.1421 S.O2    1  UNL1        0.0101
     32 C         -15.1935  -12.1552   -9.1539 C.3     1  UNL1        0.1816
     33 O         -17.2333  -13.3743  -10.4173 O.2     1  UNL1       -0.1686
     34 O         -17.1208  -13.6002   -7.9965 O.2     1  UNL1       -0.1686
     35 C         -23.8214   -8.2590   -9.0849 C.3     1  UNL1        0.1615
     36 O         -23.5309   -8.1736   -7.7157 O.3     1  UNL1       -0.3799
     37 H         -23.2886   -7.2283   -7.5343 H       1  UNL1        0.2105
@<TRIPOS>BOND
     1    24    25    1
     2    25    26   ar
     3    26    27   ar
     4    27     1    1
     5     1     2    2
     6     1     3   am
     7     3     4    1
     8     4     5    1
     9     5     6    1
    10     6     7    1
    11     7     8   ar
    12     8     9   ar
    13     9    10   ar
    14    10    14    1
    15    14    15   ar
    16    15    16   ar
    17    16    17   ar
    18    17    18   ar
    19    18    19   ar
    20    19    20   ar
    21    20    21   ar
    22    21    22   ar
    23    10    11   ar
    24    11    12   ar
    25    12    13    1
    26    13    35    1
    27    35    36    1
    28    27    28   ar
    29    28    29   ar
    30    29    30   ar
    31    30    31    1
    32    31    32    1
    33    31    33    2
    34    31    34    2
    35    30    25   ar
    36    13     3    1
    37    12     7   ar
    38    22    14   ar
    39    21    17   ar
    40    20    23    1
    41    36    37    1
@<TRIPOS>MOLECULE
*****
 37 41 0 0 0
SMALL
GASTEIGER

@<TRIPOS>ATOM
      1 C         -20.9948  -10.9096  -11.1752 C.2     1  UNL1        0.2494
      2 O         -20.0702  -11.5427  -10.5968 O.2     1  UNL1       -0.2699
      3 N         -21.2430   -9.5415  -10.8057 N.am    1  UNL1       -0.2675
      4 C         -20.1791   -8.5634  -11.0607 C.3     1  UNL1        0.1413
      5 C         -20.0829   -7.5468   -9.9289 C.3     1  UNL1        0.2268
      6 O         -21.0750   -6.5228  -10.0241 O.3     1  UNL1       -0.4739
      7 C         -22.3344   -6.6013  -10.6454 C.ar    1  UNL1        0.1362
      8 C         -22.8971   -5.3897  -11.0621 C.ar    1  UNL1        0.0366
      9 C         -24.1065   -5.3565  -11.7537 C.ar    1  UNL1        0.0031
     10 C         -24.7933   -6.5438  -12.0370 C.ar    1  UNL1       -0.0000
     11 C         -24.2595   -7.7613  -11.5866 C.ar    1  UNL1        0.0004
     12 C         -23.0391   -7.8133  -10.8825 C.ar    1  UNL1        0.0322
     13 C         -22.5901   -9.1572  -10.3331 C.3     1  UNL1        0.1304
     14 C         -26.0664   -6.5175  -12.8004 C.ar    1  UNL1        0.0015
     15 C         -26.9395   -7.6412  -12.7911 C.ar    1  UNL1        0.0016
     16 C         -28.1481   -7.6212  -13.5128 C.ar    1  UNL1        0.0206
     17 C         -28.4557   -6.4698  -14.2301 C.ar    1  UNL1        0.0985
     18 N         -29.5464   -6.2330  -14.9809 N.ar    1  UNL1       -0.2241
     19 C         -29.3300   -4.9713  -15.4385 C.ar    1  UNL1        0.1750
     20 N         -28.1658   -4.4311  -15.0045 N.ar    1  UNL1       -0.3349
     21 C         -27.6273   -5.3912  -14.2442 C.ar    1  UNL1        0.0757
     22 C         -26.4242   -5.3680  -13.5458 C.ar    1  UNL1        0.0185
     23 H         -27.7803   -3.4839  -15.2165 H       1  UNL1        0.1675
     24 C         -25.2192  -11.2049  -13.8559 C.3     1  UNL1        0.0324
     25 C         -23.8409  -11.7369  -13.5635 C.ar    1  UNL1       -0.0046
     26 C         -23.0758  -11.1104  -12.5638 C.ar    1  UNL1        0.0015
     27 C         -21.7921  -11.5754  -12.2340 C.ar    1  UNL1        0.0534
     28 C         -21.2657  -12.6701  -12.9325 C.ar    1  UNL1        0.0058
     29 C         -22.0177  -13.3077  -13.9190 C.ar    1  UNL1        0.0182
     30 C         -23.3115  -12.8671  -14.2352 C.ar    1  UNL1        0.1018
     31 S         -24.2041  -13.7335  -15.4988 S.O2    1  UNL1        0.0101
     32 C         -23.3602  -15.2486  -15.8968 C.3     1  UNL1        0.1816
     33 O         -24.3410  -12.8857  -16.7320 O.2     1  UNL1       -0.1686
     34 O         -25.5842  -14.0659  -15.0042 O.2     1  UNL1       -0.1686
     35 C         -22.7168   -9.2016   -8.7980 C.3     1  UNL1        0.1615
     36 O         -24.0309   -8.9215   -8.3964 O.3     1  UNL1       -0.3799
     37 H         -24.5233   -9.7831   -8.4123 H       1  UNL1        0.2105
@<TRIPOS>BOND
     1    24    25    1
     2    25    26   ar
     3    26    27   ar
     4    27     1    1
     5     1     2    2
     6     1     3   am
     7     3     4    1
     8     4     5    1
     9     5     6    1
    10     6     7    1
    11     7     8   ar
    12     8     9   ar
    13     9    10   ar
    14    10    14    1
    15    14    15   ar
    16    15    16   ar
    17    16    17   ar
    18    17    18   ar
    19    18    19   ar
    20    19    20   ar
    21    20    21   ar
    22    21    22   ar
    23    10    11   ar
    24    11    12   ar
    25    12    13    1
    26    13    35    1
    27    35    36    1
    28    27    28   ar
    29    28    29   ar
    30    29    30   ar
    31    30    31    1
    32    31    32    1
    33    31    33    2
    34    31    34    2
    35    30    25   ar
    36    13     3    1
    37    12     7   ar
    38    22    14   ar
    39    21    17   ar
    40    20    23    1
    41    36    37    1
@<TRIPOS>MOLECULE
*****
 37 41 0 0 0
SMALL
GASTEIGER

@<TRIPOS>ATOM
      1 C         -20.7369   -7.8428   -9.1013 C.2     1  UNL1        0.2494
      2 O         -20.4460   -6.9886   -8.2204 O.2     1  UNL1       -0.2699
      3 N         -21.8472   -7.5902   -9.9806 N.am    1  UNL1       -0.2675
      4 C         -21.7524   -6.4373  -10.8835 C.3     1  UNL1        0.1413
      5 C         -23.0955   -5.7283  -11.0142 C.3     1  UNL1        0.2268
      6 O         -23.9808   -6.3903  -11.9196 O.3     1  UNL1       -0.4739
      7 C         -23.9932   -7.7530  -12.2675 C.ar    1  UNL1        0.1362
      8 C         -24.5674   -8.0726  -13.5030 C.ar    1  UNL1        0.0366
      9 C         -24.5678   -9.3816  -13.9808 C.ar    1  UNL1        0.0031
     10 C         -23.9993  -10.4128  -13.2224 C.ar    1  UNL1       -0.0000
     11 C         -23.4585  -10.1107  -11.9628 C.ar    1  UNL1        0.0004
     12 C         -23.4528   -8.7927  -11.4622 C.ar    1  UNL1        0.0322
     13 C         -22.9515   -8.5712  -10.0447 C.3     1  UNL1        0.1304
     14 C         -23.9689  -11.8040  -13.7398 C.ar    1  UNL1        0.0015
     15 C         -25.0844  -12.6687  -13.5577 C.ar    1  UNL1        0.0016
     16 C         -25.0609  -13.9887  -14.0467 C.ar    1  UNL1        0.0206
     17 C         -23.9149  -14.4135  -14.7108 C.ar    1  UNL1        0.0985
     18 N         -23.6776  -15.6200  -15.2562 N.ar    1  UNL1       -0.2241
     19 C         -22.4247  -15.4802  -15.7651 C.ar    1  UNL1        0.1750
     20 N         -21.8905  -14.2527  -15.5570 N.ar    1  UNL1       -0.3349
     21 C         -22.8445  -13.5936  -14.8897 C.ar    1  UNL1        0.0757
     22 C         -22.8250  -12.2831  -14.4231 C.ar    1  UNL1        0.0185
     23 H         -20.9507  -13.9045  -15.8506 H       1  UNL1        0.1675
     24 C         -19.9293  -12.2765  -11.2942 C.3     1  UNL1        0.0324
     25 C         -19.4993  -11.2409  -10.2887 C.ar    1  UNL1       -0.0046
     26 C         -20.2633  -10.0670  -10.1631 C.ar    1  UNL1        0.0015
     27 C         -19.9221   -9.0757   -9.2284 C.ar    1  UNL1        0.0534
     28 C         -18.7881   -9.2596   -8.4262 C.ar    1  UNL1        0.0058
     29 C         -18.0274  -10.4238   -8.5327 C.ar    1  UNL1        0.0182
     30 C         -18.3772  -11.4313   -9.4441 C.ar    1  UNL1        0.1018
     31 S         -17.3613  -12.8827   -9.5163 S.O2    1  UNL1        0.0101
     32 C         -15.6534  -12.4296   -9.3059 C.3     1  UNL1        0.1816
     33 O         -17.5429  -13.5965  -10.8261 O.2     1  UNL1       -0.1686
     34 O         -17.7494  -13.8259   -8.4119 O.2     1  UNL1       -0.1686
     35 C         -24.1116   -8.2236   -9.0918 C.3     1  UNL1        0.1615
     36 O         -23.6649   -8.1554   -7.7643 O.3     1  UNL1       -0.3799
     37 H         -23.3362   -7.2298   -7.6216 H       1  UNL1        0.2105
@<TRIPOS>BOND
     1    24    25    1
     2    25    26   ar
     3    26    27   ar
     4    27     1    1
     5     1     2    2
     6     1     3   am
     7     3     4    1
     8     4     5    1
     9     5     6    1
    10     6     7    1
    11     7     8   ar
    12     8     9   ar
    13     9    10   ar
    14    10    14    1
    15    14    15   ar
    16    15    16   ar
    17    16    17   ar
    18    17    18   ar
    19    18    19   ar
    20    19    20   ar
    21    20    21   ar
    22    21    22   ar
    23    10    11   ar
    24    11    12   ar
    25    12    13    1
    26    13    35    1
    27    35    36    1
    28    27    28   ar
    29    28    29   ar
    30    29    30   ar
    31    30    31    1
    32    31    32    1
    33    31    33    2
    34    31    34    2
    35    30    25   ar
    36    13     3    1
    37    12     7   ar
    38    22    14   ar
    39    21    17   ar
    40    20    23    1
    41    36    37    1
@<TRIPOS>MOLECULE
*****
 37 41 0 0 0
SMALL
GASTEIGER

@<TRIPOS>ATOM
      1 C         -22.2859   -7.1028  -10.0415 C.2     1  UNL1        0.2494
      2 O         -22.0209   -6.0337   -9.4275 O.2     1  UNL1       -0.2699
      3 N         -21.3043   -8.1543  -10.0705 N.am    1  UNL1       -0.2675
      4 C         -20.9347   -8.7763   -8.7939 C.3     1  UNL1        0.1413
      5 C         -19.4422   -9.0824   -8.7423 C.3     1  UNL1        0.2268
      6 O         -19.1017  -10.2782   -9.4466 O.3     1  UNL1       -0.4739
      7 C         -19.7917  -10.8693  -10.5203 C.ar    1  UNL1        0.1362
      8 C         -19.5939  -12.2423  -10.7040 C.ar    1  UNL1        0.0366
      9 C         -20.2836  -12.9445  -11.6906 C.ar    1  UNL1        0.0031
     10 C         -21.1865  -12.2819  -12.5316 C.ar    1  UNL1       -0.0000
     11 C         -21.3609  -10.8969  -12.3842 C.ar    1  UNL1        0.0004
     12 C         -20.6689  -10.1701  -11.3940 C.ar    1  UNL1        0.0322
     13 C         -20.8294   -8.6589  -11.3765 C.3     1  UNL1        0.1304
     14 C         -21.9473  -13.0299  -13.5640 C.ar    1  UNL1        0.0015
     15 C         -21.2690  -13.6914  -14.6257 C.ar    1  UNL1        0.0016
     16 C         -21.9857  -14.4026  -15.6069 C.ar    1  UNL1        0.0206
     17 C         -23.3722  -14.4351  -15.5005 C.ar    1  UNL1        0.0985
     18 N         -24.2474  -15.0498  -16.3163 N.ar    1  UNL1       -0.2241
     19 C         -25.4469  -14.7596  -15.7462 C.ar    1  UNL1        0.1750
     20 N         -25.3447  -14.0017  -14.6278 N.ar    1  UNL1       -0.3349
     21 C         -24.0286  -13.8061  -14.4888 C.ar    1  UNL1        0.0757
     22 C         -23.3604  -13.0927  -13.4988 C.ar    1  UNL1        0.0185
     23 H         -26.1168  -13.6523  -14.0175 H       1  UNL1        0.1675
     24 C         -26.9120   -9.0309  -10.0293 C.3     1  UNL1        0.0324
     25 C         -25.8716   -8.1867  -10.7171 C.ar    1  UNL1       -0.0046
     26 C         -24.6198   -8.0242  -10.0975 C.ar    1  UNL1        0.0015
     27 C         -23.6042   -7.2649  -10.7017 C.ar    1  UNL1        0.0534
     28 C         -23.8592   -6.6462  -11.9328 C.ar    1  UNL1        0.0058
     29 C         -25.0926   -6.8078  -12.5636 C.ar    1  UNL1        0.0182
     30 C         -26.1027   -7.5874  -11.9805 C.ar    1  UNL1        0.1018
     31 S         -27.6412   -7.7466  -12.8475 S.O2    1  UNL1        0.0101
     32 C         -27.9178   -6.3011  -13.8475 C.3     1  UNL1        0.1816
     33 O         -28.7803   -7.9270  -11.8840 O.2     1  UNL1       -0.1686
     34 O         -27.5924   -8.9516  -13.7449 O.2     1  UNL1       -0.1686
     35 C         -19.5432   -7.9568  -11.8531 C.3     1  UNL1        0.1615
     36 O         -19.8454   -6.7718  -12.5394 O.3     1  UNL1       -0.3799
     37 H         -19.9220   -6.0576  -11.8544 H       1  UNL1        0.2105
@<TRIPOS>BOND
     1    24    25    1
     2    25    26   ar
     3    26    27   ar
     4    27     1    1
     5     1     2    2
     6     1     3   am
     7     3     4    1
     8     4     5    1
     9     5     6    1
    10     6     7    1
    11     7     8   ar
    12     8     9   ar
    13     9    10   ar
    14    10    14    1
    15    14    15   ar
    16    15    16   ar
    17    16    17   ar
    18    17    18   ar
    19    18    19   ar
    20    19    20   ar
    21    20    21   ar
    22    21    22   ar
    23    10    11   ar
    24    11    12   ar
    25    12    13    1
    26    13    35    1
    27    35    36    1
    28    27    28   ar
    29    28    29   ar
    30    29    30   ar
    31    30    31    1
    32    31    32    1
    33    31    33    2
    34    31    34    2
    35    30    25   ar
    36    13     3    1
    37    12     7   ar
    38    22    14   ar
    39    21    17   ar
    40    20    23    1
    41    36    37    1
