@<TRIPOS>MOLECULE
*****
 42 46 0 0 0
SMALL
GASTEIGER

@<TRIPOS>ATOM
      1 C         -21.8276   52.3830   -9.6366 C.ar    1  UNL1        0.2019
      2 N         -22.0138   51.6878   -8.4836 N.ar    1  UNL1       -0.2134
      3 C         -23.2820   51.2551   -8.5953 C.ar    1  UNL1        0.1033
      4 C         -23.9915   50.4856   -7.6768 C.ar    1  UNL1        0.0284
      5 C         -25.3371   50.1648   -7.9663 C.ar    1  UNL1        0.0922
      6 C         -25.9148   50.6098   -9.1879 C.ar    1  UNL1        0.1782
      7 C         -25.1555   51.3678  -10.1045 C.ar    1  UNL1        0.1897
      8 C         -23.8367   51.6829   -9.7672 C.ar    1  UNL1        0.1173
      9 N         -22.9173   52.3894  -10.4513 N.ar    1  UNL1       -0.2950
     10 C         -23.0719   53.0414  -11.7517 C.3     1  UNL1        0.1333
     11 O         -25.7374   51.7704  -11.3103 O.3     1  UNL1       -0.4669
     12 C         -26.9617   51.1928  -11.7672 C.3     1  UNL1        0.2527
     13 C         -27.9144   50.9679  -10.5875 C.3     1  UNL1        0.2526
     14 O         -27.2357   50.2918   -9.5269 O.3     1  UNL1       -0.4682
     15 C         -26.1110   49.3675   -6.9922 C.2     1  UNL1        0.2526
     16 O         -26.8782   49.9648   -6.1893 O.2     1  UNL1       -0.2697
     17 N         -25.9979   47.9332   -6.9603 N.am    1  UNL1       -0.2803
     18 H         -25.3252   47.4689   -7.6104 H       1  UNL1        0.1552
     19 C         -26.6976   47.0914   -6.0288 C.ar    1  UNL1        0.0506
     20 C         -27.9995   46.6340   -6.2906 C.ar    1  UNL1        0.0170
     21 C         -28.6460   45.7943   -5.3820 C.ar    1  UNL1        0.0309
     22 C         -27.9995   45.3912   -4.2111 C.ar    1  UNL1        0.1441
     23 F         -28.6492   44.5703   -3.3468 F       1  UNL1       -0.2042
     24 C         -26.6876   45.8212   -3.9403 C.ar    1  UNL1        0.1000
     25 C         -26.0409   46.6638   -4.8649 C.ar    1  UNL1        0.0208
     26 C         -25.9949   45.3622   -2.6794 C.3     1  UNL1        0.4207
     27 F         -26.8796   45.2421   -1.6214 F       1  UNL1       -0.1658
     28 F         -25.4047   44.1304   -2.8978 F       1  UNL1       -0.1658
     29 F         -25.0165   46.2763   -2.3333 F       1  UNL1       -0.1658
     30 N         -20.6094   53.0844   -9.9281 N.pl3   1  UNL1       -0.2814
     31 H         -20.1456   52.9216  -10.8488 H       1  UNL1        0.1551
     32 C         -19.3481   56.4526   -7.6514 C.ar    1  UNL1       -0.0194
     33 C         -20.2014   56.6061   -8.7560 C.ar    1  UNL1        0.0267
     34 C         -20.6055   55.4958   -9.5017 C.ar    1  UNL1        0.1540
     35 F         -21.4378   55.6717  -10.5589 F       1  UNL1       -0.2028
     36 C         -20.1751   54.2083   -9.1491 C.ar    1  UNL1        0.0889
     37 C         -19.2968   54.0481   -8.0584 C.ar    1  UNL1        0.0730
     38 CL        -18.6204   52.4774   -7.6420 Cl      1  UNL1       -0.0809
     39 C         -18.8949   55.1638   -7.3155 C.ar    1  UNL1        0.0085
     40 C         -17.5882   57.4127   -6.1299 C.3     1  UNL1        0.0047
     41 C         -18.9168   57.6680   -6.8515 C.3     1  UNL1        0.0225
     42 C         -18.8308   58.9129   -7.7423 C.3     1  UNL1        0.0047
@<TRIPOS>BOND
     1    40    41    1
     2    41    42    1
     3    41    32    1
     4    32    33   ar
     5    33    34   ar
     6    34    35    1
     7    34    36   ar
     8    36    30    1
     9    30     1    1
    10     1     2   ar
    11     2     3   ar
    12     3     4   ar
    13     4     5   ar
    14     5    15    1
    15    15    16    2
    16    15    17   am
    17    17    19    1
    18    19    20   ar
    19    20    21   ar
    20    21    22   ar
    21    22    23    1
    22    22    24   ar
    23    24    26    1
    24    26    27    1
    25    26    28    1
    26    26    29    1
    27    24    25   ar
    28     5     6   ar
    29     6     7   ar
    30     7     8   ar
    31     8     9   ar
    32     9    10    1
    33     7    11    1
    34    11    12    1
    35    12    13    1
    36    13    14    1
    37    36    37   ar
    38    37    38    1
    39    37    39   ar
    40    39    32   ar
    41     9     1   ar
    42     8     3   ar
    43    25    19   ar
    44    14     6    1
    45    30    31    1
    46    17    18    1
@<TRIPOS>MOLECULE
*****
 42 46 0 0 0
SMALL
GASTEIGER

@<TRIPOS>ATOM
      1 C         -27.7954   47.0538   -7.1182 C.ar    1  UNL1        0.2019
      2 N         -26.5913   47.6648   -6.9625 N.ar    1  UNL1       -0.2134
      3 C         -26.6520   48.6774   -7.8451 C.ar    1  UNL1        0.1033
      4 C         -25.6685   49.6296   -8.1007 C.ar    1  UNL1        0.0284
      5 C         -25.9138   50.5967   -9.1017 C.ar    1  UNL1        0.0922
      6 C         -27.1566   50.5868   -9.7941 C.ar    1  UNL1        0.1782
      7 C         -28.1380   49.6197   -9.4895 C.ar    1  UNL1        0.1897
      8 C         -27.8443   48.6674   -8.5102 C.ar    1  UNL1        0.1173
      9 N         -28.5924   47.6486   -8.0468 N.ar    1  UNL1       -0.2950
     10 C         -29.9353   47.2550   -8.4731 C.3     1  UNL1        0.1333
     11 O         -29.3618   49.6474  -10.1650 O.3     1  UNL1       -0.4669
     12 C         -29.7566   50.7884  -10.9290 C.3     1  UNL1        0.2527
     13 C         -28.5497   51.3718  -11.6726 C.3     1  UNL1        0.2526
     14 O         -27.4517   51.5428  -10.7739 O.3     1  UNL1       -0.4682
     15 C         -24.8718   51.6009   -9.4008 C.2     1  UNL1        0.2526
     16 O         -25.1953   52.8188   -9.4464 O.2     1  UNL1       -0.2697
     17 N         -23.5090   51.2005   -9.6317 N.am    1  UNL1       -0.2803
     18 H         -23.2781   50.1821   -9.6266 H       1  UNL1        0.1552
     19 C         -22.4455   52.1130   -9.9515 C.ar    1  UNL1        0.0506
     20 C         -22.3630   52.7283  -11.2114 C.ar    1  UNL1        0.0170
     21 C         -21.3356   53.6324  -11.4866 C.ar    1  UNL1        0.0309
     22 C         -20.3884   53.9428  -10.5080 C.ar    1  UNL1        0.1441
     23 F         -19.4025   54.8290  -10.8004 F       1  UNL1       -0.2042
     24 C         -20.4655   53.3534   -9.2329 C.ar    1  UNL1        0.1000
     25 C         -21.5082   52.4466   -8.9619 C.ar    1  UNL1        0.0208
     26 C         -19.4451   53.7129   -8.1793 C.3     1  UNL1        0.4207
     27 F         -19.2537   55.0814   -8.0947 F       1  UNL1       -0.1658
     28 F         -19.8717   53.2540   -6.9462 F       1  UNL1       -0.1658
     29 F         -18.2355   53.1178   -8.4885 F       1  UNL1       -0.1658
     30 N         -28.1560   45.8627   -6.4027 N.pl3   1  UNL1       -0.2814
     31 H         -27.9081   44.9362   -6.8146 H       1  UNL1        0.1551
     32 C         -29.4106   45.9726   -2.3365 C.ar    1  UNL1       -0.0194
     33 C         -30.3386   46.1020   -3.3825 C.ar    1  UNL1        0.0267
     34 C         -29.9174   46.0712   -4.7143 C.ar    1  UNL1        0.1540
     35 F         -30.8366   46.1895   -5.7055 F       1  UNL1       -0.2028
     36 C         -28.5613   45.8966   -5.0267 C.ar    1  UNL1        0.0889
     37 C         -27.6197   45.7932   -3.9829 C.ar    1  UNL1        0.0730
     38 CL        -25.8919   45.6997   -4.3054 Cl      1  UNL1       -0.0809
     39 C         -28.0472   45.8254   -2.6508 C.ar    1  UNL1        0.0085
     40 C         -30.0497   47.4519   -0.4034 C.3     1  UNL1        0.0047
     41 C         -29.8828   46.0090   -0.8948 C.3     1  UNL1        0.0225
     42 C         -31.1809   45.2124   -0.7189 C.3     1  UNL1        0.0047
@<TRIPOS>BOND
     1    40    41    1
     2    41    42    1
     3    41    32    1
     4    32    33   ar
     5    33    34   ar
     6    34    35    1
     7    34    36   ar
     8    36    30    1
     9    30     1    1
    10     1     2   ar
    11     2     3   ar
    12     3     4   ar
    13     4     5   ar
    14     5    15    1
    15    15    16    2
    16    15    17   am
    17    17    19    1
    18    19    20   ar
    19    20    21   ar
    20    21    22   ar
    21    22    23    1
    22    22    24   ar
    23    24    26    1
    24    26    27    1
    25    26    28    1
    26    26    29    1
    27    24    25   ar
    28     5     6   ar
    29     6     7   ar
    30     7     8   ar
    31     8     9   ar
    32     9    10    1
    33     7    11    1
    34    11    12    1
    35    12    13    1
    36    13    14    1
    37    36    37   ar
    38    37    38    1
    39    37    39   ar
    40    39    32   ar
    41     9     1   ar
    42     8     3   ar
    43    25    19   ar
    44    14     6    1
    45    30    31    1
    46    17    18    1
@<TRIPOS>MOLECULE
*****
 42 46 0 0 0
SMALL
GASTEIGER

@<TRIPOS>ATOM
      1 C         -21.8451   52.2996   -9.5580 C.ar    1  UNL1        0.2019
      2 N         -22.2016   51.7222   -8.3804 N.ar    1  UNL1       -0.2134
      3 C         -23.4739   51.3480   -8.6024 C.ar    1  UNL1        0.1033
      4 C         -24.3278   50.7029   -7.7115 C.ar    1  UNL1        0.0284
      5 C         -25.6502   50.4280   -8.1278 C.ar    1  UNL1        0.0922
      6 C         -26.0593   50.7903   -9.4414 C.ar    1  UNL1        0.1782
      7 C         -25.1568   51.4215  -10.3236 C.ar    1  UNL1        0.1897
      8 C         -23.8668   51.6965   -9.8626 C.ar    1  UNL1        0.1173
      9 N         -22.8347   52.2891  -10.4918 N.ar    1  UNL1       -0.2950
     10 C         -22.8025   52.8281  -11.8514 C.3     1  UNL1        0.1333
     11 O         -25.5745   51.7433  -11.6184 O.3     1  UNL1       -0.4669
     12 C         -26.7739   51.1915  -12.1648 C.3     1  UNL1        0.2527
     13 C         -27.8642   51.1243  -11.0895 C.3     1  UNL1        0.2526
     14 O         -27.3514   50.5124   -9.9041 O.3     1  UNL1       -0.4682
     15 C         -26.5760   49.7636   -7.1870 C.2     1  UNL1        0.2526
     16 O         -26.6300   48.5039   -7.1735 O.2     1  UNL1       -0.2697
     17 N         -27.3998   50.5372   -6.2961 N.am    1  UNL1       -0.2803
     18 H         -27.3629   51.5791   -6.3570 H       1  UNL1        0.1552
     19 C         -28.3407   49.9668   -5.3712 C.ar    1  UNL1        0.0506
     20 C         -29.7253   50.0456   -5.5936 C.ar    1  UNL1        0.0170
     21 C         -30.6166   49.4586   -4.6938 C.ar    1  UNL1        0.0309
     22 C         -30.1396   48.7768   -3.5718 C.ar    1  UNL1        0.1441
     23 F         -31.0279   48.2110   -2.7154 F       1  UNL1       -0.2042
     24 C         -28.7558   48.6684   -3.3421 C.ar    1  UNL1        0.1000
     25 C         -27.8635   49.2590   -4.2576 C.ar    1  UNL1        0.0208
     26 C         -28.2546   47.9124   -2.1347 C.3     1  UNL1        0.4207
     27 F         -28.6066   46.5744   -2.1833 F       1  UNL1       -0.1658
     28 F         -26.8755   47.9998   -2.0737 F       1  UNL1       -0.1658
     29 F         -28.7931   48.4678   -0.9883 F       1  UNL1       -0.1658
     30 N         -20.5608   52.9071   -9.7635 N.pl3   1  UNL1       -0.2814
     31 H         -20.0071   52.6358  -10.6057 H       1  UNL1        0.1551
     32 C         -19.3572   56.4024   -7.6532 C.ar    1  UNL1       -0.0194
     33 C         -20.0623   56.4966   -8.8639 C.ar    1  UNL1        0.0267
     34 C         -20.4481   55.3442   -9.5534 C.ar    1  UNL1        0.1540
     35 F         -21.1365   55.4641  -10.7165 F       1  UNL1       -0.2028
     36 C         -20.1480   54.0745   -9.0386 C.ar    1  UNL1        0.0889
     37 C         -19.4169   53.9709   -7.8380 C.ar    1  UNL1        0.0730
     38 CL        -18.8994   52.4122   -7.2049 Cl      1  UNL1       -0.0809
     39 C         -19.0327   55.1285   -7.1521 C.ar    1  UNL1        0.0085
     40 C         -17.6384   57.4481   -6.1411 C.3     1  UNL1        0.0047
     41 C         -18.9440   57.6629   -6.9161 C.3     1  UNL1        0.0225
     42 C         -18.8258   58.8511   -7.8778 C.3     1  UNL1        0.0047
@<TRIPOS>BOND
     1    40    41    1
     2    41    42    1
     3    41    32    1
     4    32    33   ar
     5    33    34   ar
     6    34    35    1
     7    34    36   ar
     8    36    30    1
     9    30     1    1
    10     1     2   ar
    11     2     3   ar
    12     3     4   ar
    13     4     5   ar
    14     5    15    1
    15    15    16    2
    16    15    17   am
    17    17    19    1
    18    19    20   ar
    19    20    21   ar
    20    21    22   ar
    21    22    23    1
    22    22    24   ar
    23    24    26    1
    24    26    27    1
    25    26    28    1
    26    26    29    1
    27    24    25   ar
    28     5     6   ar
    29     6     7   ar
    30     7     8   ar
    31     8     9   ar
    32     9    10    1
    33     7    11    1
    34    11    12    1
    35    12    13    1
    36    13    14    1
    37    36    37   ar
    38    37    38    1
    39    37    39   ar
    40    39    32   ar
    41     9     1   ar
    42     8     3   ar
    43    25    19   ar
    44    14     6    1
    45    30    31    1
    46    17    18    1
@<TRIPOS>MOLECULE
*****
 42 46 0 0 0
SMALL
GASTEIGER

@<TRIPOS>ATOM
      1 C         -28.4202   50.7655   -5.6331 C.ar    1  UNL1        0.2019
      2 N         -27.0688   50.8391   -5.7580 N.ar    1  UNL1       -0.2134
      3 C         -26.8998   51.0441   -7.0761 C.ar    1  UNL1        0.1033
      4 C         -25.6935   51.1931   -7.7556 C.ar    1  UNL1        0.0284
      5 C         -25.7290   51.3638   -9.1581 C.ar    1  UNL1        0.0922
      6 C         -26.9846   51.4050   -9.8260 C.ar    1  UNL1        0.1782
      7 C         -28.1868   51.2741   -9.0988 C.ar    1  UNL1        0.1897
      8 C         -28.1046   51.0827   -7.7171 C.ar    1  UNL1        0.1173
      9 N         -29.0858   50.9238   -6.8092 N.ar    1  UNL1       -0.2950
     10 C         -30.5294   50.8923   -7.0440 C.3     1  UNL1        0.1333
     11 O         -29.4088   51.3450   -9.7743 O.3     1  UNL1       -0.4669
     12 C         -29.4833   51.8369  -11.1137 C.3     1  UNL1        0.2527
     13 C         -28.2784   51.3484  -11.9256 C.3     1  UNL1        0.2526
     14 O         -27.0668   51.5992  -11.2104 O.3     1  UNL1       -0.4682
     15 C         -24.4570   51.5014   -9.8974 C.2     1  UNL1        0.2526
     16 O         -24.3651   50.9981  -11.0499 O.2     1  UNL1       -0.2697
     17 N         -23.3413   52.2016   -9.3178 N.am    1  UNL1       -0.2803
     18 H         -23.4331   52.5737   -8.3463 H       1  UNL1        0.1552
     19 C         -22.0660   52.3566   -9.9622 C.ar    1  UNL1        0.0506
     20 C         -21.9526   52.9607  -11.2252 C.ar    1  UNL1        0.0170
     21 C         -20.6987   53.1244  -11.8165 C.ar    1  UNL1        0.0309
     22 C         -19.5451   52.7009  -11.1523 C.ar    1  UNL1        0.1441
     23 F         -18.3378   52.8766  -11.7478 F       1  UNL1       -0.2042
     24 C         -19.6351   52.1127   -9.8775 C.ar    1  UNL1        0.1000
     25 C         -20.9035   51.9562   -9.2860 C.ar    1  UNL1        0.0208
     26 C         -18.3777   51.6768   -9.1639 C.3     1  UNL1        0.4207
     27 F         -18.2030   50.3047   -9.2219 F       1  UNL1       -0.1658
     28 F         -17.2802   52.2824   -9.7487 F       1  UNL1       -0.1658
     29 F         -18.4478   52.0556   -7.8356 F       1  UNL1       -0.1658
     30 N         -29.0669   50.4918   -4.3810 N.pl3   1  UNL1       -0.2814
     31 H         -29.6109   51.2545   -3.9207 H       1  UNL1        0.1551
     32 C         -29.6622   46.5252   -2.9558 C.ar    1  UNL1       -0.0194
     33 C         -30.7273   47.2681   -3.4904 C.ar    1  UNL1        0.0267
     34 C         -30.5245   48.5718   -3.9501 C.ar    1  UNL1        0.1540
     35 F         -31.5694   49.2638   -4.4702 F       1  UNL1       -0.2028
     36 C         -29.2493   49.1535   -3.8968 C.ar    1  UNL1        0.0889
     37 C         -28.1805   48.4250   -3.3369 C.ar    1  UNL1        0.0730
     38 CL        -26.5869   49.1415   -3.1251 Cl      1  UNL1       -0.0809
     39 C         -28.3896   47.1198   -2.8776 C.ar    1  UNL1        0.0085
     40 C         -31.1676   45.0288   -1.6036 C.3     1  UNL1        0.0047
     41 C         -29.8980   45.1106   -2.4595 C.3     1  UNL1        0.0225
     42 C         -29.9545   44.1183   -3.6269 C.3     1  UNL1        0.0047
@<TRIPOS>BOND
     1    40    41    1
     2    41    42    1
     3    41    32    1
     4    32    33   ar
     5    33    34   ar
     6    34    35    1
     7    34    36   ar
     8    36    30    1
     9    30     1    1
    10     1     2   ar
    11     2     3   ar
    12     3     4   ar
    13     4     5   ar
    14     5    15    1
    15    15    16    2
    16    15    17   am
    17    17    19    1
    18    19    20   ar
    19    20    21   ar
    20    21    22   ar
    21    22    23    1
    22    22    24   ar
    23    24    26    1
    24    26    27    1
    25    26    28    1
    26    26    29    1
    27    24    25   ar
    28     5     6   ar
    29     6     7   ar
    30     7     8   ar
    31     8     9   ar
    32     9    10    1
    33     7    11    1
    34    11    12    1
    35    12    13    1
    36    13    14    1
    37    36    37   ar
    38    37    38    1
    39    37    39   ar
    40    39    32   ar
    41     9     1   ar
    42     8     3   ar
    43    25    19   ar
    44    14     6    1
    45    30    31    1
    46    17    18    1
@<TRIPOS>MOLECULE
*****
 42 46 0 0 0
SMALL
GASTEIGER

@<TRIPOS>ATOM
      1 C         -28.0519   46.6745   -7.1489 C.ar    1  UNL1        0.2019
      2 N         -26.7433   47.0031   -7.3129 N.ar    1  UNL1       -0.2134
      3 C         -26.7997   48.0490   -8.1561 C.ar    1  UNL1        0.1033
      4 C         -25.7275   48.7790   -8.6627 C.ar    1  UNL1        0.0284
      5 C         -25.9977   49.8263   -9.5724 C.ar    1  UNL1        0.0922
      6 C         -27.3455   50.1196   -9.9207 C.ar    1  UNL1        0.1782
      7 C         -28.4068   49.3721   -9.3673 C.ar    1  UNL1        0.1897
      8 C         -28.0931   48.3299   -8.4910 C.ar    1  UNL1        0.1173
      9 N         -28.9059   47.4737   -7.8440 N.ar    1  UNL1       -0.2950
     10 C         -30.3656   47.4008   -7.9070 C.3     1  UNL1        0.1333
     11 O         -29.7241   49.6972   -9.7042 O.3     1  UNL1       -0.4669
     12 C         -30.0369   50.9341  -10.3476 C.3     1  UNL1        0.2527
     13 C         -28.9592   51.2813  -11.3809 C.3     1  UNL1        0.2526
     14 O         -27.6599   51.1657  -10.7970 O.3     1  UNL1       -0.4682
     15 C         -24.8699   50.5966  -10.1365 C.2     1  UNL1        0.2526
     16 O         -24.6766   50.5694  -11.3822 O.2     1  UNL1       -0.2697
     17 N         -24.0075   51.3702   -9.2827 N.am    1  UNL1       -0.2803
     18 H         -24.1674   51.3424   -8.2511 H       1  UNL1        0.1552
     19 C         -22.8777   52.1249   -9.7515 C.ar    1  UNL1        0.0506
     20 C         -22.9037   52.7894  -10.9887 C.ar    1  UNL1        0.0170
     21 C         -21.8031   53.5389  -11.4078 C.ar    1  UNL1        0.0309
     22 C         -20.6718   53.6454  -10.5954 C.ar    1  UNL1        0.1441
     23 F         -19.6172   54.3845  -11.0248 F       1  UNL1       -0.2042
     24 C         -20.6339   53.0047   -9.3433 C.ar    1  UNL1        0.1000
     25 C         -21.7505   52.2551   -8.9260 C.ar    1  UNL1        0.0208
     26 C         -19.4112   53.1442   -8.4681 C.3     1  UNL1        0.4207
     27 F         -19.1377   54.4691   -8.1742 F       1  UNL1       -0.1658
     28 F         -19.6128   52.4653   -7.2799 F       1  UNL1       -0.1658
     29 F         -18.3167   52.6025   -9.1172 F       1  UNL1       -0.1658
     30 N         -28.4740   45.5539   -6.3572 N.pl3   1  UNL1       -0.2814
     31 H         -28.2960   44.5905   -6.7173 H       1  UNL1        0.1551
     32 C         -29.5267   45.9854   -2.2553 C.ar    1  UNL1       -0.0194
     33 C         -28.2175   46.2387   -2.6955 C.ar    1  UNL1        0.0267
     34 C         -27.8789   46.0884   -4.0427 C.ar    1  UNL1        0.1540
     35 F         -26.6085   46.3486   -4.4423 F       1  UNL1       -0.2028
     36 C         -28.8465   45.6950   -4.9788 C.ar    1  UNL1        0.0889
     37 C         -30.1563   45.4125   -4.5413 C.ar    1  UNL1        0.0730
     38 CL        -31.3829   44.7940   -5.6416 Cl      1  UNL1       -0.0809
     39 C         -30.4895   45.5642   -3.1906 C.ar    1  UNL1        0.0085
     40 C         -30.0215   47.6331   -0.4184 C.3     1  UNL1        0.0047
     41 C         -29.8793   46.1519   -0.7888 C.3     1  UNL1        0.0225
     42 C         -31.1495   45.3700   -0.4342 C.3     1  UNL1        0.0047
@<TRIPOS>BOND
     1    40    41    1
     2    41    42    1
     3    41    32    1
     4    32    33   ar
     5    33    34   ar
     6    34    35    1
     7    34    36   ar
     8    36    30    1
     9    30     1    1
    10     1     2   ar
    11     2     3   ar
    12     3     4   ar
    13     4     5   ar
    14     5    15    1
    15    15    16    2
    16    15    17   am
    17    17    19    1
    18    19    20   ar
    19    20    21   ar
    20    21    22   ar
    21    22    23    1
    22    22    24   ar
    23    24    26    1
    24    26    27    1
    25    26    28    1
    26    26    29    1
    27    24    25   ar
    28     5     6   ar
    29     6     7   ar
    30     7     8   ar
    31     8     9   ar
    32     9    10    1
    33     7    11    1
    34    11    12    1
    35    12    13    1
    36    13    14    1
    37    36    37   ar
    38    37    38    1
    39    37    39   ar
    40    39    32   ar
    41     9     1   ar
    42     8     3   ar
    43    25    19   ar
    44    14     6    1
    45    30    31    1
    46    17    18    1
@<TRIPOS>MOLECULE
*****
 42 46 0 0 0
SMALL
GASTEIGER

@<TRIPOS>ATOM
      1 C         -21.8061   52.4614   -9.7019 C.ar    1  UNL1        0.2019
      2 N         -21.9885   51.7521   -8.5569 N.ar    1  UNL1       -0.2134
      3 C         -23.2551   51.3157   -8.6726 C.ar    1  UNL1        0.1033
      4 C         -23.9607   50.5327   -7.7625 C.ar    1  UNL1        0.0284
      5 C         -25.3053   50.2099   -8.0547 C.ar    1  UNL1        0.0922
      6 C         -25.8858   50.6668   -9.2706 C.ar    1  UNL1        0.1782
      7 C         -25.1302   51.4384  -10.1789 C.ar    1  UNL1        0.1897
      8 C         -23.8124   51.7548   -9.8390 C.ar    1  UNL1        0.1173
      9 N         -22.8965   52.4728  -10.5156 N.ar    1  UNL1       -0.2950
     10 C         -23.0547   53.1393  -11.8082 C.3     1  UNL1        0.1333
     11 O         -25.7148   51.8527  -11.3795 O.3     1  UNL1       -0.4669
     12 C         -26.9372   51.2755  -11.8421 C.3     1  UNL1        0.2527
     13 C         -27.8880   51.0331  -10.6644 C.3     1  UNL1        0.2526
     14 O         -27.2057   50.3475   -9.6122 O.3     1  UNL1       -0.4682
     15 C         -26.0752   49.3983   -7.0893 C.2     1  UNL1        0.2526
     16 O         -26.8703   49.9802   -6.3024 O.2     1  UNL1       -0.2697
     17 N         -25.9270   47.9675   -7.0480 N.am    1  UNL1       -0.2803
     18 H         -25.2322   47.5170   -7.6844 H       1  UNL1        0.1552
     19 C         -26.6209   47.1130   -6.1237 C.ar    1  UNL1        0.0506
     20 C         -25.9483   46.4802   -5.0654 C.ar    1  UNL1        0.0170
     21 C         -26.6512   45.6778   -4.1651 C.ar    1  UNL1        0.0309
     22 C         -28.0310   45.5073   -4.3007 C.ar    1  UNL1        0.1441
     23 F         -28.6910   44.7256   -3.4085 F       1  UNL1       -0.2042
     24 C         -28.7268   46.1494   -5.3414 C.ar    1  UNL1        0.1000
     25 C         -28.0108   46.9613   -6.2421 C.ar    1  UNL1        0.0208
     26 C         -30.2213   45.9705   -5.4643 C.3     1  UNL1        0.4207
     27 F         -30.7364   46.6731   -6.5401 F       1  UNL1       -0.1658
     28 F         -30.5141   44.6297   -5.6371 F       1  UNL1       -0.1658
     29 F         -30.8349   46.4213   -4.3098 F       1  UNL1       -0.1658
     30 N         -20.5909   53.1709   -9.9862 N.pl3   1  UNL1       -0.2814
     31 H         -20.1344   53.0309  -10.9143 H       1  UNL1        0.1551
     32 C         -19.3122   56.4847   -7.6403 C.ar    1  UNL1       -0.0194
     33 C         -20.1340   56.6695   -8.7639 C.ar    1  UNL1        0.0267
     34 C         -20.5439   55.5768   -9.5322 C.ar    1  UNL1        0.1540
     35 F         -21.3453   55.7830  -10.6075 F       1  UNL1       -0.2028
     36 C         -20.1512   54.2762   -9.1838 C.ar    1  UNL1        0.0889
     37 C         -19.3043   54.0842   -8.0736 C.ar    1  UNL1        0.0730
     38 CL        -18.6737   52.4943   -7.6586 Cl      1  UNL1       -0.0809
     39 C         -18.8964   55.1824   -7.3082 C.ar    1  UNL1        0.0085
     40 C         -17.5430   57.4069   -6.1063 C.3     1  UNL1        0.0047
     41 C         -18.8742   57.6813   -6.8161 C.3     1  UNL1        0.0225
     42 C         -18.7888   58.9451   -7.6799 C.3     1  UNL1        0.0047
@<TRIPOS>BOND
     1    40    41    1
     2    41    42    1
     3    41    32    1
     4    32    33   ar
     5    33    34   ar
     6    34    35    1
     7    34    36   ar
     8    36    30    1
     9    30     1    1
    10     1     2   ar
    11     2     3   ar
    12     3     4   ar
    13     4     5   ar
    14     5    15    1
    15    15    16    2
    16    15    17   am
    17    17    19    1
    18    19    20   ar
    19    20    21   ar
    20    21    22   ar
    21    22    23    1
    22    22    24   ar
    23    24    26    1
    24    26    27    1
    25    26    28    1
    26    26    29    1
    27    24    25   ar
    28     5     6   ar
    29     6     7   ar
    30     7     8   ar
    31     8     9   ar
    32     9    10    1
    33     7    11    1
    34    11    12    1
    35    12    13    1
    36    13    14    1
    37    36    37   ar
    38    37    38    1
    39    37    39   ar
    40    39    32   ar
    41     9     1   ar
    42     8     3   ar
    43    25    19   ar
    44    14     6    1
    45    30    31    1
    46    17    18    1
@<TRIPOS>MOLECULE
*****
 42 46 0 0 0
SMALL
GASTEIGER

@<TRIPOS>ATOM
      1 C         -29.9334   50.4686   -6.9767 C.ar    1  UNL1        0.2019
      2 N         -28.6909   50.5371   -6.4302 N.ar    1  UNL1       -0.2134
      3 C         -27.9017   50.7295   -7.5018 C.ar    1  UNL1        0.1033
      4 C         -26.5162   50.8687   -7.5110 C.ar    1  UNL1        0.0284
      5 C         -25.8651   51.0266   -8.7554 C.ar    1  UNL1        0.0922
      6 C         -26.6381   51.0655   -9.9492 C.ar    1  UNL1        0.1782
      7 C         -28.0431   50.9449   -9.8963 C.ar    1  UNL1        0.1897
      8 C         -28.6435   50.7659   -8.6474 C.ar    1  UNL1        0.1173
      9 N         -29.9432   50.6182   -8.3291 N.ar    1  UNL1       -0.2950
     10 C         -31.0913   50.5889   -9.2351 C.3     1  UNL1        0.1333
     11 O         -28.7829   51.0133  -11.0807 O.3     1  UNL1       -0.4669
     12 C         -28.1943   51.4932  -12.2910 C.3     1  UNL1        0.2527
     13 C         -26.7502   50.9937  -12.4125 C.3     1  UNL1        0.2526
     14 O         -26.0365   51.2474  -11.2005 O.3     1  UNL1       -0.4682
     15 C         -24.3932   51.1537   -8.7849 C.2     1  UNL1        0.2526
     16 O         -23.7214   50.6728   -7.8323 O.2     1  UNL1       -0.2697
     17 N         -23.7333   51.8097   -9.8828 N.am    1  UNL1       -0.2803
     18 H         -24.3174   52.2330  -10.6379 H       1  UNL1        0.1552
     19 C         -22.3106   51.9940   -9.9722 C.ar    1  UNL1        0.0506
     20 C         -21.6255   51.8253  -11.1867 C.ar    1  UNL1        0.0170
     21 C         -20.2475   52.0381  -11.2523 C.ar    1  UNL1        0.0309
     22 C         -19.5399   52.4329  -10.1144 C.ar    1  UNL1        0.1441
     23 F         -18.2011   52.6378  -10.2070 F       1  UNL1       -0.2042
     24 C         -20.2108   52.6278   -8.8932 C.ar    1  UNL1        0.1000
     25 C         -21.6019   52.4162   -8.8371 C.ar    1  UNL1        0.0208
     26 C         -19.4354   53.0727   -7.6761 C.3     1  UNL1        0.4207
     27 F         -18.5509   52.0985   -7.2456 F       1  UNL1       -0.1658
     28 F         -18.7153   54.2144   -7.9780 F       1  UNL1       -0.1658
     29 F         -20.3158   53.3533   -6.6471 F       1  UNL1       -0.1658
     30 N         -31.1087   50.2084   -6.1944 N.pl3   1  UNL1       -0.2814
     31 H         -32.0434   50.2932   -6.6509 H       1  UNL1        0.1551
     32 C         -30.9150   48.3088   -2.3900 C.ar    1  UNL1       -0.0194
     33 C         -31.0309   49.7042   -2.4954 C.ar    1  UNL1        0.0267
     34 C         -31.0875   50.3202   -3.7482 C.ar    1  UNL1        0.1540
     35 F         -31.2086   51.6697   -3.8211 F       1  UNL1       -0.2028
     36 C         -31.0429   49.5514   -4.9205 C.ar    1  UNL1        0.0889
     37 C         -30.8992   48.1526   -4.8242 C.ar    1  UNL1        0.0730
     38 CL        -30.7103   47.1443   -6.2545 Cl      1  UNL1       -0.0809
     39 C         -30.8425   47.5412   -3.5668 C.ar    1  UNL1        0.0085
     40 C         -29.9281   46.4315   -1.0351 C.3     1  UNL1        0.0047
     41 C         -30.8537   47.6540   -1.0224 C.3     1  UNL1        0.0225
     42 C         -30.4250   48.6598    0.0524 C.3     1  UNL1        0.0047
@<TRIPOS>BOND
     1    40    41    1
     2    41    42    1
     3    41    32    1
     4    32    33   ar
     5    33    34   ar
     6    34    35    1
     7    34    36   ar
     8    36    30    1
     9    30     1    1
    10     1     2   ar
    11     2     3   ar
    12     3     4   ar
    13     4     5   ar
    14     5    15    1
    15    15    16    2
    16    15    17   am
    17    17    19    1
    18    19    20   ar
    19    20    21   ar
    20    21    22   ar
    21    22    23    1
    22    22    24   ar
    23    24    26    1
    24    26    27    1
    25    26    28    1
    26    26    29    1
    27    24    25   ar
    28     5     6   ar
    29     6     7   ar
    30     7     8   ar
    31     8     9   ar
    32     9    10    1
    33     7    11    1
    34    11    12    1
    35    12    13    1
    36    13    14    1
    37    36    37   ar
    38    37    38    1
    39    37    39   ar
    40    39    32   ar
    41     9     1   ar
    42     8     3   ar
    43    25    19   ar
    44    14     6    1
    45    30    31    1
    46    17    18    1
@<TRIPOS>MOLECULE
*****
 42 46 0 0 0
SMALL
GASTEIGER

@<TRIPOS>ATOM
      1 C         -23.1717   51.9838   -9.2242 C.ar    1  UNL1        0.2019
      2 N         -23.1694   51.2645   -8.0710 N.ar    1  UNL1       -0.2134
      3 C         -24.3646   50.6490   -8.0987 C.ar    1  UNL1        0.1033
      4 C         -24.8845   49.7795   -7.1432 C.ar    1  UNL1        0.0284
      5 C         -26.1853   49.2637   -7.3412 C.ar    1  UNL1        0.0922
      6 C         -26.9092   49.6226   -8.5123 C.ar    1  UNL1        0.1782
      7 C         -26.3382   50.4881   -9.4695 C.ar    1  UNL1        0.1897
      8 C         -25.0595   50.9941   -9.2220 C.ar    1  UNL1        0.1173
      9 N         -24.3063   51.8314   -9.9595 N.ar    1  UNL1       -0.2950
     10 C         -24.6490   52.4581  -11.2362 C.3     1  UNL1        0.1333
     11 O         -27.0588   50.8044  -10.6251 O.3     1  UNL1       -0.4669
     12 C         -28.2142   50.0533  -11.0022 C.3     1  UNL1        0.2527
     13 C         -29.0355   49.6854   -9.7614 C.3     1  UNL1        0.2526
     14 O         -28.1897   49.1136   -8.7613 O.3     1  UNL1       -0.4682
     15 C         -26.7607   48.3570   -6.3261 C.2     1  UNL1        0.2526
     16 O         -27.2028   47.2346   -6.6930 O.2     1  UNL1       -0.2697
     17 N         -26.8128   48.7424   -4.9405 N.am    1  UNL1       -0.2803
     18 H         -26.4755   49.6935   -4.6718 H       1  UNL1        0.1552
     19 C         -27.3777   47.9281   -3.8996 C.ar    1  UNL1        0.0506
     20 C         -26.8465   46.6657   -3.5881 C.ar    1  UNL1        0.0170
     21 C         -27.3965   45.9070   -2.5534 C.ar    1  UNL1        0.0309
     22 C         -28.4712   46.4015   -1.8106 C.ar    1  UNL1        0.1441
     23 F         -28.9839   45.6453   -0.8066 F       1  UNL1       -0.2042
     24 C         -29.0044   47.6726   -2.0929 C.ar    1  UNL1        0.1000
     25 C         -28.4400   48.4335   -3.1348 C.ar    1  UNL1        0.0208
     26 C         -30.1542   48.2015   -1.2692 C.3     1  UNL1        0.4207
     27 F         -31.2099   47.3070   -1.2258 F       1  UNL1       -0.1658
     28 F         -29.7266   48.4364    0.0252 F       1  UNL1       -0.1658
     29 F         -30.6053   49.3882   -1.8178 F       1  UNL1       -0.1658
     30 N         -22.0946   52.8590   -9.5913 N.pl3   1  UNL1       -0.2814
     31 H         -22.2898   53.8796   -9.6904 H       1  UNL1        0.1551
     32 C         -18.0308   51.5994   -9.4563 C.ar    1  UNL1       -0.0194
     33 C         -18.8366   51.3208  -10.5721 C.ar    1  UNL1        0.0267
     34 C         -20.1714   51.7324  -10.6055 C.ar    1  UNL1        0.1540
     35 F         -20.9249   51.4579  -11.7001 F       1  UNL1       -0.2028
     36 C         -20.7229   52.4428   -9.5292 C.ar    1  UNL1        0.0889
     37 C         -19.9291   52.7029   -8.3939 C.ar    1  UNL1        0.0730
     38 CL        -20.5953   53.4772   -6.9605 Cl      1  UNL1       -0.0809
     39 C         -18.5930   52.2878   -8.3658 C.ar    1  UNL1        0.0085
     40 C         -15.8322   51.6279  -10.6806 C.3     1  UNL1        0.0047
     41 C         -16.5831   51.1451   -9.4339 C.3     1  UNL1        0.0225
     42 C         -15.8794   51.6068   -8.1524 C.3     1  UNL1        0.0047
@<TRIPOS>BOND
     1    40    41    1
     2    41    42    1
     3    41    32    1
     4    32    33   ar
     5    33    34   ar
     6    34    35    1
     7    34    36   ar
     8    36    30    1
     9    30     1    1
    10     1     2   ar
    11     2     3   ar
    12     3     4   ar
    13     4     5   ar
    14     5    15    1
    15    15    16    2
    16    15    17   am
    17    17    19    1
    18    19    20   ar
    19    20    21   ar
    20    21    22   ar
    21    22    23    1
    22    22    24   ar
    23    24    26    1
    24    26    27    1
    25    26    28    1
    26    26    29    1
    27    24    25   ar
    28     5     6   ar
    29     6     7   ar
    30     7     8   ar
    31     8     9   ar
    32     9    10    1
    33     7    11    1
    34    11    12    1
    35    12    13    1
    36    13    14    1
    37    36    37   ar
    38    37    38    1
    39    37    39   ar
    40    39    32   ar
    41     9     1   ar
    42     8     3   ar
    43    25    19   ar
    44    14     6    1
    45    30    31    1
    46    17    18    1
@<TRIPOS>MOLECULE
*****
 42 46 0 0 0
SMALL
GASTEIGER

@<TRIPOS>ATOM
      1 C         -21.5875   52.5222   -9.4908 C.ar    1  UNL1        0.2019
      2 N         -21.8315   51.9049   -8.3047 N.ar    1  UNL1       -0.2134
      3 C         -23.0838   51.4406   -8.4599 C.ar    1  UNL1        0.1033
      4 C         -23.8349   50.7227   -7.5327 C.ar    1  UNL1        0.0284
      5 C         -25.1556   50.3561   -7.8774 C.ar    1  UNL1        0.0922
      6 C         -25.6661   50.7040   -9.1590 C.ar    1  UNL1        0.1782
      7 C         -24.8652   51.4116  -10.0805 C.ar    1  UNL1        0.1897
      8 C         -23.5740   51.7753   -9.6894 C.ar    1  UNL1        0.1173
      9 N         -22.6265   52.4506  -10.3665 N.ar    1  UNL1       -0.2950
     10 C         -22.7131   53.0080  -11.7162 C.3     1  UNL1        0.1333
     11 O         -25.3801   51.7182  -11.3436 O.3     1  UNL1       -0.4669
     12 C         -26.5658   51.0863  -11.8297 C.3     1  UNL1        0.2527
     13 C         -27.5837   50.9248  -10.6951 C.3     1  UNL1        0.2526
     14 O         -26.9592   50.3373   -9.5516 O.3     1  UNL1       -0.4682
     15 C         -25.9739   49.6130   -6.8966 C.2     1  UNL1        0.2526
     16 O         -26.3123   48.4273   -7.1601 O.2     1  UNL1       -0.2697
     17 N         -26.3755   50.2266   -5.6584 N.am    1  UNL1       -0.2803
     18 H         -26.1141   51.2227   -5.4848 H       1  UNL1        0.1552
     19 C         -27.1900   49.5794   -4.6667 C.ar    1  UNL1        0.0506
     20 C         -26.6210   48.7904   -3.6535 C.ar    1  UNL1        0.0170
     21 C         -27.4325   48.1958   -2.6858 C.ar    1  UNL1        0.0309
     22 C         -28.8156   48.3904   -2.7088 C.ar    1  UNL1        0.1441
     23 F         -29.5812   47.8046   -1.7529 F       1  UNL1       -0.2042
     24 C         -29.4031   49.1943   -3.7028 C.ar    1  UNL1        0.1000
     25 C         -28.5765   49.7947   -4.6719 C.ar    1  UNL1        0.0208
     26 C         -30.8977   49.4106   -3.7038 C.3     1  UNL1        0.4207
     27 F         -31.3442   49.9205   -2.4966 F       1  UNL1       -0.1658
     28 F         -31.2356   50.3014   -4.7065 F       1  UNL1       -0.1658
     29 F         -31.5365   48.2061   -3.9359 F       1  UNL1       -0.1658
     30 N         -20.3651   53.2256   -9.7590 N.pl3   1  UNL1       -0.2814
     31 H         -19.8602   53.0305  -10.6514 H       1  UNL1        0.1551
     32 C         -19.1788   56.6365   -7.5055 C.ar    1  UNL1       -0.0194
     33 C         -18.6186   55.3738   -7.2535 C.ar    1  UNL1        0.0267
     34 C         -19.0183   54.2582   -7.9937 C.ar    1  UNL1        0.1540
     35 F         -18.4539   53.0515   -7.7353 F       1  UNL1       -0.2028
     36 C         -19.9765   54.3860   -9.0099 C.ar    1  UNL1        0.0889
     37 C         -20.5639   55.6443   -9.2512 C.ar    1  UNL1        0.0730
     38 CL        -21.8608   55.8471  -10.4238 Cl      1  UNL1       -0.0809
     39 C         -20.1600   56.7581   -8.5064 C.ar    1  UNL1        0.0085
     40 C         -17.3925   57.5749   -6.0015 C.3     1  UNL1        0.0047
     41 C         -18.7355   57.8389   -6.6928 C.3     1  UNL1        0.0225
     42 C         -18.6699   59.0995   -7.5629 C.3     1  UNL1        0.0047
@<TRIPOS>BOND
     1    40    41    1
     2    41    42    1
     3    41    32    1
     4    32    33   ar
     5    33    34   ar
     6    34    35    1
     7    34    36   ar
     8    36    30    1
     9    30     1    1
    10     1     2   ar
    11     2     3   ar
    12     3     4   ar
    13     4     5   ar
    14     5    15    1
    15    15    16    2
    16    15    17   am
    17    17    19    1
    18    19    20   ar
    19    20    21   ar
    20    21    22   ar
    21    22    23    1
    22    22    24   ar
    23    24    26    1
    24    26    27    1
    25    26    28    1
    26    26    29    1
    27    24    25   ar
    28     5     6   ar
    29     6     7   ar
    30     7     8   ar
    31     8     9   ar
    32     9    10    1
    33     7    11    1
    34    11    12    1
    35    12    13    1
    36    13    14    1
    37    36    37   ar
    38    37    38    1
    39    37    39   ar
    40    39    32   ar
    41     9     1   ar
    42     8     3   ar
    43    25    19   ar
    44    14     6    1
    45    30    31    1
    46    17    18    1
