@<TRIPOS>MOLECULE
*****
 60 64 0 0 0
SMALL
GASTEIGER

@<TRIPOS>ATOM
      1 C          51.6029   12.7027  -19.4016 C.ar    1  UNL1        0.1744
      2 C          51.3137   12.5971  -18.0266 C.ar    1  UNL1        0.0447
      3 C          50.1399   11.9695  -17.5810 C.ar    1  UNL1        0.0578
      4 C          49.2563   11.4302  -18.5247 C.ar    1  UNL1        0.0237
      5 C          49.5379   11.5091  -19.8907 C.ar    1  UNL1        0.1024
      6 C          50.7191   12.1178  -20.3426 C.ar    1  UNL1        0.1934
      7 C          49.8267   11.8739  -16.1357 C.2     1  UNL1        0.2459
      8 O          50.1675   10.8378  -15.5036 O.2     1  UNL1       -0.2701
      9 N          49.1209   12.9352  -15.4623 N.am    1  UNL1       -0.3040
     10 H          48.6526   13.6521  -16.0621 H       1  UNL1        0.1496
     11 C          49.0014   13.0720  -13.9970 C.3     1  UNL1        0.0572
     12 C          50.4096   13.2541  -13.3934 C.3     1  UNL1        0.0196
     13 C          48.1545   14.3100  -13.6432 C.3     1  UNL1        0.0196
     14 C          48.3722   11.8014  -13.3929 C.3     1  UNL1        0.0196
     15 C          52.7656   14.7856  -20.1837 C.3     1  UNL1        0.2526
     16 O          52.7344   13.4013  -19.8528 O.3     1  UNL1       -0.4683
     17 N          48.5721   11.0457  -20.8343 N.pl3   1  UNL1       -0.2119
     18 H          47.5935   11.4023  -20.7599 H       1  UNL1        0.1738
     19 S          48.8004    9.4999  -21.5783 S.O2    1  UNL1        0.0745
     20 O          47.5245    8.7074  -21.5255 O.2     1  UNL1       -0.1499
     21 O          49.8503    8.7415  -20.8155 O.2     1  UNL1       -0.1499
     22 C          49.3347    9.7427  -23.2494 C.ar    1  UNL1        0.1356
     23 C          50.4020    8.9722  -23.7293 C.ar    1  UNL1        0.0207
     24 C          50.9231    9.1887  -25.0061 C.ar    1  UNL1       -0.0028
     25 C          50.3966   10.2026  -25.8316 C.ar    1  UNL1       -0.0216
     26 C          49.3222   10.9665  -25.3529 C.ar    1  UNL1        0.0085
     27 C          48.7862   10.7449  -24.0787 C.ar    1  UNL1        0.0762
     28 CL         47.4460   11.7667  -23.5709 Cl      1  UNL1       -0.0809
     29 C          50.9520   10.5473  -27.2031 C.3     1  UNL1        0.0224
     30 C          52.4581   10.4147  -27.3895 C.3     1  UNL1        0.0047
     31 C          51.5169    9.4097  -28.0420 C.3     1  UNL1        0.0047
     32 O          50.9314   12.1669  -21.7346 O.3     1  UNL1       -0.4482
     33 C          50.7488   13.2851  -22.5551 C.ar    1  UNL1        0.1582
     34 C          49.7565   14.2071  -22.2122 C.ar    1  UNL1        0.0677
     35 C          49.6126   15.3946  -22.9304 C.ar    1  UNL1        0.1398
     36 F          48.6881   16.3040  -22.5306 F       1  UNL1       -0.2044
     37 C          50.4537   15.6624  -24.0234 C.ar    1  UNL1        0.0175
     38 C          51.3976   14.6999  -24.4180 C.ar    1  UNL1        0.0130
     39 C          51.5323   13.5036  -23.7047 C.ar    1  UNL1        0.0919
     40 CL         52.6953   12.3075  -24.2602 Cl      1  UNL1       -0.0791
     41 C          50.4361   17.0139  -24.6809 C.3     1  UNL1        0.1382
     42 C          50.5323   16.8349  -26.1619 C.2     1  UNL1        0.3234
     43 O          51.4581   17.4052  -26.8014 O.2     1  UNL1       -0.2497
     44 O          49.5517   16.0949  -26.8311 O.3     1  UNL1       -0.4215
     45 C          48.3178   16.6603  -27.2710 C.3     1  UNL1        0.3207
     46 O          47.8463   17.5791  -26.2852 O.3     1  UNL1       -0.3070
     47 C          46.7340   17.1300  -25.5222 C.3     1  UNL1        0.2456
     48 C          46.8326   15.6388  -25.1321 C.3     1  UNL1        0.1781
     49 O          45.7165   15.2839  -24.3547 O.3     1  UNL1       -0.3790
     50 C          46.9044   14.7372  -26.3904 C.3     1  UNL1        0.1733
     51 O          47.8109   13.6863  -26.1684 O.3     1  UNL1       -0.3793
     52 C          47.3411   15.5253  -27.6440 C.3     1  UNL1        0.2106
     53 O          46.2231   16.0746  -28.2959 O.3     1  UNL1       -0.3766
     54 H          45.9135   14.3967  -23.9564 H       1  UNL1        0.2106
     55 H          47.3705   13.0529  -25.5433 H       1  UNL1        0.2105
     56 H          45.7832   15.3334  -28.7890 H       1  UNL1        0.2107
     57 C          46.6355   17.9796  -24.2843 C.2     1  UNL1        0.3439
     58 O          47.1841   19.1128  -24.2541 O.2     1  UNL1       -0.2475
     59 O          45.9237   17.5392  -23.1724 O.3     1  UNL1       -0.4785
     60 H          45.4792   16.6304  -23.1617 H       1  UNL1        0.2951
@<TRIPOS>BOND
     1    15    16    1
     2    16     1    1
     3     1     2   ar
     4     2     3   ar
     5     3     7    1
     6     7     8    2
     7     7     9   am
     8     9    11    1
     9    11    12    1
    10    11    13    1
    11    11    14    1
    12     3     4   ar
    13     4     5   ar
    14     5    17    1
    15    17    19    1
    16    19    20    2
    17    19    21    2
    18    19    22    1
    19    22    23   ar
    20    23    24   ar
    21    24    25   ar
    22    25    29    1
    23    29    30    1
    24    30    31    1
    25    25    26   ar
    26    26    27   ar
    27    27    28    1
    28     5     6   ar
    29     6    32    1
    30    32    33    1
    31    33    34   ar
    32    34    35   ar
    33    35    36    1
    34    35    37   ar
    35    37    41    1
    36    41    42    1
    37    42    43    2
    38    42    44    1
    39    44    45    1
    40    45    46    1
    41    46    47    1
    42    47    57    1
    43    57    58    2
    44    57    59    1
    45    47    48    1
    46    48    49    1
    47    48    50    1
    48    50    51    1
    49    50    52    1
    50    52    53    1
    51    37    38   ar
    52    38    39   ar
    53    39    40    1
    54     6     1   ar
    55    39    33   ar
    56    27    22   ar
    57    52    45    1
    58    31    29    1
    59     9    10    1
    60    17    18    1
    61    59    60    1
    62    49    54    1
    63    51    55    1
    64    53    56    1
@<TRIPOS>MOLECULE
*****
 60 64 0 0 0
SMALL
GASTEIGER

@<TRIPOS>ATOM
      1 C          51.6091   11.2296  -24.8257 C.ar    1  UNL1        0.1744
      2 C          51.9302   10.4755  -25.9718 C.ar    1  UNL1        0.0447
      3 C          50.9410   10.1144  -26.8999 C.ar    1  UNL1        0.0578
      4 C          49.6203   10.5272  -26.6822 C.ar    1  UNL1        0.0237
      5 C          49.2889   11.2920  -25.5611 C.ar    1  UNL1        0.1024
      6 C          50.2761   11.6735  -24.6392 C.ar    1  UNL1        0.1934
      7 C          51.2752    9.3062  -28.0963 C.2     1  UNL1        0.2459
      8 O          50.3446    8.9279  -28.8579 O.2     1  UNL1       -0.2701
      9 N          52.6391    8.9335  -28.3771 N.am    1  UNL1       -0.3040
     10 H          53.3356    9.0582  -27.6075 H       1  UNL1        0.1496
     11 C          53.1152    8.3790  -29.6600 C.3     1  UNL1        0.0572
     12 C          53.3647    9.5387  -30.6464 C.3     1  UNL1        0.0196
     13 C          54.4401    7.6188  -29.4548 C.3     1  UNL1        0.0196
     14 C          52.0491    7.4446  -30.2649 C.3     1  UNL1        0.0196
     15 C          53.2012   12.7903  -23.6719 C.3     1  UNL1        0.2526
     16 O          52.5805   11.5222  -23.8548 O.3     1  UNL1       -0.4683
     17 N          47.9204   11.6100  -25.3081 N.pl3   1  UNL1       -0.2119
     18 H          47.2569   10.8286  -25.1093 H       1  UNL1        0.1738
     19 S          47.2593   13.0634  -25.9759 S.O2    1  UNL1        0.0745
     20 O          48.2832   14.1629  -25.9363 O.2     1  UNL1       -0.1499
     21 O          46.0841   13.4925  -25.1429 O.2     1  UNL1       -0.1499
     22 C          46.7296   12.7412  -27.6351 C.ar    1  UNL1        0.1356
     23 C          46.9076   11.4527  -28.1559 C.ar    1  UNL1        0.0207
     24 C          46.5944   11.1696  -29.4865 C.ar    1  UNL1       -0.0028
     25 C          46.1102   12.1823  -30.3389 C.ar    1  UNL1       -0.0216
     26 C          45.9241   13.4691  -29.8130 C.ar    1  UNL1        0.0085
     27 C          46.2232   13.7558  -28.4758 C.ar    1  UNL1        0.0762
     28 CL         45.9635   15.4055  -27.9198 Cl      1  UNL1       -0.0809
     29 C          45.8130   11.9728  -31.8141 C.3     1  UNL1        0.0224
     30 C          44.6031   12.7029  -32.3832 C.3     1  UNL1        0.0047
     31 C          46.0105   13.1577  -32.7490 C.3     1  UNL1        0.0047
     32 O          49.8656   12.4378  -23.5291 O.3     1  UNL1       -0.4482
     33 C          48.7120   12.2262  -22.7666 C.ar    1  UNL1        0.1582
     34 C          48.3341   10.9114  -22.4824 C.ar    1  UNL1        0.0677
     35 C          47.2602   10.6502  -21.6307 C.ar    1  UNL1        0.1398
     36 F          46.9609    9.3646  -21.3156 F       1  UNL1       -0.2044
     37 C          46.5333   11.7127  -21.0684 C.ar    1  UNL1        0.0175
     38 C          46.8621   13.0330  -21.4174 C.ar    1  UNL1        0.0130
     39 C          47.9313   13.2934  -22.2819 C.ar    1  UNL1        0.0919
     40 CL         48.2797   14.9582  -22.7275 Cl      1  UNL1       -0.0791
     41 C          45.5037   11.4488  -20.0056 C.3     1  UNL1        0.1382
     42 C          45.8307   12.2678  -18.7984 C.2     1  UNL1        0.3234
     43 O          44.9298   12.9600  -18.2503 O.2     1  UNL1       -0.2497
     44 O          47.1494   12.3131  -18.3338 O.3     1  UNL1       -0.4215
     45 C          47.8802   11.1469  -17.9571 C.3     1  UNL1        0.3207
     46 O          47.9526   11.0800  -16.5329 O.3     1  UNL1       -0.3070
     47 C          49.2248   11.3853  -15.9766 C.3     1  UNL1        0.2456
     48 C          49.9226   12.5696  -16.6811 C.3     1  UNL1        0.1781
     49 O          51.1533   12.8281  -16.0529 O.3     1  UNL1       -0.3790
     50 C          50.1528   12.2671  -18.1833 C.3     1  UNL1        0.1733
     51 O          49.9172   13.4271  -18.9411 O.3     1  UNL1       -0.3793
     52 C          49.2360   11.1347  -18.6937 C.3     1  UNL1        0.2106
     53 O          49.8492    9.8829  -18.5106 O.3     1  UNL1       -0.3766
     54 H          51.4694   13.7063  -16.3896 H       1  UNL1        0.2106
     55 H          50.6847   14.0366  -18.7817 H       1  UNL1        0.2105
     56 H          50.5339    9.7896  -19.2237 H       1  UNL1        0.2107
     57 C          49.0406   11.6929  -14.5153 C.2     1  UNL1        0.3439
     58 O          50.0443   11.7785  -13.7594 O.2     1  UNL1       -0.2475
     59 O          47.7713   11.9081  -13.9867 O.3     1  UNL1       -0.4785
     60 H          46.9444   11.8378  -14.5655 H       1  UNL1        0.2951
@<TRIPOS>BOND
     1    15    16    1
     2    16     1    1
     3     1     2   ar
     4     2     3   ar
     5     3     7    1
     6     7     8    2
     7     7     9   am
     8     9    11    1
     9    11    12    1
    10    11    13    1
    11    11    14    1
    12     3     4   ar
    13     4     5   ar
    14     5    17    1
    15    17    19    1
    16    19    20    2
    17    19    21    2
    18    19    22    1
    19    22    23   ar
    20    23    24   ar
    21    24    25   ar
    22    25    29    1
    23    29    30    1
    24    30    31    1
    25    25    26   ar
    26    26    27   ar
    27    27    28    1
    28     5     6   ar
    29     6    32    1
    30    32    33    1
    31    33    34   ar
    32    34    35   ar
    33    35    36    1
    34    35    37   ar
    35    37    41    1
    36    41    42    1
    37    42    43    2
    38    42    44    1
    39    44    45    1
    40    45    46    1
    41    46    47    1
    42    47    57    1
    43    57    58    2
    44    57    59    1
    45    47    48    1
    46    48    49    1
    47    48    50    1
    48    50    51    1
    49    50    52    1
    50    52    53    1
    51    37    38   ar
    52    38    39   ar
    53    39    40    1
    54     6     1   ar
    55    39    33   ar
    56    27    22   ar
    57    52    45    1
    58    31    29    1
    59     9    10    1
    60    17    18    1
    61    59    60    1
    62    49    54    1
    63    51    55    1
    64    53    56    1
@<TRIPOS>MOLECULE
*****
 60 64 0 0 0
SMALL
GASTEIGER

@<TRIPOS>ATOM
      1 C          51.5944   12.7340  -19.4160 C.ar    1  UNL1        0.1744
      2 C          51.3203   12.6785  -18.0351 C.ar    1  UNL1        0.0447
      3 C          50.1676   12.0395  -17.5521 C.ar    1  UNL1        0.0578
      4 C          49.2904   11.4380  -18.4637 C.ar    1  UNL1        0.0237
      5 C          49.5579   11.4671  -19.8346 C.ar    1  UNL1        0.1024
      6 C          50.7184   12.0871  -20.3231 C.ar    1  UNL1        0.1934
      7 C          49.8697   11.9963  -16.1011 C.2     1  UNL1        0.2459
      8 O          50.3089   11.0341  -15.4153 O.2     1  UNL1       -0.2701
      9 N          49.0692   13.0227  -15.4816 N.am    1  UNL1       -0.3040
     10 H          48.5333   13.6575  -16.1163 H       1  UNL1        0.1496
     11 C          48.9423   13.2299  -14.0253 C.3     1  UNL1        0.0572
     12 C          48.3084   11.9735  -13.3929 C.3     1  UNL1        0.0196
     13 C          50.3312   13.4470  -13.3934 C.3     1  UNL1        0.0196
     14 C          48.0274   14.4361  -13.7365 C.3     1  UNL1        0.0196
     15 C          52.7385   14.8453  -20.1478 C.3     1  UNL1        0.2526
     16 O          52.7029   13.4426  -19.9071 O.3     1  UNL1       -0.4683
     17 N          48.5965   10.9393  -20.7484 N.pl3   1  UNL1       -0.2119
     18 H          47.6000   11.2344  -20.6473 H       1  UNL1        0.1738
     19 S          48.8998    9.4068  -21.4932 S.O2    1  UNL1        0.0745
     20 O          47.6627    8.5547  -21.4447 O.2     1  UNL1       -0.1499
     21 O          49.9824    8.6982  -20.7283 O.2     1  UNL1       -0.1499
     22 C          49.4265    9.6764  -23.1627 C.ar    1  UNL1        0.1356
     23 C          50.5921    9.0388  -23.6078 C.ar    1  UNL1        0.0207
     24 C          51.1024    9.2902  -24.8825 C.ar    1  UNL1       -0.0028
     25 C          50.4637   10.2075  -25.7412 C.ar    1  UNL1       -0.0216
     26 C          49.2920   10.8375  -25.2972 C.ar    1  UNL1        0.0085
     27 C          48.7676   10.5792  -24.0251 C.ar    1  UNL1        0.0762
     28 CL         47.2986   11.4312  -23.5623 Cl      1  UNL1       -0.0809
     29 C          50.9932   10.5880  -27.1135 C.3     1  UNL1        0.0224
     30 C          52.5055   10.6930  -27.2635 C.3     1  UNL1        0.0047
     31 C          51.7550    9.5271  -27.8951 C.3     1  UNL1        0.0047
     32 O          50.9170   12.0834  -21.7179 O.3     1  UNL1       -0.4482
     33 C          50.5195   13.0871  -22.6076 C.ar    1  UNL1        0.1582
     34 C          49.3429   13.7898  -22.3353 C.ar    1  UNL1        0.0677
     35 C          48.9656   14.8753  -23.1267 C.ar    1  UNL1        0.1398
     36 F          47.8563   15.5836  -22.7959 F       1  UNL1       -0.2044
     37 C          49.7580   15.2568  -24.2222 C.ar    1  UNL1        0.0175
     38 C          50.8974   14.5012  -24.5442 C.ar    1  UNL1        0.0130
     39 C          51.2679   13.4049  -23.7575 C.ar    1  UNL1        0.0919
     40 CL         52.6759   12.4600  -24.2228 Cl      1  UNL1       -0.0791
     41 C          49.4668   16.5329  -24.9611 C.3     1  UNL1        0.1382
     42 C          48.8284   16.2007  -26.2714 C.2     1  UNL1        0.3234
     43 O          48.5172   17.1282  -27.0678 O.2     1  UNL1       -0.2497
     44 O          48.5180   14.8693  -26.5680 O.3     1  UNL1       -0.4215
     45 C          47.3354   14.2245  -26.0972 C.3     1  UNL1        0.3207
     46 O          47.3082   12.8831  -26.5850 O.3     1  UNL1       -0.3070
     47 C          46.3681   12.6353  -27.6223 C.3     1  UNL1        0.2456
     48 C          46.2930   13.7816  -28.6548 C.3     1  UNL1        0.1781
     49 O          45.3702   13.4455  -29.6605 O.3     1  UNL1       -0.3790
     50 C          45.8738   15.1123  -27.9805 C.3     1  UNL1        0.1733
     51 O          46.6016   16.1763  -28.5404 O.3     1  UNL1       -0.3793
     52 C          46.1072   15.0876  -26.4546 C.3     1  UNL1        0.2106
     53 O          44.9771   14.5791  -25.7906 O.3     1  UNL1       -0.3766
     54 H          45.4997   14.0955  -30.3988 H       1  UNL1        0.2106
     55 H          46.2305   16.3335  -29.4479 H       1  UNL1        0.2105
     56 H          44.2985   15.3039  -25.7787 H       1  UNL1        0.2107
     57 C          46.7475   11.3505  -28.3075 C.2     1  UNL1        0.3439
     58 O          47.7911   10.7371  -27.9603 O.2     1  UNL1       -0.2475
     59 O          45.9455   10.8139  -29.3104 O.3     1  UNL1       -0.4785
     60 H          45.1057   11.2868  -29.6183 H       1  UNL1        0.2951
@<TRIPOS>BOND
     1    15    16    1
     2    16     1    1
     3     1     2   ar
     4     2     3   ar
     5     3     7    1
     6     7     8    2
     7     7     9   am
     8     9    11    1
     9    11    12    1
    10    11    13    1
    11    11    14    1
    12     3     4   ar
    13     4     5   ar
    14     5    17    1
    15    17    19    1
    16    19    20    2
    17    19    21    2
    18    19    22    1
    19    22    23   ar
    20    23    24   ar
    21    24    25   ar
    22    25    29    1
    23    29    30    1
    24    30    31    1
    25    25    26   ar
    26    26    27   ar
    27    27    28    1
    28     5     6   ar
    29     6    32    1
    30    32    33    1
    31    33    34   ar
    32    34    35   ar
    33    35    36    1
    34    35    37   ar
    35    37    41    1
    36    41    42    1
    37    42    43    2
    38    42    44    1
    39    44    45    1
    40    45    46    1
    41    46    47    1
    42    47    57    1
    43    57    58    2
    44    57    59    1
    45    47    48    1
    46    48    49    1
    47    48    50    1
    48    50    51    1
    49    50    52    1
    50    52    53    1
    51    37    38   ar
    52    38    39   ar
    53    39    40    1
    54     6     1   ar
    55    39    33   ar
    56    27    22   ar
    57    52    45    1
    58    31    29    1
    59     9    10    1
    60    17    18    1
    61    59    60    1
    62    49    54    1
    63    51    55    1
    64    53    56    1
@<TRIPOS>MOLECULE
*****
 60 64 0 0 0
SMALL
GASTEIGER

@<TRIPOS>ATOM
      1 C          51.2939   11.3845  -25.0516 C.ar    1  UNL1        0.1744
      2 C          51.6768   10.5606  -26.1285 C.ar    1  UNL1        0.0447
      3 C          50.7303   10.0955  -27.0549 C.ar    1  UNL1        0.0578
      4 C          49.3898   10.4739  -26.9064 C.ar    1  UNL1        0.0237
      5 C          48.9970   11.3062  -25.8554 C.ar    1  UNL1        0.1024
      6 C          49.9410   11.7910  -24.9369 C.ar    1  UNL1        0.1934
      7 C          51.1298    9.2145  -28.1776 C.2     1  UNL1        0.2459
      8 O          50.2330    8.6540  -28.8637 O.2     1  UNL1       -0.2701
      9 N          52.5213    8.9778  -28.4702 N.am    1  UNL1       -0.3040
     10 H          53.2165    9.2611  -27.7427 H       1  UNL1        0.1496
     11 C          53.0289    8.3551  -29.7090 C.3     1  UNL1        0.0572
     12 C          53.4877    9.4653  -30.6772 C.3     1  UNL1        0.0196
     13 C          54.2364    7.4500  -29.3962 C.3     1  UNL1        0.0196
     14 C          51.9123    7.5421  -30.3928 C.3     1  UNL1        0.0196
     15 C          53.5643   12.1851  -24.3400 C.3     1  UNL1        0.2526
     16 O          52.2237   11.7837  -24.0779 O.3     1  UNL1       -0.4683
     17 N          47.6110   11.5908  -25.6661 N.pl3   1  UNL1       -0.2119
     18 H          46.9552   10.7920  -25.5174 H       1  UNL1        0.1738
     19 S          46.9535   13.0445  -26.3369 S.O2    1  UNL1        0.0745
     20 O          47.9579   14.1584  -26.2410 O.2     1  UNL1       -0.1499
     21 O          45.7406   13.4428  -25.5435 O.2     1  UNL1       -0.1499
     22 C          46.4931   12.7405  -28.0200 C.ar    1  UNL1        0.1356
     23 C          46.7155   11.4646  -28.5544 C.ar    1  UNL1        0.0207
     24 C          46.4582   11.1982  -29.9004 C.ar    1  UNL1       -0.0028
     25 C          45.9870   12.2160  -30.7541 C.ar    1  UNL1       -0.0216
     26 C          45.7563   13.4900  -30.2149 C.ar    1  UNL1        0.0085
     27 C          45.9992   13.7596  -28.8628 C.ar    1  UNL1        0.0762
     28 CL         45.6869   15.3945  -28.2904 Cl      1  UNL1       -0.0809
     29 C          45.7497   12.0260  -32.2427 C.3     1  UNL1        0.0224
     30 C          44.6012   12.8117  -32.8628 C.3     1  UNL1        0.0047
     31 C          46.0430   13.2046  -33.1602 C.3     1  UNL1        0.0047
     32 O          49.4695   12.6192  -23.8991 O.3     1  UNL1       -0.4482
     33 C          48.3943   12.3402  -23.0488 C.ar    1  UNL1        0.1582
     34 C          48.2358   11.0323  -22.5836 C.ar    1  UNL1        0.0677
     35 C          47.2505   10.7281  -21.6437 C.ar    1  UNL1        0.1398
     36 F          47.1663    9.4644  -21.1561 F       1  UNL1       -0.2044
     37 C          46.3915   11.7354  -21.1733 C.ar    1  UNL1        0.0175
     38 C          46.4981   13.0329  -21.7005 C.ar    1  UNL1        0.0130
     39 C          47.4784   13.3339  -22.6527 C.ar    1  UNL1        0.0919
     40 CL         47.5472   14.9597  -23.3190 Cl      1  UNL1       -0.0791
     41 C          45.4589   11.4625  -20.0265 C.3     1  UNL1        0.1382
     42 C          46.0051   12.1061  -18.7926 C.2     1  UNL1        0.3234
     43 O          45.3626   13.0393  -18.2380 O.2     1  UNL1       -0.2497
     44 O          47.2576   11.7142  -18.3086 O.3     1  UNL1       -0.4215
     45 C          48.1838   12.6277  -17.7224 C.3     1  UNL1        0.3207
     46 O          48.5111   13.6385  -18.6760 O.3     1  UNL1       -0.3070
     47 C          49.8120   13.5393  -19.2408 C.3     1  UNL1        0.2456
     48 C          50.2216   12.0846  -19.5599 C.3     1  UNL1        0.1781
     49 O          51.5004   12.0761  -20.1435 O.3     1  UNL1       -0.3790
     50 C          50.2229   11.2124  -18.2791 C.3     1  UNL1        0.1733
     51 O          49.7147    9.9359  -18.5754 O.3     1  UNL1       -0.3793
     52 C          49.3812   11.8417  -17.1483 C.3     1  UNL1        0.2106
     53 O          50.1696   12.7065  -16.3690 O.3     1  UNL1       -0.3766
     54 H          51.6399   11.1679  -20.5180 H       1  UNL1        0.2106
     55 H          50.4153    9.4597  -19.0935 H       1  UNL1        0.2105
     56 H          50.7259   12.1355  -15.7770 H       1  UNL1        0.2107
     57 C          49.8479   14.3701  -20.4947 C.2     1  UNL1        0.3439
     58 O          49.1843   15.4385  -20.5603 O.2     1  UNL1       -0.2475
     59 O          50.6262   13.9855  -21.5824 O.3     1  UNL1       -0.4785
     60 H          51.1637   13.1285  -21.5646 H       1  UNL1        0.2951
@<TRIPOS>BOND
     1    15    16    1
     2    16     1    1
     3     1     2   ar
     4     2     3   ar
     5     3     7    1
     6     7     8    2
     7     7     9   am
     8     9    11    1
     9    11    12    1
    10    11    13    1
    11    11    14    1
    12     3     4   ar
    13     4     5   ar
    14     5    17    1
    15    17    19    1
    16    19    20    2
    17    19    21    2
    18    19    22    1
    19    22    23   ar
    20    23    24   ar
    21    24    25   ar
    22    25    29    1
    23    29    30    1
    24    30    31    1
    25    25    26   ar
    26    26    27   ar
    27    27    28    1
    28     5     6   ar
    29     6    32    1
    30    32    33    1
    31    33    34   ar
    32    34    35   ar
    33    35    36    1
    34    35    37   ar
    35    37    41    1
    36    41    42    1
    37    42    43    2
    38    42    44    1
    39    44    45    1
    40    45    46    1
    41    46    47    1
    42    47    57    1
    43    57    58    2
    44    57    59    1
    45    47    48    1
    46    48    49    1
    47    48    50    1
    48    50    51    1
    49    50    52    1
    50    52    53    1
    51    37    38   ar
    52    38    39   ar
    53    39    40    1
    54     6     1   ar
    55    39    33   ar
    56    27    22   ar
    57    52    45    1
    58    31    29    1
    59     9    10    1
    60    17    18    1
    61    59    60    1
    62    49    54    1
    63    51    55    1
    64    53    56    1
@<TRIPOS>MOLECULE
*****
 60 64 0 0 0
SMALL
GASTEIGER

@<TRIPOS>ATOM
      1 C          48.4110   11.0088  -26.6518 C.ar    1  UNL1        0.1744
      2 C          48.7527   10.0599  -27.6357 C.ar    1  UNL1        0.0447
      3 C          49.9510    9.3335  -27.5541 C.ar    1  UNL1        0.0578
      4 C          50.8064    9.5518  -26.4664 C.ar    1  UNL1        0.0237
      5 C          50.4729   10.4749  -25.4723 C.ar    1  UNL1        0.1024
      6 C          49.2673   11.1904  -25.5371 C.ar    1  UNL1        0.1934
      7 C          50.3192    8.3481  -28.5979 C.2     1  UNL1        0.2459
      8 O          49.6929    7.2556  -28.6553 O.2     1  UNL1       -0.2701
      9 N          51.3931    8.6180  -29.5210 N.am    1  UNL1       -0.3040
     10 H          52.0321    9.4125  -29.2899 H       1  UNL1        0.1496
     11 C          51.6606    7.8486  -30.7524 C.3     1  UNL1        0.0572
     12 C          52.1035    8.8209  -31.8654 C.3     1  UNL1        0.0196
     13 C          52.7941    6.8324  -30.5120 C.3     1  UNL1        0.0196
     14 C          50.3815    7.1251  -31.2170 C.3     1  UNL1        0.0196
     15 C          46.4116   11.8422  -27.9206 C.3     1  UNL1        0.2526
     16 O          47.2538   11.7948  -26.7737 O.3     1  UNL1       -0.4683
     17 N          51.4093   10.7544  -24.4317 N.pl3   1  UNL1       -0.2119
     18 H          51.1777   10.4511  -23.4597 H       1  UNL1        0.1738
     19 S          52.4854   12.0982  -24.6097 S.O2    1  UNL1        0.0745
     20 O          53.3437   11.9149  -25.8297 O.2     1  UNL1       -0.1499
     21 O          53.3895   12.1614  -23.4106 O.2     1  UNL1       -0.1499
     22 C          51.5299   13.5857  -24.7166 C.ar    1  UNL1        0.1356
     23 C          51.0900   14.0092  -25.9777 C.ar    1  UNL1        0.0207
     24 C          50.4148   15.2215  -26.1296 C.ar    1  UNL1       -0.0028
     25 C          50.1796   16.0541  -25.0169 C.ar    1  UNL1       -0.0216
     26 C          50.6126   15.6240  -23.7541 C.ar    1  UNL1        0.0085
     27 C          51.2778   14.4028  -23.5933 C.ar    1  UNL1        0.0762
     28 CL         51.7887   13.9626  -21.9674 Cl      1  UNL1       -0.0809
     29 C          49.5155   17.4176  -25.1087 C.3     1  UNL1        0.0224
     30 C          50.1364   18.4226  -26.0706 C.3     1  UNL1        0.0047
     31 C          48.8016   17.7689  -26.4064 C.3     1  UNL1        0.0047
     32 O          49.0026   12.1095  -24.5026 O.3     1  UNL1       -0.4482
     33 C          48.0302   11.9689  -23.5068 C.ar    1  UNL1        0.1582
     34 C          47.9199   10.7388  -22.8534 C.ar    1  UNL1        0.0677
     35 C          47.0470   10.5834  -21.7761 C.ar    1  UNL1        0.1398
     36 F          47.0133    9.3987  -21.1150 F       1  UNL1       -0.2044
     37 C          46.2518   11.6616  -21.3533 C.ar    1  UNL1        0.0175
     38 C          46.3034   12.8742  -22.0605 C.ar    1  UNL1        0.0130
     39 C          47.1699   13.0249  -23.1489 C.ar    1  UNL1        0.0919
     40 CL         47.1696   14.5446  -24.0333 Cl      1  UNL1       -0.0791
     41 C          45.4550   11.5641  -20.0826 C.3     1  UNL1        0.1382
     42 C          46.1377   12.3620  -19.0186 C.2     1  UNL1        0.3234
     43 O          45.4702   13.1744  -18.3216 O.2     1  UNL1       -0.2497
     44 O          47.5228   12.2509  -18.8568 O.3     1  UNL1       -0.4215
     45 C          48.1520   11.0815  -18.3347 C.3     1  UNL1        0.3207
     46 O          48.1593   11.1512  -16.9088 O.3     1  UNL1       -0.3070
     47 C          49.4254   11.4244  -16.3228 C.3     1  UNL1        0.2456
     48 C          50.2350   12.4839  -17.1025 C.3     1  UNL1        0.1781
     49 O          51.4534   12.7204  -16.4425 O.3     1  UNL1       -0.3790
     50 C          50.5063   12.0194  -18.5557 C.3     1  UNL1        0.1733
     51 O          50.3861   13.1118  -19.4318 O.3     1  UNL1       -0.3793
     52 C          49.5334   10.9059  -18.9995 C.3     1  UNL1        0.2106
     53 O          50.0475    9.6401  -18.6675 O.3     1  UNL1       -0.3766
     54 H          51.8453   13.5379  -16.8459 H       1  UNL1        0.2106
     55 H          51.1877   13.6814  -19.2942 H       1  UNL1        0.2105
     56 H          50.7533    9.4311  -19.3339 H       1  UNL1        0.2107
     57 C          49.2022   11.8868  -14.9084 C.2     1  UNL1        0.3439
     58 O          50.1879   12.1432  -14.1677 O.2     1  UNL1       -0.2475
     59 O          47.9143   12.0585  -14.4097 O.3     1  UNL1       -0.4785
     60 H          47.1017   11.8527  -14.9763 H       1  UNL1        0.2951
@<TRIPOS>BOND
     1    15    16    1
     2    16     1    1
     3     1     2   ar
     4     2     3   ar
     5     3     7    1
     6     7     8    2
     7     7     9   am
     8     9    11    1
     9    11    12    1
    10    11    13    1
    11    11    14    1
    12     3     4   ar
    13     4     5   ar
    14     5    17    1
    15    17    19    1
    16    19    20    2
    17    19    21    2
    18    19    22    1
    19    22    23   ar
    20    23    24   ar
    21    24    25   ar
    22    25    29    1
    23    29    30    1
    24    30    31    1
    25    25    26   ar
    26    26    27   ar
    27    27    28    1
    28     5     6   ar
    29     6    32    1
    30    32    33    1
    31    33    34   ar
    32    34    35   ar
    33    35    36    1
    34    35    37   ar
    35    37    41    1
    36    41    42    1
    37    42    43    2
    38    42    44    1
    39    44    45    1
    40    45    46    1
    41    46    47    1
    42    47    57    1
    43    57    58    2
    44    57    59    1
    45    47    48    1
    46    48    49    1
    47    48    50    1
    48    50    51    1
    49    50    52    1
    50    52    53    1
    51    37    38   ar
    52    38    39   ar
    53    39    40    1
    54     6     1   ar
    55    39    33   ar
    56    27    22   ar
    57    52    45    1
    58    31    29    1
    59     9    10    1
    60    17    18    1
    61    59    60    1
    62    49    54    1
    63    51    55    1
    64    53    56    1
@<TRIPOS>MOLECULE
*****
 60 64 0 0 0
SMALL
GASTEIGER

@<TRIPOS>ATOM
      1 C          51.6559   10.0870  -24.4420 C.ar    1  UNL1        0.1744
      2 C          52.0466    9.7396  -25.7504 C.ar    1  UNL1        0.0447
      3 C          52.3650   10.7270  -26.6958 C.ar    1  UNL1        0.0578
      4 C          52.3049   12.0748  -26.3188 C.ar    1  UNL1        0.0237
      5 C          51.9385   12.4352  -25.0198 C.ar    1  UNL1        0.1024
      6 C          51.6378   11.4527  -24.0637 C.ar    1  UNL1        0.1934
      7 C          52.7588   10.3627  -28.0773 C.2     1  UNL1        0.2459
      8 O          52.8350   11.2689  -28.9503 O.2     1  UNL1       -0.2701
      9 N          53.0276    8.9911  -28.4301 N.am    1  UNL1       -0.3040
     10 H          52.7234    8.2559  -27.7520 H       1  UNL1        0.1496
     11 C          53.6839    8.5541  -29.6784 C.3     1  UNL1        0.0572
     12 C          54.1353    7.0871  -29.5211 C.3     1  UNL1        0.0196
     13 C          52.6966    8.6375  -30.8588 C.3     1  UNL1        0.0196
     14 C          54.9279    9.4201  -29.9576 C.3     1  UNL1        0.0196
     15 C          50.2269    8.1480  -23.7347 C.3     1  UNL1        0.2526
     16 O          51.2582    9.1057  -23.5196 O.3     1  UNL1       -0.4683
     17 N          51.7834   13.8159  -24.6919 N.pl3   1  UNL1       -0.2119
     18 H          52.0980   14.1419  -23.7511 H       1  UNL1        0.1738
     19 S          50.5394   14.7297  -25.4747 S.O2    1  UNL1        0.0745
     20 O          50.7276   14.6881  -26.9652 O.2     1  UNL1       -0.1499
     21 O          50.6364   16.1634  -25.0338 O.2     1  UNL1       -0.1499
     22 C          48.9641   14.0669  -25.0095 C.ar    1  UNL1        0.1356
     23 C          48.6143   12.7895  -25.4666 C.ar    1  UNL1        0.0207
     24 C          47.3494   12.2589  -25.2078 C.ar    1  UNL1       -0.0028
     25 C          46.3907   13.0082  -24.4965 C.ar    1  UNL1       -0.0216
     26 C          46.7461   14.2829  -24.0318 C.ar    1  UNL1        0.0085
     27 C          48.0178   14.8149  -24.2762 C.ar    1  UNL1        0.0762
     28 CL         48.3574   16.4277  -23.6584 Cl      1  UNL1       -0.0809
     29 C          44.9720   12.5317  -24.2346 C.3     1  UNL1        0.0224
     30 C          43.8467   13.3339  -24.8758 C.3     1  UNL1        0.0047
     31 C          44.1955   11.9491  -25.4071 C.3     1  UNL1        0.0047
     32 O          51.2689   11.8920  -22.7768 O.3     1  UNL1       -0.4482
     33 C          49.9615   12.0291  -22.2983 C.ar    1  UNL1        0.1582
     34 C          49.0952   10.9383  -22.4072 C.ar    1  UNL1        0.0677
     35 C          47.8206   10.9853  -21.8416 C.ar    1  UNL1        0.1398
     36 F          47.0277    9.8855  -21.9003 F       1  UNL1       -0.2044
     37 C          47.3886   12.1442  -21.1753 C.ar    1  UNL1        0.0175
     38 C          48.2285   13.2693  -21.1356 C.ar    1  UNL1        0.0130
     39 C          49.5018   13.2254  -21.7144 C.ar    1  UNL1        0.0919
     40 CL         50.5025   14.6708  -21.6810 Cl      1  UNL1       -0.0791
     41 C          46.1002   12.1384  -20.4011 C.3     1  UNL1        0.1382
     42 C          46.3813   12.5351  -18.9874 C.2     1  UNL1        0.3234
     43 O          45.4582   13.0243  -18.2804 O.2     1  UNL1       -0.2497
     44 O          47.6833   12.4259  -18.4876 O.3     1  UNL1       -0.4215
     45 C          48.2390   11.1932  -18.0318 C.3     1  UNL1        0.3207
     46 O          48.1417   11.1340  -16.6087 O.3     1  UNL1       -0.3070
     47 C          49.3676   11.3095  -15.9105 C.3     1  UNL1        0.2456
     48 C          50.2624   12.4062  -16.5290 C.3     1  UNL1        0.1781
     49 O          51.4341   12.5402  -15.7642 O.3     1  UNL1       -0.3790
     50 C          50.6284   12.0653  -17.9956 C.3     1  UNL1        0.1733
     51 O          50.6044   13.2356  -18.7736 O.3     1  UNL1       -0.3793
     52 C          49.6607   11.0305  -18.6090 C.3     1  UNL1        0.2106
     53 O          50.1131    9.7230  -18.3592 O.3     1  UNL1       -0.3766
     54 H          51.8777   13.3766  -16.0612 H       1  UNL1        0.2106
     55 H          51.4091   13.7624  -18.5267 H       1  UNL1        0.2105
     56 H          50.8606    9.5505  -18.9896 H       1  UNL1        0.2107
     57 C          49.0523   11.6501  -14.4793 C.2     1  UNL1        0.3439
     58 O          49.9554   11.5857  -13.6039 O.2     1  UNL1       -0.2475
     59 O          47.7749   12.0601  -14.1090 O.3     1  UNL1       -0.4785
     60 H          47.0254   12.1138  -14.7866 H       1  UNL1        0.2951
@<TRIPOS>BOND
     1    15    16    1
     2    16     1    1
     3     1     2   ar
     4     2     3   ar
     5     3     7    1
     6     7     8    2
     7     7     9   am
     8     9    11    1
     9    11    12    1
    10    11    13    1
    11    11    14    1
    12     3     4   ar
    13     4     5   ar
    14     5    17    1
    15    17    19    1
    16    19    20    2
    17    19    21    2
    18    19    22    1
    19    22    23   ar
    20    23    24   ar
    21    24    25   ar
    22    25    29    1
    23    29    30    1
    24    30    31    1
    25    25    26   ar
    26    26    27   ar
    27    27    28    1
    28     5     6   ar
    29     6    32    1
    30    32    33    1
    31    33    34   ar
    32    34    35   ar
    33    35    36    1
    34    35    37   ar
    35    37    41    1
    36    41    42    1
    37    42    43    2
    38    42    44    1
    39    44    45    1
    40    45    46    1
    41    46    47    1
    42    47    57    1
    43    57    58    2
    44    57    59    1
    45    47    48    1
    46    48    49    1
    47    48    50    1
    48    50    51    1
    49    50    52    1
    50    52    53    1
    51    37    38   ar
    52    38    39   ar
    53    39    40    1
    54     6     1   ar
    55    39    33   ar
    56    27    22   ar
    57    52    45    1
    58    31    29    1
    59     9    10    1
    60    17    18    1
    61    59    60    1
    62    49    54    1
    63    51    55    1
    64    53    56    1
@<TRIPOS>MOLECULE
*****
 60 64 0 0 0
SMALL
GASTEIGER

@<TRIPOS>ATOM
      1 C          51.6228   11.8939  -26.1278 C.ar    1  UNL1        0.1744
      2 C          51.7124   10.8176  -27.0327 C.ar    1  UNL1        0.0447
      3 C          50.5825   10.0509  -27.3581 C.ar    1  UNL1        0.0578
      4 C          49.3489   10.3780  -26.7807 C.ar    1  UNL1        0.0237
      5 C          49.2393   11.4543  -25.8969 C.ar    1  UNL1        0.1024
      6 C          50.3607   12.2374  -25.5821 C.ar    1  UNL1        0.1934
      7 C          50.6798    8.9078  -28.2961 C.2     1  UNL1        0.2459
      8 O          49.9028    7.9264  -28.1465 O.2     1  UNL1       -0.2701
      9 N          51.6627    8.9006  -29.3505 N.am    1  UNL1       -0.3040
     10 H          52.4309    9.6073  -29.2912 H       1  UNL1        0.1496
     11 C          51.6693    7.9636  -30.4916 C.3     1  UNL1        0.0572
     12 C          52.7072    6.8539  -30.2239 C.3     1  UNL1        0.0196
     13 C          50.2838    7.3079  -30.6526 C.3     1  UNL1        0.0196
     14 C          52.0667    8.7018  -31.7848 C.3     1  UNL1        0.0196
     15 C          54.0740   12.0624  -25.6128 C.3     1  UNL1        0.2526
     16 O          52.7659   12.6103  -25.7380 O.3     1  UNL1       -0.4683
     17 N          47.9948   11.7010  -25.2424 N.pl3   1  UNL1       -0.2119
     18 H          47.5193   10.9050  -24.7621 H       1  UNL1        0.1738
     19 S          46.9994   13.0041  -25.7959 S.O2    1  UNL1        0.0745
     20 O          47.7190   14.3125  -25.6258 O.2     1  UNL1       -0.1499
     21 O          45.7486   13.0501  -24.9636 O.2     1  UNL1       -0.1499
     22 C          46.5778   12.7211  -27.4927 C.ar    1  UNL1        0.1356
     23 C          46.7261   11.4283  -28.0123 C.ar    1  UNL1        0.0207
     24 C          46.4979   11.1707  -29.3651 C.ar    1  UNL1       -0.0028
     25 C          46.1318   12.2131  -30.2404 C.ar    1  UNL1       -0.0216
     26 C          45.9748   13.5046  -29.7164 C.ar    1  UNL1        0.0085
     27 C          46.1887   13.7665  -28.3579 C.ar    1  UNL1        0.0762
     28 CL         45.9753   15.4240  -27.8055 Cl      1  UNL1       -0.0809
     29 C          45.9339   12.0291  -31.7355 C.3     1  UNL1        0.0224
     30 C          44.6550   12.5988  -32.3362 C.3     1  UNL1        0.0047
     31 C          45.9939   13.2712  -32.6134 C.3     1  UNL1        0.0047
     32 O          50.1750   13.3014  -24.6774 O.3     1  UNL1       -0.4482
     33 C          50.6387   13.3494  -23.3584 C.ar    1  UNL1        0.1582
     34 C          52.0129   13.2375  -23.1318 C.ar    1  UNL1        0.0677
     35 C          52.5353   13.3955  -21.8477 C.ar    1  UNL1        0.1398
     36 F          53.8799   13.3532  -21.6686 F       1  UNL1       -0.2044
     37 C          51.6767   13.6466  -20.7645 C.ar    1  UNL1        0.0175
     38 C          50.2889   13.6791  -20.9789 C.ar    1  UNL1        0.0130
     39 C          49.7652   13.5076  -22.2652 C.ar    1  UNL1        0.0919
     40 CL         48.0202   13.5107  -22.4813 Cl      1  UNL1       -0.0791
     41 C          52.2395   14.0072  -19.4182 C.3     1  UNL1        0.1382
     42 C          51.9886   12.8798  -18.4690 C.2     1  UNL1        0.3234
     43 O          52.7724   11.8916  -18.4516 O.2     1  UNL1       -0.2497
     44 O          50.8466   12.9010  -17.6614 O.3     1  UNL1       -0.4215
     45 C          50.1584   11.7176  -17.2589 C.3     1  UNL1        0.3207
     46 O          50.1636   10.7833  -18.3384 O.3     1  UNL1       -0.3070
     47 C          48.9176   10.6199  -19.0032 C.3     1  UNL1        0.2456
     48 C          48.1616   11.9519  -19.2035 C.3     1  UNL1        0.1781
     49 O          46.9618   11.7093  -19.8946 O.3     1  UNL1       -0.3790
     50 C          47.8568   12.6295  -17.8438 C.3     1  UNL1        0.1733
     51 O          48.0304   14.0195  -17.9584 O.3     1  UNL1       -0.3793
     52 C          48.7655   12.0979  -16.7146 C.3     1  UNL1        0.2106
     53 O          48.1860   10.9722  -16.1034 O.3     1  UNL1       -0.3766
     54 H          46.6121   12.5919  -20.1829 H       1  UNL1        0.2106
     55 H          47.2614   14.3637  -18.4840 H       1  UNL1        0.2105
     56 H          47.4659   11.3061  -15.5067 H       1  UNL1        0.2107
     57 C          49.1741    9.9692  -20.3354 C.2     1  UNL1        0.3439
     58 O          50.2553   10.1866  -20.9436 O.2     1  UNL1       -0.2475
     59 O          48.2385    9.1070  -20.8994 O.3     1  UNL1       -0.4785
     60 H          47.3568    8.9186  -20.4404 H       1  UNL1        0.2951
@<TRIPOS>BOND
     1    15    16    1
     2    16     1    1
     3     1     2   ar
     4     2     3   ar
     5     3     7    1
     6     7     8    2
     7     7     9   am
     8     9    11    1
     9    11    12    1
    10    11    13    1
    11    11    14    1
    12     3     4   ar
    13     4     5   ar
    14     5    17    1
    15    17    19    1
    16    19    20    2
    17    19    21    2
    18    19    22    1
    19    22    23   ar
    20    23    24   ar
    21    24    25   ar
    22    25    29    1
    23    29    30    1
    24    30    31    1
    25    25    26   ar
    26    26    27   ar
    27    27    28    1
    28     5     6   ar
    29     6    32    1
    30    32    33    1
    31    33    34   ar
    32    34    35   ar
    33    35    36    1
    34    35    37   ar
    35    37    41    1
    36    41    42    1
    37    42    43    2
    38    42    44    1
    39    44    45    1
    40    45    46    1
    41    46    47    1
    42    47    57    1
    43    57    58    2
    44    57    59    1
    45    47    48    1
    46    48    49    1
    47    48    50    1
    48    50    51    1
    49    50    52    1
    50    52    53    1
    51    37    38   ar
    52    38    39   ar
    53    39    40    1
    54     6     1   ar
    55    39    33   ar
    56    27    22   ar
    57    52    45    1
    58    31    29    1
    59     9    10    1
    60    17    18    1
    61    59    60    1
    62    49    54    1
    63    51    55    1
    64    53    56    1
@<TRIPOS>MOLECULE
*****
 60 64 0 0 0
SMALL
GASTEIGER

@<TRIPOS>ATOM
      1 C          45.8851   12.1475  -19.8525 C.ar    1  UNL1        0.1744
      2 C          46.7244   12.0407  -18.7257 C.ar    1  UNL1        0.0447
      3 C          48.0310   11.5415  -18.8424 C.ar    1  UNL1        0.0578
      4 C          48.5037   11.1602  -20.1048 C.ar    1  UNL1        0.0237
      5 C          47.6910   11.2783  -21.2349 C.ar    1  UNL1        0.1024
      6 C          46.3904   11.7950  -21.1289 C.ar    1  UNL1        0.1934
      7 C          48.9080   11.4124  -17.6548 C.2     1  UNL1        0.2459
      8 O          49.8530   10.5785  -17.6805 O.2     1  UNL1       -0.2701
      9 N          48.6740   12.2074  -16.4753 N.am    1  UNL1       -0.3040
     10 H          47.7543   12.6997  -16.4068 H       1  UNL1        0.1496
     11 C          49.6283   12.3627  -15.3594 C.3     1  UNL1        0.0572
     12 C          51.0450   12.5669  -15.9352 C.3     1  UNL1        0.0196
     13 C          49.2630   13.5968  -14.5117 C.3     1  UNL1        0.0196
     14 C          49.6355   11.0940  -14.4842 C.3     1  UNL1        0.0196
     15 C          43.5435   11.8891  -18.9854 C.3     1  UNL1        0.2526
     16 O          44.5517   12.5690  -19.7258 O.3     1  UNL1       -0.4683
     17 N          48.1590   10.7855  -22.4903 N.pl3   1  UNL1       -0.2119
     18 H          47.7980    9.8662  -22.8294 H       1  UNL1        0.1738
     19 S          49.7123   11.2896  -23.0634 S.O2    1  UNL1        0.0745
     20 O          50.7792   10.8922  -22.0824 O.2     1  UNL1       -0.1499
     21 O          49.7256   12.7879  -23.1829 O.2     1  UNL1       -0.1499
     22 C          49.9998   10.5611  -24.6521 C.ar    1  UNL1        0.1356
     23 C          49.8517   11.3622  -25.7921 C.ar    1  UNL1        0.0207
     24 C          49.9746   10.8159  -27.0708 C.ar    1  UNL1       -0.0028
     25 C          50.2312    9.4403  -27.2399 C.ar    1  UNL1       -0.0216
     26 C          50.3883    8.6422  -26.0974 C.ar    1  UNL1        0.0085
     27 C          50.2801    9.1869  -24.8123 C.ar    1  UNL1        0.0762
     28 CL         50.4835    8.0956  -23.4464 Cl      1  UNL1       -0.0809
     29 C          50.3095    8.7569  -28.5946 C.3     1  UNL1        0.0224
     30 C          49.7256    7.3532  -28.6925 C.3     1  UNL1        0.0047
     31 C          49.0054    8.5266  -29.3452 C.3     1  UNL1        0.0047
     32 O          45.6272   11.8770  -22.3104 O.3     1  UNL1       -0.4482
     33 C          46.0644   12.3861  -23.5378 C.ar    1  UNL1        0.1582
     34 C          45.8171   11.6406  -24.6934 C.ar    1  UNL1        0.0677
     35 C          46.1288   12.1575  -25.9513 C.ar    1  UNL1        0.1398
     36 F          45.8116   11.4418  -27.0599 F       1  UNL1       -0.2044
     37 C          46.7176   13.4280  -26.0641 C.ar    1  UNL1        0.0175
     38 C          47.0401   14.1434  -24.8990 C.ar    1  UNL1        0.0130
     39 C          46.7388   13.6184  -23.6374 C.ar    1  UNL1        0.0919
     40 CL         47.2006   14.5271  -22.2047 Cl      1  UNL1       -0.0791
     41 C          46.8801   14.0719  -27.4125 C.3     1  UNL1        0.1382
     42 C          47.0440   15.5466  -27.2301 C.2     1  UNL1        0.3234
     43 O          46.0272   16.2703  -27.0468 O.2     1  UNL1       -0.2497
     44 O          48.3172   16.1162  -27.3366 O.3     1  UNL1       -0.4215
     45 C          49.1311   16.4153  -26.2034 C.3     1  UNL1        0.3207
     46 O          48.2942   16.5969  -25.0611 O.3     1  UNL1       -0.3070
     47 C          48.1519   17.9418  -24.6229 C.3     1  UNL1        0.2456
     48 C          48.0108   18.9446  -25.7892 C.3     1  UNL1        0.1781
     49 O          47.8415   20.2412  -25.2733 O.3     1  UNL1       -0.3790
     50 C          49.2551   18.9047  -26.7119 C.3     1  UNL1        0.1733
     51 O          48.8536   19.0264  -28.0533 O.3     1  UNL1       -0.3793
     52 C          50.0613   17.5991  -26.5418 C.3     1  UNL1        0.2106
     53 O          51.0188   17.7395  -25.5220 O.3     1  UNL1       -0.3766
     54 H          47.5514   20.8158  -26.0284 H       1  UNL1        0.2106
     55 H          48.5846   19.9725  -28.1890 H       1  UNL1        0.2105
     56 H          51.7664   18.2731  -25.8992 H       1  UNL1        0.2107
     57 C          46.9455   18.0223  -23.7272 C.2     1  UNL1        0.3439
     58 O          45.8094   18.2483  -24.2214 O.2     1  UNL1       -0.2475
     59 O          47.0630   17.8272  -22.3542 O.3     1  UNL1       -0.4785
     60 H          47.9626   17.6527  -21.9253 H       1  UNL1        0.2951
@<TRIPOS>BOND
     1    15    16    1
     2    16     1    1
     3     1     2   ar
     4     2     3   ar
     5     3     7    1
     6     7     8    2
     7     7     9   am
     8     9    11    1
     9    11    12    1
    10    11    13    1
    11    11    14    1
    12     3     4   ar
    13     4     5   ar
    14     5    17    1
    15    17    19    1
    16    19    20    2
    17    19    21    2
    18    19    22    1
    19    22    23   ar
    20    23    24   ar
    21    24    25   ar
    22    25    29    1
    23    29    30    1
    24    30    31    1
    25    25    26   ar
    26    26    27   ar
    27    27    28    1
    28     5     6   ar
    29     6    32    1
    30    32    33    1
    31    33    34   ar
    32    34    35   ar
    33    35    36    1
    34    35    37   ar
    35    37    41    1
    36    41    42    1
    37    42    43    2
    38    42    44    1
    39    44    45    1
    40    45    46    1
    41    46    47    1
    42    47    57    1
    43    57    58    2
    44    57    59    1
    45    47    48    1
    46    48    49    1
    47    48    50    1
    48    50    51    1
    49    50    52    1
    50    52    53    1
    51    37    38   ar
    52    38    39   ar
    53    39    40    1
    54     6     1   ar
    55    39    33   ar
    56    27    22   ar
    57    52    45    1
    58    31    29    1
    59     9    10    1
    60    17    18    1
    61    59    60    1
    62    49    54    1
    63    51    55    1
    64    53    56    1
@<TRIPOS>MOLECULE
*****
 60 64 0 0 0
SMALL
GASTEIGER

@<TRIPOS>ATOM
      1 C          51.1478   12.7965  -19.8977 C.ar    1  UNL1        0.1744
      2 C          51.0378   12.4584  -18.5343 C.ar    1  UNL1        0.0447
      3 C          49.7906   12.4493  -17.8903 C.ar    1  UNL1        0.0578
      4 C          48.6423   12.7683  -18.6264 C.ar    1  UNL1        0.0237
      5 C          48.7320   13.0866  -19.9837 C.ar    1  UNL1        0.1024
      6 C          49.9731   13.0785  -20.6389 C.ar    1  UNL1        0.1934
      7 C          49.6765   12.1110  -16.4520 C.2     1  UNL1        0.2459
      8 O          50.1051   10.9956  -16.0505 O.2     1  UNL1       -0.2701
      9 N          49.0629   13.0287  -15.5250 N.am    1  UNL1       -0.3040
     10 H          48.5140   13.8206  -15.9307 H       1  UNL1        0.1496
     11 C          49.1422   12.9218  -14.0545 C.3     1  UNL1        0.0572
     12 C          48.4681   11.6072  -13.6098 C.3     1  UNL1        0.0196
     13 C          50.6144   12.8942  -13.5993 C.3     1  UNL1        0.0196
     14 C          48.3987   14.0992  -13.3939 C.3     1  UNL1        0.0196
     15 C          53.0026   14.0904  -20.9875 C.3     1  UNL1        0.2526
     16 O          52.4018   12.8860  -20.5235 O.3     1  UNL1       -0.4683
     17 N          47.5622   13.5094  -20.6840 N.pl3   1  UNL1       -0.2119
     18 H          47.0686   14.3686  -20.3545 H       1  UNL1        0.1738
     19 S          46.6239   12.3322  -21.5380 S.O2    1  UNL1        0.0745
     20 O          45.2200   12.3026  -21.0024 O.2     1  UNL1       -0.1499
     21 O          47.2320   10.9745  -21.3232 O.2     1  UNL1       -0.1499
     22 C          46.6425   12.7288  -23.2642 C.ar    1  UNL1        0.1356
     23 C          46.3692   11.7109  -24.1875 C.ar    1  UNL1        0.0207
     24 C          46.4626   11.9466  -25.5602 C.ar    1  UNL1       -0.0028
     25 C          46.8536   13.2113  -26.0443 C.ar    1  UNL1       -0.0216
     26 C          47.1176   14.2313  -25.1186 C.ar    1  UNL1        0.0085
     27 C          47.0122   14.0050  -23.7411 C.ar    1  UNL1        0.0762
     28 CL         47.3762   15.3498  -22.6655 Cl      1  UNL1       -0.0809
     29 C          47.0463   13.5281  -27.5177 C.3     1  UNL1        0.0224
     30 C          46.2808   12.6659  -28.5134 C.3     1  UNL1        0.0047
     31 C          45.8616   14.1112  -28.2750 C.3     1  UNL1        0.0047
     32 O          49.9864   13.4175  -22.0063 O.3     1  UNL1       -0.4482
     33 C          50.1757   12.5305  -23.0714 C.ar    1  UNL1        0.1582
     34 C          50.0963   11.1589  -22.8173 C.ar    1  UNL1        0.0677
     35 C          50.1619   10.2385  -23.8638 C.ar    1  UNL1        0.1398
     36 F          50.0099    8.9169  -23.5955 F       1  UNL1       -0.2044
     37 C          50.3323   10.6855  -25.1847 C.ar    1  UNL1        0.0175
     38 C          50.4929   12.0590  -25.4315 C.ar    1  UNL1        0.0130
     39 C          50.4398   12.9802  -24.3796 C.ar    1  UNL1        0.0919
     40 CL         50.6906   14.6854  -24.7277 Cl      1  UNL1       -0.0791
     41 C          50.2124    9.7229  -26.3328 C.3     1  UNL1        0.1382
     42 C          51.5712    9.2007  -26.6728 C.2     1  UNL1        0.3234
     43 O          52.5256    9.3699  -25.8655 O.2     1  UNL1       -0.2497
     44 O          51.7845    8.5934  -27.9148 O.3     1  UNL1       -0.4215
     45 C          51.8746    9.3297  -29.1337 C.3     1  UNL1        0.3207
     46 O          51.1215    8.6573  -30.1431 O.3     1  UNL1       -0.3070
     47 C          51.8951    7.9899  -31.1316 C.3     1  UNL1        0.2456
     48 C          53.1271    7.2654  -30.5458 C.3     1  UNL1        0.1781
     49 O          53.8163    6.6057  -31.5781 O.3     1  UNL1       -0.3790
     50 C          54.0753    8.2642  -29.8356 C.3     1  UNL1        0.1733
     51 O          54.5896    7.6785  -28.6661 O.3     1  UNL1       -0.3793
     52 C          53.3596    9.5820  -29.4685 C.3     1  UNL1        0.2106
     53 O          53.4437   10.5013  -30.5289 O.3     1  UNL1       -0.3766
     54 H          54.4663    5.9938  -31.1449 H       1  UNL1        0.2106
     55 H          55.2569    7.0011  -28.9524 H       1  UNL1        0.2105
     56 H          54.3630   10.8764  -30.5139 H       1  UNL1        0.2107
     57 C          51.0075    7.0030  -31.8403 C.2     1  UNL1        0.3439
     58 O          51.4594    6.3299  -32.8040 O.2     1  UNL1       -0.2475
     59 O          49.6924    6.8046  -31.4301 O.3     1  UNL1       -0.4785
     60 H          49.2969    7.3358  -30.6652 H       1  UNL1        0.2951
@<TRIPOS>BOND
     1    15    16    1
     2    16     1    1
     3     1     2   ar
     4     2     3   ar
     5     3     7    1
     6     7     8    2
     7     7     9   am
     8     9    11    1
     9    11    12    1
    10    11    13    1
    11    11    14    1
    12     3     4   ar
    13     4     5   ar
    14     5    17    1
    15    17    19    1
    16    19    20    2
    17    19    21    2
    18    19    22    1
    19    22    23   ar
    20    23    24   ar
    21    24    25   ar
    22    25    29    1
    23    29    30    1
    24    30    31    1
    25    25    26   ar
    26    26    27   ar
    27    27    28    1
    28     5     6   ar
    29     6    32    1
    30    32    33    1
    31    33    34   ar
    32    34    35   ar
    33    35    36    1
    34    35    37   ar
    35    37    41    1
    36    41    42    1
    37    42    43    2
    38    42    44    1
    39    44    45    1
    40    45    46    1
    41    46    47    1
    42    47    57    1
    43    57    58    2
    44    57    59    1
    45    47    48    1
    46    48    49    1
    47    48    50    1
    48    50    51    1
    49    50    52    1
    50    52    53    1
    51    37    38   ar
    52    38    39   ar
    53    39    40    1
    54     6     1   ar
    55    39    33   ar
    56    27    22   ar
    57    52    45    1
    58    31    29    1
    59     9    10    1
    60    17    18    1
    61    59    60    1
    62    49    54    1
    63    51    55    1
    64    53    56    1
