@<TRIPOS>MOLECULE
*****
 40 44 0 0 0
SMALL
GASTEIGER

@<TRIPOS>ATOM
      1 C          -5.5164   -8.7278   29.7020 C.ar    1  UNL1        0.1317
      2 C          -4.4873   -8.7198   28.7458 C.ar    1  UNL1        0.0286
      3 C          -4.2324   -9.8573   27.9607 C.ar    1  UNL1        0.0782
      4 C          -5.0209  -11.0141   28.1201 C.ar    1  UNL1        0.3083
      5 N          -6.0202  -10.9757   29.0525 N.ar    1  UNL1       -0.1220
      6 C          -6.9649  -11.8807   29.3732 C.ar    1  UNL1        0.3137
      7 C          -7.7679  -11.3135   30.3537 C.ar    1  UNL1        0.1320
      8 N          -7.3344  -10.0641   30.6329 N.ar    1  UNL1       -0.2941
      9 C          -6.2729   -9.8989   29.8212 C.ar    1  UNL1        0.3123
     10 H          -7.7083   -9.4231   31.2799 H       1  UNL1        0.1718
     11 N          -7.6901   -5.8349   31.6709 N.3     1  UNL1       -0.2647
     12 C          -7.4256   -7.1618   32.2672 C.3     1  UNL1        0.0941
     13 C          -6.0030   -7.6171   31.9313 C.3     1  UNL1        0.1084
     14 N          -5.8093   -7.5527   30.4807 N.pl3   1  UNL1       -0.2988
     15 C          -6.1095   -6.2794   29.8242 C.3     1  UNL1        0.1084
     16 C          -7.5299   -5.8489   30.2005 C.3     1  UNL1        0.0941
     17 C          -8.9963   -5.2787   32.0920 C.3     1  UNL1        0.1199
     18 C         -11.6671   -7.4405   31.0302 C.ar    1  UNL1        0.1165
     19 N         -10.6379   -7.1826   31.8662 N.ar    1  UNL1       -0.2344
     20 C         -10.1852   -5.9749   31.4694 C.ar    1  UNL1        0.0878
     21 C         -10.9522   -5.5274   30.4076 C.ar    1  UNL1        0.0499
     22 C         -10.7806   -4.2602   29.6313 C.3     1  UNL1        0.0511
     23 N         -11.8776   -6.4597   30.1307 N.ar    1  UNL1       -0.3443
     24 H         -12.5935   -6.4392   29.3704 H       1  UNL1        0.1668
     25 C         -12.0209   -9.5825   32.2380 C.3     1  UNL1        0.0084
     26 C         -12.4364   -8.7248   31.0477 C.3     1  UNL1        0.0637
     27 C          -8.9506  -11.9216   31.0038 C.ar    1  UNL1        0.0218
     28 C          -9.9606  -12.4931   30.2164 C.ar    1  UNL1        0.0013
     29 C         -11.0647  -13.1106   30.8080 C.ar    1  UNL1       -0.0042
     30 C         -11.1900  -13.1854   32.2139 C.ar    1  UNL1       -0.0228
     31 C         -10.1708  -12.5969   32.9944 C.ar    1  UNL1       -0.0042
     32 C          -9.0709  -11.9734   32.3999 C.ar    1  UNL1        0.0013
     33 C         -12.3752  -13.8863   32.9092 C.3     1  UNL1        0.0189
     34 C         -13.6583  -13.0519   32.7045 C.3     1  UNL1        0.0044
     35 C         -12.1680  -14.0605   34.4331 C.3     1  UNL1        0.0044
     36 C         -12.5734  -15.2907   32.2989 C.3     1  UNL1        0.0044
     37 C          -4.7440  -12.2238   27.3105 C.2     1  UNL1        0.4031
     38 O          -3.6334  -12.3575   26.7334 O.2     1  UNL1       -0.2383
     39 O          -5.7049  -13.2208   27.1533 O.3     1  UNL1       -0.4730
     40 H          -6.5899  -13.1953   27.6444 H       1  UNL1        0.2956
@<TRIPOS>BOND
     1    25    26    1
     2    26    18    1
     3    18    19   ar
     4    19    20   ar
     5    20    17    1
     6    17    11    1
     7    11    12    1
     8    12    13    1
     9    13    14    1
    10    14     1    1
    11     1     2   ar
    12     2     3   ar
    13     3     4   ar
    14     4    37    1
    15    37    38    2
    16    37    39    1
    17     4     5   ar
    18     5     6   ar
    19     6     7   ar
    20     7    27    1
    21    27    28   ar
    22    28    29   ar
    23    29    30   ar
    24    30    33    1
    25    33    34    1
    26    33    35    1
    27    33    36    1
    28    30    31   ar
    29    31    32   ar
    30     7     8   ar
    31     8     9   ar
    32    14    15    1
    33    15    16    1
    34    20    21   ar
    35    21    22    1
    36    21    23   ar
    37    23    18   ar
    38    16    11    1
    39     9     1   ar
    40     9     5   ar
    41    32    27   ar
    42    39    40    1
    43    23    24    1
    44     8    10    1
@<TRIPOS>MOLECULE
*****
 40 44 0 0 0
SMALL
GASTEIGER

@<TRIPOS>ATOM
      1 C          -7.0681  -17.0314   23.4254 C.ar    1  UNL1        0.1317
      2 C          -7.6695  -18.0904   22.7251 C.ar    1  UNL1        0.0286
      3 C          -8.8145  -18.7257   23.2356 C.ar    1  UNL1        0.0782
      4 C          -9.3765  -18.2925   24.4529 C.ar    1  UNL1        0.3083
      5 N          -8.7680  -17.2505   25.0960 N.ar    1  UNL1       -0.1220
      6 C          -9.1085  -16.5825   26.2149 C.ar    1  UNL1        0.3137
      7 C          -8.1738  -15.5720   26.3964 C.ar    1  UNL1        0.1320
      8 N          -7.2668  -15.6035   25.3947 N.ar    1  UNL1       -0.2941
      9 C          -7.6645  -16.6362   24.6279 C.ar    1  UNL1        0.3123
     10 H          -6.4943  -15.0088   25.2576 H       1  UNL1        0.1718
     11 N          -3.6781  -16.3355   21.1906 N.3     1  UNL1       -0.2647
     12 C          -5.0358  -16.2196   20.6167 C.3     1  UNL1        0.0941
     13 C          -5.9881  -15.5906   21.6372 C.3     1  UNL1        0.1084
     14 N          -5.9194  -16.3497   22.8881 N.pl3   1  UNL1       -0.2988
     15 C          -4.5934  -16.5465   23.4761 C.3     1  UNL1        0.1084
     16 C          -3.6672  -17.1569   22.4207 C.3     1  UNL1        0.0941
     17 C          -2.6834  -16.7955   20.1947 C.3     1  UNL1        0.1199
     18 C          -0.3669  -19.3395   21.2415 C.ar    1  UNL1        0.1165
     19 N          -0.6417  -18.0381   21.0060 N.ar    1  UNL1       -0.2344
     20 C          -1.9324  -18.0395   20.6123 C.ar    1  UNL1        0.0878
     21 C          -2.4105  -19.3384   20.6233 C.ar    1  UNL1        0.0499
     22 C          -3.7723  -19.8104   20.2222 C.3     1  UNL1        0.0511
     23 N          -1.4164  -20.1526   21.0117 N.ar    1  UNL1       -0.3443
     24 H          -1.4436  -21.1932   21.0984 H       1  UNL1        0.1668
     25 C           1.1552  -21.3029   21.2592 C.3     1  UNL1        0.0084
     26 C           0.9911  -19.8336   21.6328 C.3     1  UNL1        0.0637
     27 C          -8.1447  -14.5642   27.4803 C.ar    1  UNL1        0.0218
     28 C          -6.9295  -13.9636   27.8397 C.ar    1  UNL1        0.0013
     29 C          -6.8840  -12.9794   28.8295 C.ar    1  UNL1       -0.0042
     30 C          -8.0604  -12.5548   29.4883 C.ar    1  UNL1       -0.0228
     31 C          -9.2754  -13.1754   29.1234 C.ar    1  UNL1       -0.0042
     32 C          -9.3169  -14.1649   28.1381 C.ar    1  UNL1        0.0013
     33 C          -8.0610  -11.4486   30.5633 C.3     1  UNL1        0.0189
     34 C          -8.5274  -10.1186   29.9325 C.3     1  UNL1        0.0044
     35 C          -6.6651  -11.2073   31.1866 C.3     1  UNL1        0.0044
     36 C          -9.0236  -11.8405   31.7053 C.3     1  UNL1        0.0044
     37 C         -10.5712  -18.9715   25.0073 C.2     1  UNL1        0.4031
     38 O         -11.7179  -18.4884   24.8170 O.2     1  UNL1       -0.2383
     39 O         -10.4520  -20.1366   25.7624 O.3     1  UNL1       -0.4730
     40 H          -9.5626  -20.6023   25.8938 H       1  UNL1        0.2956
@<TRIPOS>BOND
     1    25    26    1
     2    26    18    1
     3    18    19   ar
     4    19    20   ar
     5    20    17    1
     6    17    11    1
     7    11    12    1
     8    12    13    1
     9    13    14    1
    10    14     1    1
    11     1     2   ar
    12     2     3   ar
    13     3     4   ar
    14     4    37    1
    15    37    38    2
    16    37    39    1
    17     4     5   ar
    18     5     6   ar
    19     6     7   ar
    20     7    27    1
    21    27    28   ar
    22    28    29   ar
    23    29    30   ar
    24    30    33    1
    25    33    34    1
    26    33    35    1
    27    33    36    1
    28    30    31   ar
    29    31    32   ar
    30     7     8   ar
    31     8     9   ar
    32    14    15    1
    33    15    16    1
    34    20    21   ar
    35    21    22    1
    36    21    23   ar
    37    23    18   ar
    38    16    11    1
    39     9     1   ar
    40     9     5   ar
    41    32    27   ar
    42    39    40    1
    43    23    24    1
    44     8    10    1
@<TRIPOS>MOLECULE
*****
 40 44 0 0 0
SMALL
GASTEIGER

@<TRIPOS>ATOM
      1 C         -11.5041   -9.7413   31.2101 C.ar    1  UNL1        0.1317
      2 C         -12.4091   -9.6671   32.2820 C.ar    1  UNL1        0.0286
      3 C         -12.8321  -10.8335   32.9421 C.ar    1  UNL1        0.0782
      4 C         -12.3376  -12.0897   32.5387 C.ar    1  UNL1        0.3083
      5 N         -11.4489  -12.1165   31.4998 N.ar    1  UNL1       -0.1220
      6 C         -10.7627  -13.1368   30.9499 C.ar    1  UNL1        0.3137
      7 C          -9.9525  -12.6046   29.9558 C.ar    1  UNL1        0.1320
      8 N         -10.1243  -11.2654   29.8947 N.ar    1  UNL1       -0.2941
      9 C         -11.0399  -11.0108   30.8484 C.ar    1  UNL1        0.3123
     10 H          -9.6822  -10.6244   29.2923 H       1  UNL1        0.1718
     11 N          -8.9558   -6.7368   30.0060 N.3     1  UNL1       -0.2647
     12 C          -8.9603   -8.0686   29.3637 C.3     1  UNL1        0.0941
     13 C         -10.3945   -8.5896   29.2396 C.3     1  UNL1        0.1084
     14 N         -11.0353   -8.5472   30.5562 N.pl3   1  UNL1       -0.2988
     15 C         -11.0134   -7.2679   31.2671 C.3     1  UNL1        0.1084
     16 C          -9.5675   -6.7714   31.3524 C.3     1  UNL1        0.0941
     17 C          -7.6098   -6.1193   30.0123 C.3     1  UNL1        0.1199
     18 C          -5.0493   -8.6319   29.7579 C.ar    1  UNL1        0.1165
     19 N          -5.9984   -7.8705   29.1712 N.ar    1  UNL1       -0.2344
     20 C          -6.4831   -7.1138   30.1779 C.ar    1  UNL1        0.0878
     21 C          -5.8144   -7.4298   31.3479 C.ar    1  UNL1        0.0499
     22 C          -6.0535   -6.8669   32.7133 C.3     1  UNL1        0.0511
     23 N          -4.9193   -8.3930   31.0775 N.ar    1  UNL1       -0.3443
     24 H          -4.2750   -8.8689   31.7479 H       1  UNL1        0.1668
     25 C          -5.0312  -10.1289   27.7753 C.3     1  UNL1        0.0084
     26 C          -4.2836   -9.6933   29.0310 C.3     1  UNL1        0.0637
     27 C          -9.0014  -13.3369   29.0894 C.ar    1  UNL1        0.0218
     28 C          -9.4557  -14.4090   28.3079 C.ar    1  UNL1        0.0013
     29 C          -8.5863  -15.0873   27.4508 C.ar    1  UNL1       -0.0042
     30 C          -7.2296  -14.7065   27.3398 C.ar    1  UNL1       -0.0228
     31 C          -6.7836  -13.6318   28.1401 C.ar    1  UNL1       -0.0042
     32 C          -7.6537  -12.9598   29.0021 C.ar    1  UNL1        0.0013
     33 C          -6.2429  -15.4058   26.3823 C.3     1  UNL1        0.0189
     34 C          -5.7468  -16.7195   27.0244 C.3     1  UNL1        0.0044
     35 C          -4.9989  -14.5443   26.0573 C.3     1  UNL1        0.0044
     36 C          -6.9554  -15.7229   25.0496 C.3     1  UNL1        0.0044
     37 C         -12.7955  -13.3252   33.2165 C.2     1  UNL1        0.4031
     38 O         -12.3991  -13.5910   34.3813 O.2     1  UNL1       -0.2383
     39 O         -13.6495  -14.2227   32.5784 O.3     1  UNL1       -0.4730
     40 H         -14.0482  -14.0292   31.6681 H       1  UNL1        0.2956
@<TRIPOS>BOND
     1    25    26    1
     2    26    18    1
     3    18    19   ar
     4    19    20   ar
     5    20    17    1
     6    17    11    1
     7    11    12    1
     8    12    13    1
     9    13    14    1
    10    14     1    1
    11     1     2   ar
    12     2     3   ar
    13     3     4   ar
    14     4    37    1
    15    37    38    2
    16    37    39    1
    17     4     5   ar
    18     5     6   ar
    19     6     7   ar
    20     7    27    1
    21    27    28   ar
    22    28    29   ar
    23    29    30   ar
    24    30    33    1
    25    33    34    1
    26    33    35    1
    27    33    36    1
    28    30    31   ar
    29    31    32   ar
    30     7     8   ar
    31     8     9   ar
    32    14    15    1
    33    15    16    1
    34    20    21   ar
    35    21    22    1
    36    21    23   ar
    37    23    18   ar
    38    16    11    1
    39     9     1   ar
    40     9     5   ar
    41    32    27   ar
    42    39    40    1
    43    23    24    1
    44     8    10    1
@<TRIPOS>MOLECULE
*****
 40 44 0 0 0
SMALL
GASTEIGER

@<TRIPOS>ATOM
      1 C          -6.5209   -8.5032   30.6358 C.ar    1  UNL1        0.1317
      2 C          -5.1343   -8.2826   30.5873 C.ar    1  UNL1        0.0286
      3 C          -4.2447   -9.1922   31.1843 C.ar    1  UNL1        0.0782
      4 C          -4.7409  -10.3438   31.8268 C.ar    1  UNL1        0.3083
      5 N          -6.0957  -10.5273   31.8402 N.ar    1  UNL1       -0.1220
      6 C          -6.8450  -11.5464   32.3032 C.ar    1  UNL1        0.3137
      7 C          -8.1708  -11.2522   32.0143 C.ar    1  UNL1        0.1320
      8 N          -8.2454  -10.0673   31.3682 N.ar    1  UNL1       -0.2941
      9 C          -6.9643   -9.6619   31.2828 C.ar    1  UNL1        0.3123
     10 H          -9.0502   -9.6072   31.0367 H       1  UNL1        0.1718
     11 N          -9.9945   -6.4463   29.8153 N.3     1  UNL1       -0.2647
     12 C          -9.0800   -6.0422   30.9046 C.3     1  UNL1        0.0941
     13 C          -7.6245   -6.2243   30.4663 C.3     1  UNL1        0.1084
     14 N          -7.4352   -7.5969   29.9911 N.pl3   1  UNL1       -0.2988
     15 C          -8.3483   -8.0739   28.9511 C.3     1  UNL1        0.1084
     16 C          -9.7902   -7.8563   29.4177 C.3     1  UNL1        0.0941
     17 C         -11.4105   -6.1467   30.1287 C.3     1  UNL1        0.1199
     18 C         -12.7945   -9.0129   31.8029 C.ar    1  UNL1        0.1165
     19 N         -12.0874   -8.4900   30.7777 N.ar    1  UNL1       -0.2344
     20 C         -12.0635   -7.1656   31.0349 C.ar    1  UNL1        0.0878
     21 C         -12.7510   -6.9175   32.2105 C.ar    1  UNL1        0.0499
     22 C         -13.0096   -5.5903   32.8508 C.3     1  UNL1        0.0511
     23 N         -13.2163   -8.0844   32.6836 N.ar    1  UNL1       -0.3443
     24 H         -13.7964   -8.2382   33.5384 H       1  UNL1        0.1668
     25 C         -13.2998  -10.8821   33.3595 C.3     1  UNL1        0.0084
     26 C         -13.1466  -10.4647   31.9008 C.3     1  UNL1        0.0637
     27 C          -9.3575  -12.0857   32.3115 C.ar    1  UNL1        0.0218
     28 C         -10.1261  -12.6027   31.2587 C.ar    1  UNL1        0.0013
     29 C         -11.2246  -13.4267   31.5134 C.ar    1  UNL1       -0.0042
     30 C         -11.5856  -13.7699   32.8362 C.ar    1  UNL1       -0.0228
     31 C         -10.8090  -13.2339   33.8869 C.ar    1  UNL1       -0.0042
     32 C          -9.7150  -12.4040   33.6295 C.ar    1  UNL1        0.0013
     33 C         -12.7703  -14.7026   33.1619 C.3     1  UNL1        0.0189
     34 C         -12.4873  -16.1107   32.5950 C.3     1  UNL1        0.0044
     35 C         -14.1098  -14.2154   32.5587 C.3     1  UNL1        0.0044
     36 C         -12.9499  -14.7921   34.6929 C.3     1  UNL1        0.0044
     37 C          -3.8098  -11.2961   32.4764 C.2     1  UNL1        0.4031
     38 O          -3.6952  -12.4691   32.0345 O.2     1  UNL1       -0.2383
     39 O          -3.0635  -10.9252   33.5934 O.3     1  UNL1       -0.4730
     40 H          -3.0691   -9.9785   33.9523 H       1  UNL1        0.2956
@<TRIPOS>BOND
     1    25    26    1
     2    26    18    1
     3    18    19   ar
     4    19    20   ar
     5    20    17    1
     6    17    11    1
     7    11    12    1
     8    12    13    1
     9    13    14    1
    10    14     1    1
    11     1     2   ar
    12     2     3   ar
    13     3     4   ar
    14     4    37    1
    15    37    38    2
    16    37    39    1
    17     4     5   ar
    18     5     6   ar
    19     6     7   ar
    20     7    27    1
    21    27    28   ar
    22    28    29   ar
    23    29    30   ar
    24    30    33    1
    25    33    34    1
    26    33    35    1
    27    33    36    1
    28    30    31   ar
    29    31    32   ar
    30     7     8   ar
    31     8     9   ar
    32    14    15    1
    33    15    16    1
    34    20    21   ar
    35    21    22    1
    36    21    23   ar
    37    23    18   ar
    38    16    11    1
    39     9     1   ar
    40     9     5   ar
    41    32    27   ar
    42    39    40    1
    43    23    24    1
    44     8    10    1
@<TRIPOS>MOLECULE
*****
 40 44 0 0 0
SMALL
GASTEIGER

@<TRIPOS>ATOM
      1 C          -6.2631   -7.6960   30.0679 C.ar    1  UNL1        0.1317
      2 C          -5.1083   -7.4757   29.2989 C.ar    1  UNL1        0.0286
      3 C          -4.3953   -8.5575   28.7543 C.ar    1  UNL1        0.0782
      4 C          -4.8452   -9.8757   28.9666 C.ar    1  UNL1        0.3083
      5 N          -5.9802  -10.0455   29.7098 N.ar    1  UNL1       -0.1220
      6 C          -6.6791  -11.1558   30.0146 C.ar    1  UNL1        0.3137
      7 C          -7.7869  -10.7601   30.7524 C.ar    1  UNL1        0.1320
      8 N          -7.7836   -9.4162   30.8961 N.ar    1  UNL1       -0.2941
      9 C          -6.6709   -9.0223   30.2484 C.ar    1  UNL1        0.3123
     10 H          -8.4424   -8.8552   31.3657 H       1  UNL1        0.1718
     11 N          -9.5034   -5.4206   31.2053 N.3     1  UNL1       -0.2647
     12 C          -8.9852   -6.5243   32.0416 C.3     1  UNL1        0.0941
     13 C          -7.4552   -6.5497   31.9928 C.3     1  UNL1        0.1084
     14 N          -7.0210   -6.5907   30.5944 N.pl3   1  UNL1       -0.2988
     15 C          -7.5463   -5.5554   29.7028 C.3     1  UNL1        0.1084
     16 C          -9.0746   -5.5483   29.7954 C.3     1  UNL1        0.0941
     17 C         -10.9689   -5.2543   31.3376 C.3     1  UNL1        0.1199
     18 C         -12.3116   -8.5879   31.2031 C.ar    1  UNL1        0.1165
     19 N         -11.3576   -7.6998   30.8485 N.ar    1  UNL1       -0.2344
     20 C         -11.7215   -6.5589   31.4704 C.ar    1  UNL1        0.0878
     21 C         -12.8824   -6.7828   32.1903 C.ar    1  UNL1        0.0499
     22 C         -13.6598   -5.7902   32.9955 C.3     1  UNL1        0.0511
     23 N         -13.2531   -8.0604   32.0098 N.ar    1  UNL1       -0.3443
     24 H         -14.0986   -8.5378   32.3947 H       1  UNL1        0.1668
     25 C         -11.4377  -10.1479   29.4783 C.3     1  UNL1        0.0084
     26 C         -12.3624   -9.9899   30.6805 C.3     1  UNL1        0.0637
     27 C          -8.8578  -11.6273   31.2933 C.ar    1  UNL1        0.0218
     28 C          -9.1617  -11.5863   32.6617 C.ar    1  UNL1        0.0013
     29 C         -10.1963  -12.3632   33.1875 C.ar    1  UNL1       -0.0042
     30 C         -10.9708  -13.2032   32.3554 C.ar    1  UNL1       -0.0228
     31 C         -10.6471  -13.2422   30.9813 C.ar    1  UNL1       -0.0042
     32 C          -9.6069  -12.4695   30.4592 C.ar    1  UNL1        0.0013
     33 C         -12.1431  -14.0527   32.8877 C.3     1  UNL1        0.0189
     34 C         -11.9509  -14.3050   34.3989 C.3     1  UNL1        0.0044
     35 C         -12.2578  -15.4313   32.1936 C.3     1  UNL1        0.0044
     36 C         -13.4713  -13.2996   32.6579 C.3     1  UNL1        0.0044
     37 C          -4.0865  -11.0218   28.4130 C.2     1  UNL1        0.4031
     38 O          -2.9867  -11.3581   28.9247 O.2     1  UNL1       -0.2383
     39 O          -4.5578  -11.7326   27.3108 O.3     1  UNL1       -0.4730
     40 H          -5.4639  -11.5461   26.8995 H       1  UNL1        0.2956
@<TRIPOS>BOND
     1    25    26    1
     2    26    18    1
     3    18    19   ar
     4    19    20   ar
     5    20    17    1
     6    17    11    1
     7    11    12    1
     8    12    13    1
     9    13    14    1
    10    14     1    1
    11     1     2   ar
    12     2     3   ar
    13     3     4   ar
    14     4    37    1
    15    37    38    2
    16    37    39    1
    17     4     5   ar
    18     5     6   ar
    19     6     7   ar
    20     7    27    1
    21    27    28   ar
    22    28    29   ar
    23    29    30   ar
    24    30    33    1
    25    33    34    1
    26    33    35    1
    27    33    36    1
    28    30    31   ar
    29    31    32   ar
    30     7     8   ar
    31     8     9   ar
    32    14    15    1
    33    15    16    1
    34    20    21   ar
    35    21    22    1
    36    21    23   ar
    37    23    18   ar
    38    16    11    1
    39     9     1   ar
    40     9     5   ar
    41    32    27   ar
    42    39    40    1
    43    23    24    1
    44     8    10    1
@<TRIPOS>MOLECULE
*****
 40 44 0 0 0
SMALL
GASTEIGER

@<TRIPOS>ATOM
      1 C         -11.5008   -9.8239   31.2629 C.ar    1  UNL1        0.1317
      2 C         -12.3860   -9.7582   32.3518 C.ar    1  UNL1        0.0286
      3 C         -12.7767  -10.9275   33.0266 C.ar    1  UNL1        0.0782
      4 C         -12.2692  -12.1777   32.6208 C.ar    1  UNL1        0.3083
      5 N         -11.4005  -12.1961   31.5651 N.ar    1  UNL1       -0.1220
      6 C         -10.7082  -13.2082   31.0078 C.ar    1  UNL1        0.3137
      7 C          -9.9263  -12.6687   29.9950 C.ar    1  UNL1        0.1320
      8 N         -10.1215  -11.3329   29.9296 N.ar    1  UNL1       -0.2941
      9 C         -11.0226  -11.0877   30.8995 C.ar    1  UNL1        0.3123
     10 H          -9.7019  -10.6883   29.3151 H       1  UNL1        0.1718
     11 N          -8.9947   -6.8703   29.8606 N.3     1  UNL1       -0.2647
     12 C          -9.1207   -8.1802   29.1864 C.3     1  UNL1        0.0941
     13 C         -10.5781   -8.6485   29.2117 C.3     1  UNL1        0.1084
     14 N         -11.0647   -8.6262   30.5932 N.pl3   1  UNL1       -0.2988
     15 C         -10.9156   -7.3715   31.3321 C.3     1  UNL1        0.1084
     16 C          -9.4519   -6.9268   31.2662 C.3     1  UNL1        0.0941
     17 C          -7.6347   -6.2990   29.7309 C.3     1  UNL1        0.1199
     18 C          -5.2469   -7.4641   32.1548 C.ar    1  UNL1        0.1165
     19 N          -6.2045   -6.5835   31.7911 N.ar    1  UNL1       -0.2344
     20 C          -6.5938   -7.0052   30.5698 C.ar    1  UNL1        0.0878
     21 C          -5.8683   -8.1323   30.2245 C.ar    1  UNL1        0.0499
     22 C          -5.9422   -8.9060   28.9462 C.3     1  UNL1        0.0511
     23 N          -5.0157   -8.4100   31.2235 N.ar    1  UNL1       -0.3443
     24 H          -4.3114   -9.1803   31.2631 H       1  UNL1        0.1668
     25 C          -3.3707   -6.2920   33.2853 C.3     1  UNL1        0.0084
     26 C          -4.4636   -7.3463   33.4252 C.3     1  UNL1        0.0637
     27 C          -8.9801  -13.3903   29.1145 C.ar    1  UNL1        0.0218
     28 C          -9.4404  -14.4475   28.3163 C.ar    1  UNL1        0.0013
     29 C          -8.5757  -15.1149   27.4461 C.ar    1  UNL1       -0.0042
     30 C          -7.2177  -14.7379   27.3385 C.ar    1  UNL1       -0.0228
     31 C          -6.7655  -13.6785   28.1556 C.ar    1  UNL1       -0.0042
     32 C          -7.6310  -13.0174   29.0305 C.ar    1  UNL1        0.0013
     33 C          -6.2360  -15.4253   26.3673 C.3     1  UNL1        0.0189
     34 C          -5.0298  -14.4957   26.1116 C.3     1  UNL1        0.0044
     35 C          -6.8713  -15.7563   24.9954 C.3     1  UNL1        0.0044
     36 C          -5.7408  -16.7500   26.9871 C.3     1  UNL1        0.0044
     37 C         -12.6933  -13.4165   33.3145 C.2     1  UNL1        0.4031
     38 O         -12.1866  -13.7241   34.4249 O.2     1  UNL1       -0.2383
     39 O         -13.6372  -14.2716   32.7489 O.3     1  UNL1       -0.4730
     40 H         -14.1221  -14.0429   31.8901 H       1  UNL1        0.2956
@<TRIPOS>BOND
     1    25    26    1
     2    26    18    1
     3    18    19   ar
     4    19    20   ar
     5    20    17    1
     6    17    11    1
     7    11    12    1
     8    12    13    1
     9    13    14    1
    10    14     1    1
    11     1     2   ar
    12     2     3   ar
    13     3     4   ar
    14     4    37    1
    15    37    38    2
    16    37    39    1
    17     4     5   ar
    18     5     6   ar
    19     6     7   ar
    20     7    27    1
    21    27    28   ar
    22    28    29   ar
    23    29    30   ar
    24    30    33    1
    25    33    34    1
    26    33    35    1
    27    33    36    1
    28    30    31   ar
    29    31    32   ar
    30     7     8   ar
    31     8     9   ar
    32    14    15    1
    33    15    16    1
    34    20    21   ar
    35    21    22    1
    36    21    23   ar
    37    23    18   ar
    38    16    11    1
    39     9     1   ar
    40     9     5   ar
    41    32    27   ar
    42    39    40    1
    43    23    24    1
    44     8    10    1
@<TRIPOS>MOLECULE
*****
 40 44 0 0 0
SMALL
GASTEIGER

@<TRIPOS>ATOM
      1 C          -7.5204   -8.9679   29.8340 C.ar    1  UNL1        0.1317
      2 C          -7.3586   -7.6000   29.5579 C.ar    1  UNL1        0.0286
      3 C          -8.4170   -6.6990   29.7659 C.ar    1  UNL1        0.0782
      4 C          -9.6488   -7.1634   30.2682 C.ar    1  UNL1        0.3083
      5 N          -9.7602   -8.4996   30.5359 N.ar    1  UNL1       -0.1220
      6 C         -10.7661   -9.2109   31.0803 C.ar    1  UNL1        0.3137
      7 C         -10.3369  -10.5276   31.1809 C.ar    1  UNL1        0.1320
      8 N          -9.0728  -10.6330   30.7141 N.ar    1  UNL1       -0.2941
      9 C          -8.7610   -9.3798   30.3333 C.ar    1  UNL1        0.3123
     10 H          -8.5103  -11.4394   30.6641 H       1  UNL1        0.1718
     11 N          -5.1009  -11.8194   28.1061 N.3     1  UNL1       -0.2647
     12 C          -5.0299  -10.3924   27.7254 C.3     1  UNL1        0.0941
     13 C          -5.1986   -9.5071   28.9630 C.3     1  UNL1        0.1084
     14 N          -6.4278   -9.8897   29.6619 N.pl3   1  UNL1       -0.2988
     15 C          -6.5813  -11.3018   30.0157 C.3     1  UNL1        0.1084
     16 C          -6.3859  -12.1533   28.7583 C.3     1  UNL1        0.0941
     17 C          -4.7912  -12.7205   26.9726 C.3     1  UNL1        0.1199
     18 C          -7.3290  -15.2571   27.2154 C.ar    1  UNL1        0.1165
     19 N          -6.7187  -14.1655   27.7258 N.ar    1  UNL1       -0.2344
     20 C          -5.7705  -13.8615   26.8151 C.ar    1  UNL1        0.0878
     21 C          -5.8314  -14.7710   25.7734 C.ar    1  UNL1        0.0499
     22 C          -4.9440  -14.8381   24.5708 C.3     1  UNL1        0.0511
     23 N          -6.8092  -15.6523   26.0368 N.ar    1  UNL1       -0.3443
     24 H          -7.0932  -16.4775   25.4630 H       1  UNL1        0.1668
     25 C          -8.9760  -17.1096   27.0481 C.3     1  UNL1        0.0084
     26 C          -8.4133  -16.0010   27.9312 C.3     1  UNL1        0.0637
     27 C         -11.0901  -11.6741   31.7375 C.ar    1  UNL1        0.0218
     28 C         -12.3956  -11.9301   31.2941 C.ar    1  UNL1        0.0013
     29 C         -13.1099  -13.0306   31.7728 C.ar    1  UNL1       -0.0042
     30 C         -12.5346  -13.9208   32.7080 C.ar    1  UNL1       -0.0228
     31 C         -11.2231  -13.6450   33.1534 C.ar    1  UNL1       -0.0042
     32 C         -10.5135  -12.5393   32.6783 C.ar    1  UNL1        0.0013
     33 C         -13.2746  -15.1661   33.2382 C.3     1  UNL1        0.0189
     34 C         -12.7384  -16.4259   32.5242 C.3     1  UNL1        0.0044
     35 C         -14.8033  -15.1095   33.0032 C.3     1  UNL1        0.0044
     36 C         -13.0380  -15.2978   34.7584 C.3     1  UNL1        0.0044
     37 C         -10.7754   -6.2222   30.4700 C.2     1  UNL1        0.4031
     38 O         -10.6832   -5.2993   31.3210 O.2     1  UNL1       -0.2383
     39 O         -11.9588   -6.3493   29.7451 O.3     1  UNL1       -0.4730
     40 H         -12.0642   -7.0326   29.0055 H       1  UNL1        0.2956
@<TRIPOS>BOND
     1    25    26    1
     2    26    18    1
     3    18    19   ar
     4    19    20   ar
     5    20    17    1
     6    17    11    1
     7    11    12    1
     8    12    13    1
     9    13    14    1
    10    14     1    1
    11     1     2   ar
    12     2     3   ar
    13     3     4   ar
    14     4    37    1
    15    37    38    2
    16    37    39    1
    17     4     5   ar
    18     5     6   ar
    19     6     7   ar
    20     7    27    1
    21    27    28   ar
    22    28    29   ar
    23    29    30   ar
    24    30    33    1
    25    33    34    1
    26    33    35    1
    27    33    36    1
    28    30    31   ar
    29    31    32   ar
    30     7     8   ar
    31     8     9   ar
    32    14    15    1
    33    15    16    1
    34    20    21   ar
    35    21    22    1
    36    21    23   ar
    37    23    18   ar
    38    16    11    1
    39     9     1   ar
    40     9     5   ar
    41    32    27   ar
    42    39    40    1
    43    23    24    1
    44     8    10    1
@<TRIPOS>MOLECULE
*****
 40 44 0 0 0
SMALL
GASTEIGER

@<TRIPOS>ATOM
      1 C          -7.5726   -7.5197   30.2710 C.ar    1  UNL1        0.1317
      2 C          -7.5391   -6.1331   30.0480 C.ar    1  UNL1        0.0286
      3 C          -8.6790   -5.3443   30.2798 C.ar    1  UNL1        0.0782
      4 C          -9.8644   -5.9414   30.7525 C.ar    1  UNL1        0.3083
      5 N          -9.8507   -7.2915   30.9687 N.ar    1  UNL1       -0.1220
      6 C         -10.7881   -8.1147   31.4764 C.ar    1  UNL1        0.3137
      7 C         -10.2372   -9.3880   31.5314 C.ar    1  UNL1        0.1320
      8 N          -8.9661   -9.3560   31.0730 N.ar    1  UNL1       -0.2941
      9 C          -8.7717   -8.0653   30.7426 C.ar    1  UNL1        0.3123
     10 H          -8.3297  -10.1033   30.9981 H       1  UNL1        0.1718
     11 N          -5.2207  -10.7428   29.2461 N.3     1  UNL1       -0.2647
     12 C          -5.7317   -9.7900   28.2376 C.3     1  UNL1        0.0941
     13 C          -5.6912   -8.3633   28.7915 C.3     1  UNL1        0.1084
     14 N          -6.3969   -8.3272   30.0746 N.pl3   1  UNL1       -0.2988
     15 C          -5.9729   -9.2868   31.0955 C.3     1  UNL1        0.1084
     16 C          -6.0074  -10.6961   30.4979 C.3     1  UNL1        0.0941
     17 C          -5.0940  -12.1170   28.7090 C.3     1  UNL1        0.1199
     18 C          -8.4447  -13.4167   28.8408 C.ar    1  UNL1        0.1165
     19 N          -7.5300  -12.5074   29.2422 N.ar    1  UNL1       -0.2344
     20 C          -6.4148  -12.8371   28.5577 C.ar    1  UNL1        0.0878
     21 C          -6.6803  -13.9331   27.7550 C.ar    1  UNL1        0.0499
     22 C          -5.7259  -14.6580   26.8596 C.3     1  UNL1        0.0511
     23 N          -7.9580  -14.2982   27.9455 N.ar    1  UNL1       -0.3443
     24 H          -8.4613  -15.1030   27.5096 H       1  UNL1        0.1668
     25 C         -10.5461  -12.1519   29.2362 C.3     1  UNL1        0.0084
     26 C          -9.8310  -13.4886   29.4015 C.3     1  UNL1        0.0637
     27 C         -10.8820  -10.6208   32.0373 C.ar    1  UNL1        0.0218
     28 C         -12.2382  -10.8568   31.7697 C.ar    1  UNL1        0.0013
     29 C         -12.8574  -12.0325   32.1996 C.ar    1  UNL1       -0.0042
     30 C         -12.1335  -13.0198   32.9063 C.ar    1  UNL1       -0.0228
     31 C         -10.7713  -12.7643   33.1776 C.ar    1  UNL1       -0.0042
     32 C         -10.1563  -11.5840   32.7527 C.ar    1  UNL1        0.0013
     33 C         -12.7684  -14.3466   33.3709 C.3     1  UNL1        0.0189
     34 C         -12.5165  -14.5358   34.8825 C.3     1  UNL1        0.0044
     35 C         -12.1915  -15.5837   32.6414 C.3     1  UNL1        0.0044
     36 C         -14.2889  -14.3113   33.1043 C.3     1  UNL1        0.0044
     37 C         -11.0759   -5.1189   30.9789 C.2     1  UNL1        0.4031
     38 O         -11.6680   -5.1581   32.0890 O.2     1  UNL1       -0.2383
     39 O         -11.5948   -4.3081   29.9712 O.3     1  UNL1       -0.4730
     40 H         -11.1250   -4.1903   29.0821 H       1  UNL1        0.2956
@<TRIPOS>BOND
     1    25    26    1
     2    26    18    1
     3    18    19   ar
     4    19    20   ar
     5    20    17    1
     6    17    11    1
     7    11    12    1
     8    12    13    1
     9    13    14    1
    10    14     1    1
    11     1     2   ar
    12     2     3   ar
    13     3     4   ar
    14     4    37    1
    15    37    38    2
    16    37    39    1
    17     4     5   ar
    18     5     6   ar
    19     6     7   ar
    20     7    27    1
    21    27    28   ar
    22    28    29   ar
    23    29    30   ar
    24    30    33    1
    25    33    34    1
    26    33    35    1
    27    33    36    1
    28    30    31   ar
    29    31    32   ar
    30     7     8   ar
    31     8     9   ar
    32    14    15    1
    33    15    16    1
    34    20    21   ar
    35    21    22    1
    36    21    23   ar
    37    23    18   ar
    38    16    11    1
    39     9     1   ar
    40     9     5   ar
    41    32    27   ar
    42    39    40    1
    43    23    24    1
    44     8    10    1
