@<TRIPOS>MOLECULE
*****
 29 31 0 0 0
SMALL
GASTEIGER

@<TRIPOS>ATOM
      1 C          49.9378   10.7435  -24.9375 C.ar    1  UNL1       -0.0131
      2 C          50.6228   10.0578  -23.9007 C.ar    1  UNL1       -0.0024
      3 C          50.0991   10.0020  -22.6033 C.ar    1  UNL1        0.0143
      4 C          48.8867   10.6378  -22.3478 C.ar    1  UNL1        0.0506
      5 C          48.1986   11.2898  -23.3307 C.ar    1  UNL1        0.0026
      6 C          48.6939   11.3707  -24.6394 C.ar    1  UNL1        0.0617
      7 C          46.9494   11.8919  -22.7698 C.3     1  UNL1        0.0502
      8 C          46.9951   11.5046  -21.2720 C.3     1  UNL1        0.1030
      9 N          48.2390   10.7575  -21.0953 N.am    1  UNL1       -0.2566
     10 C          48.7655   10.2967  -19.8440 C.2     1  UNL1        0.2571
     11 O          48.7185    9.0647  -19.5816 O.2     1  UNL1       -0.2719
     12 C          49.3617   11.2555  -18.8282 C.3     1  UNL1        0.1973
     13 C          48.2572   12.2058  -18.3317 C.3     1  UNL1        0.0427
     14 O          49.8468   10.4976  -17.7435 O.3     1  UNL1       -0.3751
     15 H          50.2227   11.1251  -17.0711 H       1  UNL1        0.2110
     16 C          50.5275   12.0646  -19.4448 C.3     1  UNL1        0.2408
     17 O          50.0449   13.3147  -19.9354 O.3     1  UNL1       -0.4724
     18 C          50.1722   13.7579  -21.2598 C.ar    1  UNL1        0.1388
     19 C          49.2145   14.5862  -21.8779 C.ar    1  UNL1        0.0392
     20 C          49.3745   14.9700  -23.2133 C.ar    1  UNL1        0.0327
     21 C          50.4885   14.5389  -23.9390 C.ar    1  UNL1        0.1403
     22 F          50.6388   14.9083  -25.2348 F       1  UNL1       -0.2042
     23 C          51.4488   13.7294  -23.3272 C.ar    1  UNL1        0.0327
     24 C          51.2919   13.3441  -21.9929 C.ar    1  UNL1        0.0392
     25 C          51.9686   11.4372  -26.2539 C.3     1  UNL1        0.0047
     26 C          50.5665   10.8204  -26.3247 C.3     1  UNL1        0.0230
     27 C          50.6027    9.4429  -26.9989 C.3     1  UNL1        0.0047
     28 C          47.9392   12.0992  -25.6320 C.1     1  UNL1        0.0998
     29 N          47.3336   12.6816  -26.4278 N.1     1  UNL1       -0.1909
@<TRIPOS>BOND
     1    25    26    1
     2    26    27    1
     3    26     1    1
     4     1     2   ar
     5     2     3   ar
     6     3     4   ar
     7     4     5   ar
     8     5     6   ar
     9     6    28    1
    10    28    29    3
    11     5     7    1
    12     7     8    1
    13     8     9    1
    14     9    10   am
    15    10    11    2
    16    10    12    1
    17    12    13    1
    18    12    14    1
    19    12    16    1
    20    16    17    1
    21    17    18    1
    22    18    19   ar
    23    19    20   ar
    24    20    21   ar
    25    21    22    1
    26    21    23   ar
    27    23    24   ar
    28     6     1   ar
    29    24    18   ar
    30     9     4    1
    31    14    15    1
@<TRIPOS>MOLECULE
*****
 29 31 0 0 0
SMALL
GASTEIGER

@<TRIPOS>ATOM
      1 C          46.8911   12.0050  -26.2265 C.ar    1  UNL1       -0.0131
      2 C          48.2894   11.7662  -26.1823 C.ar    1  UNL1       -0.0024
      3 C          48.9844   11.7693  -24.9668 C.ar    1  UNL1        0.0143
      4 C          48.2730   12.0145  -23.7949 C.ar    1  UNL1        0.0506
      5 C          46.9248   12.2303  -23.8071 C.ar    1  UNL1        0.0026
      6 C          46.1968   12.2396  -25.0048 C.ar    1  UNL1        0.0617
      7 C          46.4332   12.4852  -22.4175 C.3     1  UNL1        0.0502
      8 C          47.7137   12.3976  -21.5528 C.3     1  UNL1        0.1030
      9 N          48.8049   12.1333  -22.4889 N.am    1  UNL1       -0.2566
     10 C          50.1986   12.0898  -22.1557 C.2     1  UNL1        0.2571
     11 O          50.7827   10.9730  -22.1300 O.2     1  UNL1       -0.2719
     12 C          50.9782   13.3494  -21.8214 C.3     1  UNL1        0.1973
     13 C          50.3252   14.0320  -20.6059 C.3     1  UNL1        0.0427
     14 O          52.2962   12.9738  -21.4925 O.3     1  UNL1       -0.3751
     15 H          52.8029   13.7957  -21.2581 H       1  UNL1        0.2110
     16 C          51.0117   14.3190  -23.0266 C.3     1  UNL1        0.2408
     17 O          50.0417   15.3503  -22.8472 O.3     1  UNL1       -0.4724
     18 C          48.9257   15.5519  -23.6722 C.ar    1  UNL1        0.1388
     19 C          47.6544   15.8809  -23.1615 C.ar    1  UNL1        0.0392
     20 C          46.5677   16.0364  -24.0281 C.ar    1  UNL1        0.0327
     21 C          46.7391   15.8724  -25.4055 C.ar    1  UNL1        0.1403
     22 F          45.6831   16.0188  -26.2430 F       1  UNL1       -0.2042
     23 C          48.0003   15.5604  -25.9190 C.ar    1  UNL1        0.0327
     24 C          49.0884   15.4044  -25.0558 C.ar    1  UNL1        0.0392
     25 C          46.3376   13.4141  -28.2380 C.3     1  UNL1        0.0047
     26 C          46.1813   12.0400  -27.5757 C.3     1  UNL1        0.0230
     27 C          46.6815   10.9219  -28.4993 C.3     1  UNL1        0.0047
     28 C          44.7775   12.5035  -24.9619 C.1     1  UNL1        0.0998
     29 N          43.6401   12.7134  -24.9267 N.1     1  UNL1       -0.1909
@<TRIPOS>BOND
     1    25    26    1
     2    26    27    1
     3    26     1    1
     4     1     2   ar
     5     2     3   ar
     6     3     4   ar
     7     4     5   ar
     8     5     6   ar
     9     6    28    1
    10    28    29    3
    11     5     7    1
    12     7     8    1
    13     8     9    1
    14     9    10   am
    15    10    11    2
    16    10    12    1
    17    12    13    1
    18    12    14    1
    19    12    16    1
    20    16    17    1
    21    17    18    1
    22    18    19   ar
    23    19    20   ar
    24    20    21   ar
    25    21    22    1
    26    21    23   ar
    27    23    24   ar
    28     6     1   ar
    29    24    18   ar
    30     9     4    1
    31    14    15    1
@<TRIPOS>MOLECULE
*****
 29 31 0 0 0
SMALL
GASTEIGER

@<TRIPOS>ATOM
      1 C          47.9571   16.5702  -24.1585 C.ar    1  UNL1       -0.0131
      2 C          48.0663   16.0066  -22.8605 C.ar    1  UNL1       -0.0024
      3 C          48.8724   14.8861  -22.6254 C.ar    1  UNL1        0.0143
      4 C          49.5678   14.3308  -23.6967 C.ar    1  UNL1        0.0506
      5 C          49.4941   14.8633  -24.9519 C.ar    1  UNL1        0.0026
      6 C          48.6939   15.9809  -25.2260 C.ar    1  UNL1        0.0617
      7 C          50.3212   14.0558  -25.9014 C.3     1  UNL1        0.0502
      8 C          50.9070   12.9314  -25.0138 C.3     1  UNL1        0.1030
      9 N          50.3659   13.1624  -23.6757 N.am    1  UNL1       -0.2566
     10 C          50.5400   12.2992  -22.5443 C.2     1  UNL1        0.2571
     11 O          51.3117   12.6621  -21.6161 O.2     1  UNL1       -0.2719
     12 C          49.8308   10.9599  -22.4467 C.3     1  UNL1        0.1973
     13 C          50.2465   10.0873  -23.6448 C.3     1  UNL1        0.0427
     14 O          50.2389   10.3349  -21.2512 O.3     1  UNL1       -0.3751
     15 H          49.7878    9.4515  -21.1942 H       1  UNL1        0.2110
     16 C          48.2948   11.1441  -22.4254 C.3     1  UNL1        0.2408
     17 O          47.7646   10.9532  -23.7364 O.3     1  UNL1       -0.4724
     18 C          47.0907   11.9343  -24.4781 C.ar    1  UNL1        0.1388
     19 C          47.2745   12.0959  -25.8657 C.ar    1  UNL1        0.0392
     20 C          46.6025   13.1142  -26.5496 C.ar    1  UNL1        0.0327
     21 C          45.7406   13.9723  -25.8610 C.ar    1  UNL1        0.1403
     22 F          45.0943   14.9616  -26.5253 F       1  UNL1       -0.2042
     23 C          45.5432   13.8078  -24.4877 C.ar    1  UNL1        0.0327
     24 C          46.2131   12.7913  -23.8013 C.ar    1  UNL1        0.0392
     25 C          46.1419   17.9960  -23.1534 C.3     1  UNL1        0.0047
     26 C          47.0312   17.7614  -24.3804 C.3     1  UNL1        0.0230
     27 C          47.8232   19.0256  -24.7381 C.3     1  UNL1        0.0047
     28 C          48.6295   16.4838  -26.5783 C.1     1  UNL1        0.0998
     29 N          48.5781   16.8851  -27.6624 N.1     1  UNL1       -0.1909
@<TRIPOS>BOND
     1    25    26    1
     2    26    27    1
     3    26     1    1
     4     1     2   ar
     5     2     3   ar
     6     3     4   ar
     7     4     5   ar
     8     5     6   ar
     9     6    28    1
    10    28    29    3
    11     5     7    1
    12     7     8    1
    13     8     9    1
    14     9    10   am
    15    10    11    2
    16    10    12    1
    17    12    13    1
    18    12    14    1
    19    12    16    1
    20    16    17    1
    21    17    18    1
    22    18    19   ar
    23    19    20   ar
    24    20    21   ar
    25    21    22    1
    26    21    23   ar
    27    23    24   ar
    28     6     1   ar
    29    24    18   ar
    30     9     4    1
    31    14    15    1
@<TRIPOS>MOLECULE
*****
 29 31 0 0 0
SMALL
GASTEIGER

@<TRIPOS>ATOM
      1 C          49.9407   11.9663  -24.9947 C.ar    1  UNL1       -0.0131
      2 C          50.7328   12.8635  -25.7576 C.ar    1  UNL1       -0.0024
      3 C          50.6084   14.2492  -25.6003 C.ar    1  UNL1        0.0143
      4 C          49.6855   14.7333  -24.6764 C.ar    1  UNL1        0.0506
      5 C          48.9232   13.8923  -23.9173 C.ar    1  UNL1        0.0026
      6 C          49.0167   12.5002  -24.0508 C.ar    1  UNL1        0.0617
      7 C          48.0121   14.6831  -23.0330 C.3     1  UNL1        0.0502
      8 C          48.3407   16.1533  -23.3874 C.3     1  UNL1        0.1030
      9 N          49.3624   16.0890  -24.4307 N.am    1  UNL1       -0.2566
     10 C          49.8896   17.2094  -25.1533 C.2     1  UNL1        0.2571
     11 O          51.0614   17.5989  -24.9003 O.2     1  UNL1       -0.2719
     12 C          49.0677   17.9415  -26.1997 C.3     1  UNL1        0.1973
     13 C          47.9854   18.7749  -25.4900 C.3     1  UNL1        0.0427
     14 O          49.9290   18.8029  -26.9085 O.3     1  UNL1       -0.3751
     15 H          49.3894   19.2942  -27.5828 H       1  UNL1        0.2110
     16 C          48.4153   16.9476  -27.1897 C.3     1  UNL1        0.2408
     17 O          47.1055   16.6034  -26.7398 O.3     1  UNL1       -0.4724
     18 C          46.6439   15.2932  -26.5466 C.ar    1  UNL1        0.1388
     19 C          45.6308   14.9747  -25.6207 C.ar    1  UNL1        0.0392
     20 C          45.2333   13.6455  -25.4437 C.ar    1  UNL1        0.0327
     21 C          45.8347   12.6276  -26.1892 C.ar    1  UNL1        0.1403
     22 F          45.4510   11.3394  -26.0122 F       1  UNL1       -0.2042
     23 C          46.8296   12.9390  -27.1192 C.ar    1  UNL1        0.0327
     24 C          47.2292   14.2662  -27.2985 C.ar    1  UNL1        0.0392
     25 C          50.1812   10.1578  -26.7295 C.3     1  UNL1        0.0047
     26 C          50.0738   10.4657  -25.2312 C.3     1  UNL1        0.0230
     27 C          51.2653    9.8822  -24.4608 C.3     1  UNL1        0.0047
     28 C          48.1643   11.6586  -23.2441 C.1     1  UNL1        0.0998
     29 N          47.4816   10.9830  -22.5987 N.1     1  UNL1       -0.1909
@<TRIPOS>BOND
     1    25    26    1
     2    26    27    1
     3    26     1    1
     4     1     2   ar
     5     2     3   ar
     6     3     4   ar
     7     4     5   ar
     8     5     6   ar
     9     6    28    1
    10    28    29    3
    11     5     7    1
    12     7     8    1
    13     8     9    1
    14     9    10   am
    15    10    11    2
    16    10    12    1
    17    12    13    1
    18    12    14    1
    19    12    16    1
    20    16    17    1
    21    17    18    1
    22    18    19   ar
    23    19    20   ar
    24    20    21   ar
    25    21    22    1
    26    21    23   ar
    27    23    24   ar
    28     6     1   ar
    29    24    18   ar
    30     9     4    1
    31    14    15    1
@<TRIPOS>MOLECULE
*****
 29 31 0 0 0
SMALL
GASTEIGER

@<TRIPOS>ATOM
      1 C          50.5359   14.0209  -23.9543 C.ar    1  UNL1       -0.0131
      2 C          50.5993   14.2162  -25.3586 C.ar    1  UNL1       -0.0024
      3 C          49.6831   15.0478  -26.0140 C.ar    1  UNL1        0.0143
      4 C          48.7012   15.6820  -25.2570 C.ar    1  UNL1        0.0506
      5 C          48.6279   15.5250  -23.9025 C.ar    1  UNL1        0.0026
      6 C          49.5244   14.6970  -23.2131 C.ar    1  UNL1        0.0617
      7 C          47.4710   16.3011  -23.3577 C.3     1  UNL1        0.0502
      8 C          46.8422   16.9531  -24.6126 C.3     1  UNL1        0.1030
      9 N          47.6479   16.4930  -25.7422 N.am    1  UNL1       -0.2566
     10 C          47.3680   16.7461  -27.1253 C.2     1  UNL1        0.2571
     11 O          48.0891   17.5695  -27.7505 O.2     1  UNL1       -0.2719
     12 C          46.2206   16.0594  -27.8453 C.3     1  UNL1        0.1973
     13 C          44.8955   16.4745  -27.1808 C.3     1  UNL1        0.0427
     14 O          46.2247   16.4916  -29.1867 O.3     1  UNL1       -0.3751
     15 H          45.4647   16.0552  -29.6549 H       1  UNL1        0.2110
     16 C          46.3808   14.5210  -27.8063 C.3     1  UNL1        0.2408
     17 O          45.6271   13.9817  -26.7212 O.3     1  UNL1       -0.4724
     18 C          46.1661   13.2273  -25.6690 C.ar    1  UNL1        0.1388
     19 C          45.6294   13.2504  -24.3665 C.ar    1  UNL1        0.0392
     20 C          46.2285   12.5046  -23.3462 C.ar    1  UNL1        0.0327
     21 C          47.3589   11.7278  -23.6154 C.ar    1  UNL1        0.1403
     22 F          47.9407   11.0096  -22.6237 F       1  UNL1       -0.2042
     23 C          47.8869   11.6895  -24.9083 C.ar    1  UNL1        0.0327
     24 C          47.2906   12.4336  -25.9301 C.ar    1  UNL1        0.0392
     25 C          52.1148   12.0924  -24.3098 C.3     1  UNL1        0.0047
     26 C          51.5234   13.0697  -23.2868 C.3     1  UNL1        0.0230
     27 C          52.6303   13.8379  -22.5533 C.3     1  UNL1        0.0047
     28 C          49.3817   14.5437  -21.7842 C.1     1  UNL1        0.0998
     29 N          49.2690   14.4210  -20.6390 N.1     1  UNL1       -0.1909
@<TRIPOS>BOND
     1    25    26    1
     2    26    27    1
     3    26     1    1
     4     1     2   ar
     5     2     3   ar
     6     3     4   ar
     7     4     5   ar
     8     5     6   ar
     9     6    28    1
    10    28    29    3
    11     5     7    1
    12     7     8    1
    13     8     9    1
    14     9    10   am
    15    10    11    2
    16    10    12    1
    17    12    13    1
    18    12    14    1
    19    12    16    1
    20    16    17    1
    21    17    18    1
    22    18    19   ar
    23    19    20   ar
    24    20    21   ar
    25    21    22    1
    26    21    23   ar
    27    23    24   ar
    28     6     1   ar
    29    24    18   ar
    30     9     4    1
    31    14    15    1
@<TRIPOS>MOLECULE
*****
 29 31 0 0 0
SMALL
GASTEIGER

@<TRIPOS>ATOM
      1 C          46.6450   13.3180  -23.3648 C.ar    1  UNL1       -0.0131
      2 C          47.3770   14.4055  -22.8211 C.ar    1  UNL1       -0.0024
      3 C          47.5116   15.6088  -23.5242 C.ar    1  UNL1        0.0143
      4 C          46.9110   15.7180  -24.7760 C.ar    1  UNL1        0.0506
      5 C          46.1868   14.6936  -25.3151 C.ar    1  UNL1        0.0026
      6 C          46.0348   13.4731  -24.6429 C.ar    1  UNL1        0.0617
      7 C          45.6790   15.0802  -26.6679 C.3     1  UNL1        0.0502
      8 C          46.2245   16.5145  -26.8691 C.3     1  UNL1        0.1030
      9 N          46.9972   16.8155  -25.6653 N.am    1  UNL1       -0.2566
     10 C          47.7884   17.9921  -25.4535 C.2     1  UNL1        0.2571
     11 O          47.3706   18.8689  -24.6500 O.2     1  UNL1       -0.2719
     12 C          49.1030   18.2108  -26.1819 C.3     1  UNL1        0.1973
     13 C          48.8994   19.2842  -27.2664 C.3     1  UNL1        0.0427
     14 O          50.0512   18.6688  -25.2451 O.3     1  UNL1       -0.3751
     15 H          50.9073   18.8274  -25.7236 H       1  UNL1        0.2110
     16 C          49.6115   16.8956  -26.8185 C.3     1  UNL1        0.2408
     17 O          50.7574   16.4247  -26.1103 O.3     1  UNL1       -0.4724
     18 C          50.7498   15.3697  -25.1862 C.ar    1  UNL1        0.1388
     19 C          50.4395   14.0445  -25.5505 C.ar    1  UNL1        0.0392
     20 C          50.4128   13.0371  -24.5806 C.ar    1  UNL1        0.0327
     21 C          50.7000   13.3391  -23.2465 C.ar    1  UNL1        0.1403
     22 F          50.6686   12.3618  -22.3075 F       1  UNL1       -0.2042
     23 C          51.0225   14.6486  -22.8818 C.ar    1  UNL1        0.0327
     24 C          51.0501   15.6576  -23.8485 C.ar    1  UNL1        0.0392
     25 C          47.7075   11.0679  -22.9821 C.3     1  UNL1        0.0047
     26 C          46.5631   12.0089  -22.5869 C.3     1  UNL1        0.0230
     27 C          46.5512   12.2584  -21.0732 C.3     1  UNL1        0.0047
     28 C          45.2838   12.4129  -25.2735 C.1     1  UNL1        0.0998
     29 N          44.6814   11.5645  -25.7800 N.1     1  UNL1       -0.1909
@<TRIPOS>BOND
     1    25    26    1
     2    26    27    1
     3    26     1    1
     4     1     2   ar
     5     2     3   ar
     6     3     4   ar
     7     4     5   ar
     8     5     6   ar
     9     6    28    1
    10    28    29    3
    11     5     7    1
    12     7     8    1
    13     8     9    1
    14     9    10   am
    15    10    11    2
    16    10    12    1
    17    12    13    1
    18    12    14    1
    19    12    16    1
    20    16    17    1
    21    17    18    1
    22    18    19   ar
    23    19    20   ar
    24    20    21   ar
    25    21    22    1
    26    21    23   ar
    27    23    24   ar
    28     6     1   ar
    29    24    18   ar
    30     9     4    1
    31    14    15    1
@<TRIPOS>MOLECULE
*****
 29 31 0 0 0
SMALL
GASTEIGER

@<TRIPOS>ATOM
      1 C          48.8185   16.8225  -26.4924 C.ar    1  UNL1       -0.0131
      2 C          50.0788   16.3779  -26.0151 C.ar    1  UNL1       -0.0024
      3 C          50.3170   15.0218  -25.7602 C.ar    1  UNL1        0.0143
      4 C          49.2862   14.1123  -25.9838 C.ar    1  UNL1        0.0506
      5 C          48.0696   14.5109  -26.4589 C.ar    1  UNL1        0.0026
      6 C          47.7933   15.8599  -26.7206 C.ar    1  UNL1        0.0617
      7 C          47.1558   13.3331  -26.5821 C.3     1  UNL1        0.0502
      8 C          48.0187   12.1455  -26.0919 C.3     1  UNL1        0.1030
      9 N          49.3077   12.7231  -25.7155 N.am    1  UNL1       -0.2566
     10 C          50.3887   12.0171  -25.0923 C.2     1  UNL1        0.2571
     11 O          51.4134   11.7487  -25.7757 O.2     1  UNL1       -0.2719
     12 C          50.3213   11.5760  -23.6406 C.3     1  UNL1        0.1973
     13 C          49.0120   10.7981  -23.4164 C.3     1  UNL1        0.0427
     14 O          51.4172   10.7258  -23.3904 O.3     1  UNL1       -0.3751
     15 H          51.3652   10.4239  -22.4453 H       1  UNL1        0.2110
     16 C          50.3926   12.7916  -22.6862 C.3     1  UNL1        0.2408
     17 O          49.0867   13.1099  -22.2070 O.3     1  UNL1       -0.4724
     18 C          48.3549   14.2487  -22.5738 C.ar    1  UNL1        0.1388
     19 C          48.8742   15.5534  -22.4596 C.ar    1  UNL1        0.0392
     20 C          48.0871   16.6560  -22.8076 C.ar    1  UNL1        0.0327
     21 C          46.7839   16.4683  -23.2764 C.ar    1  UNL1        0.1403
     22 F          46.0213   17.5388  -23.6084 F       1  UNL1       -0.2042
     23 C          46.2686   15.1762  -23.4056 C.ar    1  UNL1        0.0327
     24 C          47.0524   14.0723  -23.0587 C.ar    1  UNL1        0.0392
     25 C          48.2214   19.0077  -25.3940 C.3     1  UNL1        0.0047
     26 C          48.5862   18.3137  -26.7118 C.3     1  UNL1        0.0230
     27 C          49.8036   18.9783  -27.3672 C.3     1  UNL1        0.0047
     28 C          46.4793   16.2287  -27.1929 C.1     1  UNL1        0.0998
     29 N          45.4271   16.5246  -27.5729 N.1     1  UNL1       -0.1909
@<TRIPOS>BOND
     1    25    26    1
     2    26    27    1
     3    26     1    1
     4     1     2   ar
     5     2     3   ar
     6     3     4   ar
     7     4     5   ar
     8     5     6   ar
     9     6    28    1
    10    28    29    3
    11     5     7    1
    12     7     8    1
    13     8     9    1
    14     9    10   am
    15    10    11    2
    16    10    12    1
    17    12    13    1
    18    12    14    1
    19    12    16    1
    20    16    17    1
    21    17    18    1
    22    18    19   ar
    23    19    20   ar
    24    20    21   ar
    25    21    22    1
    26    21    23   ar
    27    23    24   ar
    28     6     1   ar
    29    24    18   ar
    30     9     4    1
    31    14    15    1
@<TRIPOS>MOLECULE
*****
 29 31 0 0 0
SMALL
GASTEIGER

@<TRIPOS>ATOM
      1 C          49.1149   11.9513  -22.9523 C.ar    1  UNL1       -0.0131
      2 C          50.2186   12.4083  -23.7185 C.ar    1  UNL1       -0.0024
      3 C          50.3116   13.7450  -24.1250 C.ar    1  UNL1        0.0143
      4 C          49.2928   14.6224  -23.7622 C.ar    1  UNL1        0.0506
      5 C          48.2283   14.2132  -23.0112 C.ar    1  UNL1        0.0026
      6 C          48.0991   12.8824  -22.5905 C.ar    1  UNL1        0.0617
      7 C          47.2858   15.3539  -22.7922 C.3     1  UNL1        0.0502
      8 C          47.9511   16.5304  -23.5462 C.3     1  UNL1        0.1030
      9 N          49.1692   15.9810  -24.1388 N.am    1  UNL1       -0.2566
     10 C          50.0511   16.6762  -25.0300 C.2     1  UNL1        0.2571
     11 O          51.1751   17.0529  -24.6016 O.2     1  UNL1       -0.2719
     12 C          49.6578   16.9794  -26.4652 C.3     1  UNL1        0.1973
     13 C          49.9399   18.4645  -26.7562 C.3     1  UNL1        0.0427
     14 O          50.4493   16.1798  -27.3140 O.3     1  UNL1       -0.3751
     15 H          50.2040   16.3890  -28.2538 H       1  UNL1        0.2110
     16 C          48.1644   16.6593  -26.7121 C.3     1  UNL1        0.2408
     17 O          48.0209   15.3012  -27.1259 O.3     1  UNL1       -0.4724
     18 C          47.1493   14.3730  -26.5380 C.ar    1  UNL1        0.1388
     19 C          47.4509   12.9995  -26.4498 C.ar    1  UNL1        0.0392
     20 C          46.5292   12.1125  -25.8843 C.ar    1  UNL1        0.0327
     21 C          45.3071   12.5854  -25.3981 C.ar    1  UNL1        0.1403
     22 F          44.4133   11.7230  -24.8548 F       1  UNL1       -0.2042
     23 C          45.0085   13.9483  -25.4696 C.ar    1  UNL1        0.0327
     24 C          45.9274   14.8374  -26.0341 C.ar    1  UNL1        0.0392
     25 C          49.7317    9.6025  -23.6161 C.3     1  UNL1        0.0047
     26 C          49.0290   10.4773  -22.5710 C.3     1  UNL1        0.0230
     27 C          49.6000   10.2287  -21.1690 C.3     1  UNL1        0.0047
     28 C          46.9371   12.4980  -21.8240 C.1     1  UNL1        0.0998
     29 N          46.0053   12.1892  -21.2111 N.1     1  UNL1       -0.1909
@<TRIPOS>BOND
     1    25    26    1
     2    26    27    1
     3    26     1    1
     4     1     2   ar
     5     2     3   ar
     6     3     4   ar
     7     4     5   ar
     8     5     6   ar
     9     6    28    1
    10    28    29    3
    11     5     7    1
    12     7     8    1
    13     8     9    1
    14     9    10   am
    15    10    11    2
    16    10    12    1
    17    12    13    1
    18    12    14    1
    19    12    16    1
    20    16    17    1
    21    17    18    1
    22    18    19   ar
    23    19    20   ar
    24    20    21   ar
    25    21    22    1
    26    21    23   ar
    27    23    24   ar
    28     6     1   ar
    29    24    18   ar
    30     9     4    1
    31    14    15    1
@<TRIPOS>MOLECULE
*****
 29 31 0 0 0
SMALL
GASTEIGER

@<TRIPOS>ATOM
      1 C          46.5395   12.9601  -23.9297 C.ar    1  UNL1       -0.0131
      2 C          46.2354   12.0293  -22.9025 C.ar    1  UNL1       -0.0024
      3 C          46.8979   12.0724  -21.6697 C.ar    1  UNL1        0.0143
      4 C          47.8684   13.0512  -21.4704 C.ar    1  UNL1        0.0506
      5 C          48.1685   13.9695  -22.4354 C.ar    1  UNL1        0.0026
      6 C          47.5297   13.9542  -23.6830 C.ar    1  UNL1        0.0617
      7 C          49.2551   14.8797  -21.9577 C.3     1  UNL1        0.0502
      8 C          49.5759   14.3553  -20.5374 C.3     1  UNL1        0.1030
      9 N          48.6936   13.2082  -20.3316 N.am    1  UNL1       -0.2566
     10 C          48.7184   12.3282  -19.2000 C.2     1  UNL1        0.2571
     11 O          47.7893   12.4032  -18.3514 O.2     1  UNL1       -0.2719
     12 C          49.8394   11.3244  -18.9949 C.3     1  UNL1        0.1973
     13 C          51.1726   12.0841  -18.8726 C.3     1  UNL1        0.0427
     14 O          49.5885   10.6273  -17.7959 O.3     1  UNL1       -0.3751
     15 H          50.3297    9.9813  -17.6526 H       1  UNL1        0.2110
     16 C          49.9031   10.3152  -20.1659 C.3     1  UNL1        0.2408
     17 O          50.4169   10.9567  -21.3324 O.3     1  UNL1       -0.4724
     18 C          50.3283   10.4418  -22.6339 C.ar    1  UNL1        0.1388
     19 C          50.2943    9.0590  -22.9019 C.ar    1  UNL1        0.0392
     20 C          50.2407    8.6002  -24.2221 C.ar    1  UNL1        0.0327
     21 C          50.2142    9.5115  -25.2815 C.ar    1  UNL1        0.1403
     22 F          50.1673    9.0642  -26.5604 F       1  UNL1       -0.2042
     23 C          50.2331   10.8840  -25.0214 C.ar    1  UNL1        0.0327
     24 C          50.2866   11.3458  -23.7034 C.ar    1  UNL1        0.0392
     25 C          46.5982   11.9209  -26.2221 C.3     1  UNL1        0.0047
     26 C          45.8283   12.8481  -25.2741 C.3     1  UNL1        0.0230
     27 C          44.3776   12.3799  -25.1013 C.3     1  UNL1        0.0047
     28 C          47.9081   14.9304  -24.6777 C.1     1  UNL1        0.0998
     29 N          48.2130   15.7126  -25.4741 N.1     1  UNL1       -0.1909
@<TRIPOS>BOND
     1    25    26    1
     2    26    27    1
     3    26     1    1
     4     1     2   ar
     5     2     3   ar
     6     3     4   ar
     7     4     5   ar
     8     5     6   ar
     9     6    28    1
    10    28    29    3
    11     5     7    1
    12     7     8    1
    13     8     9    1
    14     9    10   am
    15    10    11    2
    16    10    12    1
    17    12    13    1
    18    12    14    1
    19    12    16    1
    20    16    17    1
    21    17    18    1
    22    18    19   ar
    23    19    20   ar
    24    20    21   ar
    25    21    22    1
    26    21    23   ar
    27    23    24   ar
    28     6     1   ar
    29    24    18   ar
    30     9     4    1
    31    14    15    1
