@<TRIPOS>MOLECULE
*****
 45 50 0 0 0
SMALL
GASTEIGER

@<TRIPOS>ATOM
      1 C          61.0317   87.7111    9.0458 C.ar    1  UNL1        0.0702
      2 C          60.2232   87.8105   10.1848 C.ar    1  UNL1        0.0191
      3 C          60.3358   86.8723   11.2117 C.ar    1  UNL1        0.0356
      4 C          61.2701   85.8323   11.0986 C.ar    1  UNL1        0.1318
      5 N          62.0713   85.7737    9.9985 N.ar    1  UNL1       -0.2279
      6 C          61.9775   86.6743    8.9847 C.ar    1  UNL1        0.1149
      7 N          61.4199   84.8574   12.1473 N.pl3   1  UNL1       -0.2932
      8 C          62.6563   84.8055   12.9405 C.3     1  UNL1        0.0923
      9 C          62.9937   83.3562   13.3016 C.3     1  UNL1        0.0252
     10 C          61.7893   82.6675   13.9727 C.3     1  UNL1        0.0472
     11 C          60.5562   82.7387   13.0532 C.3     1  UNL1        0.0252
     12 C          60.2299   84.1911   12.6919 C.3     1  UNL1        0.0923
     13 C          62.1313   81.2227   14.3902 C.3     1  UNL1        0.2054
     14 O          62.5299   80.4191   13.2754 O.3     1  UNL1       -0.4755
     15 C          61.7279   80.0284   12.1891 C.ar    1  UNL1        0.1388
     16 C          62.1881   80.3278   10.9026 C.ar    1  UNL1        0.0369
     17 C          61.4353   79.9816    9.7803 C.ar    1  UNL1        0.0033
     18 C          60.2149   79.3220    9.9308 C.ar    1  UNL1        0.0066
     19 C          59.7374   78.9908   11.2106 C.ar    1  UNL1        0.0785
     20 C          60.4984   79.3531   12.3384 C.ar    1  UNL1        0.0433
     21 C          58.4368   78.2918   11.3548 C.2     1  UNL1        0.3381
     22 O          58.2690   77.4729   12.2974 O.2     1  UNL1       -0.2451
     23 O          57.3760   78.5257   10.4805 O.3     1  UNL1       -0.4771
     24 H          57.4029   79.2456    9.7702 H       1  UNL1        0.2954
     25 C          59.8450   88.7427    7.0581 C.2     1  UNL1        0.2839
     26 O          58.7231   88.2518    7.3565 O.2     1  UNL1       -0.2665
     27 N          60.9223   88.6979    8.0055 N.am    1  UNL1       -0.2766
     28 H          61.6038   89.4894    8.0052 H       1  UNL1        0.1553
     29 C          57.5080   89.9966    5.2064 C.3     1  UNL1        0.0345
     30 C          58.9856   89.9656    4.9557 C.ar    1  UNL1        0.0202
     31 C          59.9964   89.4288    5.7629 C.ar    1  UNL1        0.1946
     32 O          61.1761   89.6303    5.2025 O.2     1  UNL1       -0.4492
     33 C          60.9810   90.2501    4.0642 C.ar    1  UNL1        0.1457
     34 C          61.9437   90.6480    3.1431 C.ar    1  UNL1        0.0442
     35 C          61.5162   91.3013    1.9714 C.ar    1  UNL1        0.0376
     36 BR         62.8501   91.7665    0.6731 Br      1  UNL1       -0.0489
     37 C          60.1280   91.5477    1.7529 C.ar    1  UNL1        0.0064
     38 C          59.1824   91.1179    2.7113 C.ar    1  UNL1        0.0033
     39 C          59.6483   90.4751    3.8569 C.ar    1  UNL1        0.0337
     40 C          59.6467   92.2442    0.5409 C.ar    1  UNL1        0.0005
     41 C          60.4653   93.1765   -0.1190 C.ar    1  UNL1        0.0000
     42 C          59.9966   93.8471   -1.2531 C.ar    1  UNL1        0.0000
     43 C          58.7065   93.5996   -1.7301 C.ar    1  UNL1        0.0000
     44 C          57.8813   92.6842   -1.0712 C.ar    1  UNL1        0.0000
     45 C          58.3461   92.0114    0.0631 C.ar    1  UNL1        0.0000
@<TRIPOS>BOND
     1    29    30    1
     2    30    31   ar
     3    31    25    1
     4    25    26    2
     5    25    27   am
     6    27     1    1
     7     1     2   ar
     8     2     3   ar
     9     3     4   ar
    10     4     7    1
    11     7     8    1
    12     8     9    1
    13     9    10    1
    14    10    13    1
    15    13    14    1
    16    14    15    1
    17    15    16   ar
    18    16    17   ar
    19    17    18   ar
    20    18    19   ar
    21    19    21    1
    22    21    22    2
    23    21    23    1
    24    19    20   ar
    25    10    11    1
    26    11    12    1
    27     4     5   ar
    28     5     6   ar
    29    31    32   ar
    30    32    33   ar
    31    33    34   ar
    32    34    35   ar
    33    35    36    1
    34    35    37   ar
    35    37    40    1
    36    40    41   ar
    37    41    42   ar
    38    42    43   ar
    39    43    44   ar
    40    44    45   ar
    41    37    38   ar
    42    38    39   ar
    43    39    30   ar
    44     6     1   ar
    45    39    33   ar
    46    12     7    1
    47    45    40   ar
    48    20    15   ar
    49    27    28    1
    50    23    24    1
