@<TRIPOS>MOLECULE
*****
 60 65 0 0 0
SMALL
GASTEIGER

@<TRIPOS>ATOM
      1 C          60.9299   84.5422   13.9672 C.ar    1  UNL1        0.0503
      2 C          62.3320   84.5128   13.9304 C.ar    1  UNL1        0.0147
      3 C          63.0770   85.6706   14.1661 C.ar    1  UNL1        0.0013
      4 C          62.4332   86.8884   14.4402 C.ar    1  UNL1        0.0001
      5 C          61.0300   86.9213   14.4783 C.ar    1  UNL1        0.0013
      6 C          60.2851   85.7643   14.2352 C.ar    1  UNL1        0.0147
      7 C          63.2225   88.1205   14.6826 C.ar    1  UNL1        0.0001
      8 C          63.0408   88.8616   15.8622 C.ar    1  UNL1        0.0013
      9 C          63.8135   89.9980   16.1128 C.ar    1  UNL1        0.0147
     10 C          64.7732   90.4280   15.1778 C.ar    1  UNL1        0.0503
     11 C          64.9480   89.6920   13.9971 C.ar    1  UNL1        0.0147
     12 C          64.1807   88.5509   13.7496 C.ar    1  UNL1        0.0013
     13 N          65.6393   91.5455   15.4430 N.am    1  UNL1       -0.2826
     14 C          67.0697   91.4837   15.3579 C.2     1  UNL1        0.2442
     15 O          67.6911   90.5068   15.8562 O.2     1  UNL1       -0.2730
     16 H          65.2026   92.4827   15.5940 H       1  UNL1        0.1549
     17 C          67.8419   92.6013   14.7083 C.3     1  UNL1        0.1521
     18 C          68.0086   93.7970   15.6472 C.3     1  UNL1        0.0310
     19 C          67.0326   94.8632   15.1547 C.3     1  UNL1        0.0237
     20 C          66.6701   94.4824   13.7244 C.3     1  UNL1        0.0939
     21 N          67.1166   93.1087   13.5512 N.am    1  UNL1       -0.2714
     22 C          66.8941   92.3237   12.3623 C.2     1  UNL1        0.2482
     23 O          67.4850   91.2160   12.2332 O.2     1  UNL1       -0.2727
     24 C          65.9918   92.8121   11.2519 C.3     1  UNL1        0.1743
     25 C          66.8132   93.2660   10.0630 C.ar    1  UNL1        0.0044
     26 C          66.5248   94.4787    9.4077 C.ar    1  UNL1       -0.0022
     27 C          67.2894   94.8895    8.3118 C.ar    1  UNL1       -0.0003
     28 C          68.3492   94.0992    7.8612 C.ar    1  UNL1       -0.0000
     29 C          68.6483   92.8973    8.5072 C.ar    1  UNL1       -0.0003
     30 C          67.8874   92.4821    9.6043 C.ar    1  UNL1       -0.0022
     31 N          65.0465   91.7625   10.8514 N.am    1  UNL1       -0.2606
     32 C          63.8697   91.4623   11.6121 C.2     1  UNL1        0.4023
     33 O          63.5900   92.1327   12.6440 O.2     1  UNL1       -0.2264
     34 H          65.2585   91.1564   10.0266 H       1  UNL1        0.1535
     35 O          63.0334   90.4226   11.1963 O.3     1  UNL1       -0.4306
     36 C          62.1828   90.5291   10.0609 C.3     1  UNL1        0.2573
     37 C          59.4565   83.1149   12.4363 C.2     1  UNL1        0.2442
     38 O          59.0953   84.0843   11.7169 O.2     1  UNL1       -0.2730
     39 N          60.1996   83.3414   13.6477 N.am    1  UNL1       -0.2826
     40 H          60.1891   82.5838   14.3668 H       1  UNL1        0.1549
     41 C          60.4312   81.1752   10.0028 C.2     1  UNL1        0.2482
     42 O          61.1885   80.3240    9.4591 O.2     1  UNL1       -0.2727
     43 N          60.0181   80.9732   11.3698 N.am    1  UNL1       -0.2714
     44 C          60.5091   79.8535   12.1587 C.3     1  UNL1        0.0939
     45 C          59.8548   79.9874   13.5261 C.3     1  UNL1        0.0237
     46 C          58.6623   80.9145   13.3210 C.3     1  UNL1        0.0310
     47 C          58.9823   81.7307   12.0666 C.3     1  UNL1        0.1521
     48 C          60.0267   82.3988    9.2060 C.3     1  UNL1        0.1743
     49 C          61.1783   83.3571    8.9436 C.ar    1  UNL1        0.0044
     50 C          61.2939   83.9326    7.6646 C.ar    1  UNL1       -0.0022
     51 C          62.3641   84.7779    7.3569 C.ar    1  UNL1       -0.0003
     52 C          63.3336   85.0599    8.3209 C.ar    1  UNL1       -0.0000
     53 C          63.2425   84.4852    9.5897 C.ar    1  UNL1       -0.0003
     54 C          62.1817   83.6283    9.8994 C.ar    1  UNL1       -0.0022
     55 C          58.0333   82.0946    7.6629 C.2     1  UNL1        0.4023
     56 O          57.2606   82.6107    8.5171 O.2     1  UNL1       -0.2264
     57 N          59.4361   81.9839    7.9300 N.am    1  UNL1       -0.2606
     58 H          60.0310   81.4913    7.2252 H       1  UNL1        0.1535
     59 C          57.7222   80.2834    6.0072 C.3     1  UNL1        0.2573
     60 O          57.5302   81.6223    6.4476 O.3     1  UNL1       -0.4306
@<TRIPOS>BOND
     1    59    60    1
     2    60    55    1
     3    55    56    2
     4    55    57   am
     5    57    48    1
     6    48    41    1
     7    41    42    2
     8    41    43   am
     9    43    44    1
    10    44    45    1
    11    45    46    1
    12    46    47    1
    13    47    37    1
    14    37    38    2
    15    37    39   am
    16    39     1    1
    17     1     2   ar
    18     2     3   ar
    19     3     4   ar
    20     4     7    1
    21     7     8   ar
    22     8     9   ar
    23     9    10   ar
    24    10    13    1
    25    13    14   am
    26    14    15    2
    27    14    17    1
    28    17    18    1
    29    18    19    1
    30    19    20    1
    31    20    21    1
    32    21    22   am
    33    22    23    2
    34    22    24    1
    35    24    31    1
    36    31    32   am
    37    32    33    2
    38    32    35    1
    39    35    36    1
    40    24    25    1
    41    25    26   ar
    42    26    27   ar
    43    27    28   ar
    44    28    29   ar
    45    29    30   ar
    46    10    11   ar
    47    11    12   ar
    48     4     5   ar
    49     5     6   ar
    50    48    49    1
    51    49    50   ar
    52    50    51   ar
    53    51    52   ar
    54    52    53   ar
    55    53    54   ar
    56    47    43    1
    57     6     1   ar
    58    54    49   ar
    59    12     7   ar
    60    21    17    1
    61    30    25   ar
    62    57    58    1
    63    39    40    1
    64    13    16    1
    65    31    34    1
@<TRIPOS>MOLECULE
*****
 60 65 0 0 0
SMALL
GASTEIGER

@<TRIPOS>ATOM
      1 C          64.3664   89.3708   14.4924 C.ar    1  UNL1        0.0503
      2 C          64.2312   88.7838   13.2253 C.ar    1  UNL1        0.0147
      3 C          63.4807   87.6183   13.0546 C.ar    1  UNL1        0.0013
      4 C          62.8505   87.0097   14.1525 C.ar    1  UNL1        0.0001
      5 C          62.9833   87.5947   15.4219 C.ar    1  UNL1        0.0013
      6 C          63.7404   88.7566   15.5933 C.ar    1  UNL1        0.0147
      7 C          62.0598   85.7676   13.9744 C.ar    1  UNL1        0.0001
      8 C          60.7649   85.8197   13.4320 C.ar    1  UNL1        0.0013
      9 C          60.0350   84.6471   13.2231 C.ar    1  UNL1        0.0147
     10 C          60.5796   83.3969   13.5704 C.ar    1  UNL1        0.0503
     11 C          61.8690   83.3468   14.1191 C.ar    1  UNL1        0.0147
     12 C          62.6024   84.5188   14.3212 C.ar    1  UNL1        0.0013
     13 N          59.8866   82.1671   13.2932 N.am    1  UNL1       -0.2826
     14 C          58.6176   82.0993   12.6282 C.2     1  UNL1        0.2442
     15 O          57.6914   82.8910   12.9511 O.2     1  UNL1       -0.2730
     16 H          60.3837   81.2677   13.4819 H       1  UNL1        0.1549
     17 C          58.3690   81.0589   11.5684 C.3     1  UNL1        0.1521
     18 C          58.8501   79.6751   12.0072 C.3     1  UNL1        0.0310
     19 C          60.1467   79.4144   11.2438 C.3     1  UNL1        0.0237
     20 C          60.1566   80.3897   10.0731 C.3     1  UNL1        0.0939
     21 N          59.1266   81.3748   10.3649 N.am    1  UNL1       -0.2714
     22 C          58.8546   82.5342    9.5518 C.2     1  UNL1        0.2482
     23 O          57.8200   83.2201    9.7795 O.2     1  UNL1       -0.2727
     24 C          59.7656   82.9295    8.4118 C.3     1  UNL1        0.1743
     25 C          59.7025   84.4247    8.1775 C.ar    1  UNL1        0.0044
     26 C          60.6087   85.0570    7.3047 C.ar    1  UNL1       -0.0022
     27 C          60.5418   86.4374    7.0942 C.ar    1  UNL1       -0.0003
     28 C          59.5705   87.1994    7.7475 C.ar    1  UNL1       -0.0000
     29 C          58.6623   86.5821    8.6109 C.ar    1  UNL1       -0.0003
     30 C          58.7243   85.2017    8.8243 C.ar    1  UNL1       -0.0022
     31 N          61.1466   82.5106    8.6816 N.am    1  UNL1       -0.2606
     32 C          61.9693   83.1683    9.6533 C.2     1  UNL1        0.4023
     33 O          61.5052   84.1174   10.3434 O.2     1  UNL1       -0.2264
     34 H          61.5848   81.7558    8.1064 H       1  UNL1        0.1535
     35 O          63.2892   82.7445    9.8312 O.3     1  UNL1       -0.4306
     36 C          63.9858   82.8997   11.0620 C.3     1  UNL1        0.2573
     37 C          66.6467   90.5294   14.5920 C.2     1  UNL1        0.2442
     38 O          67.2903   89.4622   14.7785 O.2     1  UNL1       -0.2730
     39 N          65.2083   90.5319   14.6357 N.am    1  UNL1       -0.2826
     40 H          64.7343   91.4461   14.8109 H       1  UNL1        0.1549
     41 C          65.9058   93.2102   12.8892 C.2     1  UNL1        0.2482
     42 O          65.3372   94.3225   12.7077 O.2     1  UNL1       -0.2727
     43 N          66.5388   92.9459   14.1580 N.am    1  UNL1       -0.2714
     44 C          66.4761   93.8986   15.2560 C.3     1  UNL1        0.0939
     45 C          67.2495   93.2650   16.4033 C.3     1  UNL1        0.0237
     46 C          68.1119   92.1809   15.7670 C.3     1  UNL1        0.0310
     47 C          67.4189   91.8183   14.4515 C.3     1  UNL1        0.1521
     48 C          65.8571   92.1815   11.7777 C.3     1  UNL1        0.1743
     49 C          64.4595   91.6433   11.5130 C.ar    1  UNL1        0.0044
     50 C          64.1124   91.2981   10.1937 C.ar    1  UNL1       -0.0022
     51 C          62.8237   90.8491    9.8895 C.ar    1  UNL1       -0.0003
     52 C          61.8641   90.7391   10.8973 C.ar    1  UNL1       -0.0000
     53 C          62.1871   91.0921   12.2085 C.ar    1  UNL1       -0.0003
     54 C          63.4703   91.5546   12.5169 C.ar    1  UNL1       -0.0022
     55 C          67.8009   92.7641   10.2513 C.2     1  UNL1        0.4023
     56 O          68.6182   92.2108   11.0382 O.2     1  UNL1       -0.2264
     57 N          66.3991   92.7609   10.5449 N.am    1  UNL1       -0.2606
     58 H          65.7633   93.2863    9.9022 H       1  UNL1        0.1535
     59 C          67.6979   94.6068    8.6045 C.3     1  UNL1        0.2573
     60 O          68.2531   93.3888    9.0859 O.3     1  UNL1       -0.4306
@<TRIPOS>BOND
     1    59    60    1
     2    60    55    1
     3    55    56    2
     4    55    57   am
     5    57    48    1
     6    48    41    1
     7    41    42    2
     8    41    43   am
     9    43    44    1
    10    44    45    1
    11    45    46    1
    12    46    47    1
    13    47    37    1
    14    37    38    2
    15    37    39   am
    16    39     1    1
    17     1     2   ar
    18     2     3   ar
    19     3     4   ar
    20     4     7    1
    21     7     8   ar
    22     8     9   ar
    23     9    10   ar
    24    10    13    1
    25    13    14   am
    26    14    15    2
    27    14    17    1
    28    17    18    1
    29    18    19    1
    30    19    20    1
    31    20    21    1
    32    21    22   am
    33    22    23    2
    34    22    24    1
    35    24    31    1
    36    31    32   am
    37    32    33    2
    38    32    35    1
    39    35    36    1
    40    24    25    1
    41    25    26   ar
    42    26    27   ar
    43    27    28   ar
    44    28    29   ar
    45    29    30   ar
    46    10    11   ar
    47    11    12   ar
    48     4     5   ar
    49     5     6   ar
    50    48    49    1
    51    49    50   ar
    52    50    51   ar
    53    51    52   ar
    54    52    53   ar
    55    53    54   ar
    56    47    43    1
    57     6     1   ar
    58    54    49   ar
    59    12     7   ar
    60    21    17    1
    61    30    25   ar
    62    57    58    1
    63    39    40    1
    64    13    16    1
    65    31    34    1
@<TRIPOS>MOLECULE
*****
 60 65 0 0 0
SMALL
GASTEIGER

@<TRIPOS>ATOM
      1 C          64.5307   89.6049   14.5373 C.ar    1  UNL1        0.0503
      2 C          64.3888   89.0148   13.2724 C.ar    1  UNL1        0.0147
      3 C          63.6193   87.8612   13.1048 C.ar    1  UNL1        0.0013
      4 C          62.9764   87.2680   14.2036 C.ar    1  UNL1        0.0001
      5 C          63.1159   87.8560   15.4709 C.ar    1  UNL1        0.0013
      6 C          63.8919   89.0059   15.6393 C.ar    1  UNL1        0.0147
      7 C          62.1656   86.0384   14.0289 C.ar    1  UNL1        0.0001
      8 C          60.7739   86.1221   13.8566 C.ar    1  UNL1        0.0013
      9 C          60.0136   84.9687   13.6486 C.ar    1  UNL1        0.0147
     10 C          60.6290   83.7034   13.6270 C.ar    1  UNL1        0.0503
     11 C          62.0171   83.6205   13.8070 C.ar    1  UNL1        0.0147
     12 C          62.7790   84.7745   14.0076 C.ar    1  UNL1        0.0013
     13 N          59.8864   82.5065   13.3348 N.am    1  UNL1       -0.2826
     14 C          58.6232   82.4976   12.6557 C.2     1  UNL1        0.2442
     15 O          57.7287   83.3270   12.9733 O.2     1  UNL1       -0.2730
     16 H          60.3420   81.5853   13.5235 H       1  UNL1        0.1549
     17 C          58.3414   81.4750   11.5870 C.3     1  UNL1        0.1521
     18 C          58.9799   80.1237   11.9116 C.3     1  UNL1        0.0310
     19 C          60.1986   79.9997   10.9999 C.3     1  UNL1        0.0237
     20 C          59.9967   81.0100    9.8771 C.3     1  UNL1        0.0939
     21 N          58.9298   81.8935   10.3217 N.am    1  UNL1       -0.2714
     22 C          58.4742   83.0514    9.5929 C.2     1  UNL1        0.2482
     23 O          57.4198   83.6387    9.9617 O.2     1  UNL1       -0.2727
     24 C          59.2151   83.5601    8.3772 C.3     1  UNL1        0.1743
     25 C          60.5487   84.1547    8.7800 C.ar    1  UNL1        0.0044
     26 C          61.6332   84.1689    7.8818 C.ar    1  UNL1       -0.0022
     27 C          62.8598   84.7209    8.2626 C.ar    1  UNL1       -0.0003
     28 C          63.0164   85.2664    9.5389 C.ar    1  UNL1       -0.0000
     29 C          61.9459   85.2632   10.4362 C.ar    1  UNL1       -0.0003
     30 C          60.7167   84.7133   10.0602 C.ar    1  UNL1       -0.0022
     31 N          59.4087   82.4827    7.3986 N.am    1  UNL1       -0.2606
     32 C          58.3440   81.6092    7.0024 C.2     1  UNL1        0.4023
     33 O          57.1808   81.7724    7.4639 O.2     1  UNL1       -0.2264
     34 H          60.3632   82.2861    7.0209 H       1  UNL1        0.1535
     35 O          58.6068   80.5779    6.0966 O.3     1  UNL1       -0.4306
     36 C          57.6566   79.5641    5.7909 C.3     1  UNL1        0.2573
     37 C          66.8214   90.7469   14.5159 C.2     1  UNL1        0.2442
     38 O          67.4688   89.6682   14.5870 O.2     1  UNL1       -0.2730
     39 N          65.3915   90.7524   14.6778 N.am    1  UNL1       -0.2826
     40 H          64.9413   91.6567   14.9438 H       1  UNL1        0.1549
     41 C          66.0648   93.4485   12.8536 C.2     1  UNL1        0.2482
     42 O          65.4932   94.5622   12.6906 O.2     1  UNL1       -0.2727
     43 N          66.7068   93.1687   14.1145 N.am    1  UNL1       -0.2714
     44 C          66.6501   94.1068   15.2253 C.3     1  UNL1        0.0939
     45 C          67.4323   93.4594   16.3589 C.3     1  UNL1        0.0237
     46 C          68.2920   92.3852   15.7025 C.3     1  UNL1        0.0310
     47 C          67.5907   92.0388   14.3872 C.3     1  UNL1        0.1521
     48 C          66.0101   92.4345   11.7290 C.3     1  UNL1        0.1743
     49 C          64.6104   91.9023   11.4626 C.ar    1  UNL1        0.0044
     50 C          63.7260   91.7676   12.5487 C.ar    1  UNL1       -0.0022
     51 C          62.4470   91.2336   12.3652 C.ar    1  UNL1       -0.0003
     52 C          62.0336   90.8263   11.0955 C.ar    1  UNL1       -0.0000
     53 C          62.9039   90.9385   10.0100 C.ar    1  UNL1       -0.0003
     54 C          64.1892   91.4594   10.1896 C.ar    1  UNL1       -0.0022
     55 C          67.9346   92.9410   10.1520 C.2     1  UNL1        0.4023
     56 O          68.7358   92.2920   10.8800 O.2     1  UNL1       -0.2264
     57 N          66.5485   93.0289   10.5019 N.am    1  UNL1       -0.2606
     58 H          65.9313   93.6298    9.9092 H       1  UNL1        0.1535
     59 C          67.7385   94.7231    8.4478 C.3     1  UNL1        0.2573
     60 O          68.3895   93.5841    8.9977 O.3     1  UNL1       -0.4306
@<TRIPOS>BOND
     1    59    60    1
     2    60    55    1
     3    55    56    2
     4    55    57   am
     5    57    48    1
     6    48    41    1
     7    41    42    2
     8    41    43   am
     9    43    44    1
    10    44    45    1
    11    45    46    1
    12    46    47    1
    13    47    37    1
    14    37    38    2
    15    37    39   am
    16    39     1    1
    17     1     2   ar
    18     2     3   ar
    19     3     4   ar
    20     4     7    1
    21     7     8   ar
    22     8     9   ar
    23     9    10   ar
    24    10    13    1
    25    13    14   am
    26    14    15    2
    27    14    17    1
    28    17    18    1
    29    18    19    1
    30    19    20    1
    31    20    21    1
    32    21    22   am
    33    22    23    2
    34    22    24    1
    35    24    31    1
    36    31    32   am
    37    32    33    2
    38    32    35    1
    39    35    36    1
    40    24    25    1
    41    25    26   ar
    42    26    27   ar
    43    27    28   ar
    44    28    29   ar
    45    29    30   ar
    46    10    11   ar
    47    11    12   ar
    48     4     5   ar
    49     5     6   ar
    50    48    49    1
    51    49    50   ar
    52    50    51   ar
    53    51    52   ar
    54    52    53   ar
    55    53    54   ar
    56    47    43    1
    57     6     1   ar
    58    54    49   ar
    59    12     7   ar
    60    21    17    1
    61    30    25   ar
    62    57    58    1
    63    39    40    1
    64    13    16    1
    65    31    34    1
@<TRIPOS>MOLECULE
*****
 60 65 0 0 0
SMALL
GASTEIGER

@<TRIPOS>ATOM
      1 C          64.4982   89.7558   14.6399 C.ar    1  UNL1        0.0503
      2 C          63.3135   89.7377   15.3913 C.ar    1  UNL1        0.0147
      3 C          62.3826   88.7087   15.2322 C.ar    1  UNL1        0.0013
      4 C          62.6150   87.6740   14.3112 C.ar    1  UNL1        0.0001
      5 C          63.7996   87.6887   13.5578 C.ar    1  UNL1        0.0013
      6 C          64.7272   88.7224   13.7122 C.ar    1  UNL1        0.0147
      7 C          61.6237   86.5849   14.1350 C.ar    1  UNL1        0.0001
      8 C          60.2587   86.8821   13.9859 C.ar    1  UNL1        0.0013
      9 C          59.3286   85.8611   13.7766 C.ar    1  UNL1        0.0147
     10 C          59.7434   84.5173   13.7303 C.ar    1  UNL1        0.0503
     11 C          61.1050   84.2213   13.8872 C.ar    1  UNL1        0.0147
     12 C          62.0367   85.2428   14.0891 C.ar    1  UNL1        0.0013
     13 N          58.8229   83.4517   13.4359 N.am    1  UNL1       -0.2826
     14 C          58.5960   82.9354   12.1172 C.2     1  UNL1        0.2442
     15 O          58.4507   83.7248   11.1454 O.2     1  UNL1       -0.2730
     16 H          58.3795   82.9479   14.2368 H       1  UNL1        0.1549
     17 C          58.4913   81.4506   11.8894 C.3     1  UNL1        0.1521
     18 C          58.0475   80.7122   13.1531 C.3     1  UNL1        0.0310
     19 C          59.2960   80.0288   13.7064 C.3     1  UNL1        0.0237
     20 C          60.3007   79.9829   12.5616 C.3     1  UNL1        0.0939
     21 N          59.7967   80.8997   11.5506 N.am    1  UNL1       -0.2714
     22 C          60.4890   81.2248   10.3282 C.2     1  UNL1        0.2482
     23 O          59.8859   81.8750    9.4302 O.2     1  UNL1       -0.2727
     24 C          61.9125   80.7776   10.0849 C.3     1  UNL1        0.1743
     25 C          62.8865   81.7188   10.7629 C.ar    1  UNL1        0.0044
     26 C          63.2507   81.5324   12.1104 C.ar    1  UNL1       -0.0022
     27 C          64.1513   82.4060   12.7270 C.ar    1  UNL1       -0.0003
     28 C          64.6997   83.4699   12.0070 C.ar    1  UNL1       -0.0000
     29 C          64.3505   83.6610   10.6681 C.ar    1  UNL1       -0.0003
     30 C          63.4509   82.7898   10.0463 C.ar    1  UNL1       -0.0022
     31 N          62.1131   79.4028   10.5596 N.am    1  UNL1       -0.2606
     32 C          62.9792   78.4803    9.8869 C.2     1  UNL1        0.4023
     33 O          63.6348   78.8458    8.8725 O.2     1  UNL1       -0.2264
     34 H          61.5608   79.0454   11.3718 H       1  UNL1        0.1535
     35 O          63.0929   77.1734   10.3690 O.3     1  UNL1       -0.4306
     36 C          64.0101   76.2317    9.8247 C.3     1  UNL1        0.2573
     37 C          66.8148   90.8398   14.5396 C.2     1  UNL1        0.2442
     38 O          67.4351   89.7431   14.5230 O.2     1  UNL1       -0.2730
     39 N          65.3970   90.8733   14.7837 N.am    1  UNL1       -0.2826
     40 H          64.9878   91.7748   15.1169 H       1  UNL1        0.1549
     41 C          66.1562   93.5459   12.8431 C.2     1  UNL1        0.2482
     42 O          65.6101   94.6689   12.6583 O.2     1  UNL1       -0.2727
     43 N          66.7564   93.2611   14.1233 N.am    1  UNL1       -0.2714
     44 C          66.6851   94.2060   15.2275 C.3     1  UNL1        0.0939
     45 C          67.4223   93.5506   16.3863 C.3     1  UNL1        0.0237
     46 C          68.2806   92.4573   15.7601 C.3     1  UNL1        0.0310
     47 C          67.6111   92.1167   14.4268 C.3     1  UNL1        0.1521
     48 C          66.1151   92.5270   11.7223 C.3     1  UNL1        0.1743
     49 C          64.7425   91.9033   11.5223 C.ar    1  UNL1        0.0044
     50 C          64.3147   91.6300   10.2099 C.ar    1  UNL1       -0.0022
     51 C          63.0409   91.1063    9.9693 C.ar    1  UNL1       -0.0003
     52 C          62.1766   90.8490   11.0350 C.ar    1  UNL1       -0.0000
     53 C          62.5792   91.1289   12.3419 C.ar    1  UNL1       -0.0003
     54 C          63.8470   91.6652   12.5879 C.ar    1  UNL1       -0.0022
     55 C          67.9153   93.1007   10.0260 C.2     1  UNL1        0.4023
     56 O          68.7786   92.4595   10.6868 O.2     1  UNL1       -0.2264
     57 N          66.5549   93.1516   10.4711 N.am    1  UNL1       -0.2606
     58 H          65.8856   93.7469    9.9318 H       1  UNL1        0.1535
     59 C          67.5016   94.8329    8.3094 C.3     1  UNL1        0.2573
     60 O          68.2758   93.7710    8.8540 O.3     1  UNL1       -0.4306
@<TRIPOS>BOND
     1    59    60    1
     2    60    55    1
     3    55    56    2
     4    55    57   am
     5    57    48    1
     6    48    41    1
     7    41    42    2
     8    41    43   am
     9    43    44    1
    10    44    45    1
    11    45    46    1
    12    46    47    1
    13    47    37    1
    14    37    38    2
    15    37    39   am
    16    39     1    1
    17     1     2   ar
    18     2     3   ar
    19     3     4   ar
    20     4     7    1
    21     7     8   ar
    22     8     9   ar
    23     9    10   ar
    24    10    13    1
    25    13    14   am
    26    14    15    2
    27    14    17    1
    28    17    18    1
    29    18    19    1
    30    19    20    1
    31    20    21    1
    32    21    22   am
    33    22    23    2
    34    22    24    1
    35    24    31    1
    36    31    32   am
    37    32    33    2
    38    32    35    1
    39    35    36    1
    40    24    25    1
    41    25    26   ar
    42    26    27   ar
    43    27    28   ar
    44    28    29   ar
    45    29    30   ar
    46    10    11   ar
    47    11    12   ar
    48     4     5   ar
    49     5     6   ar
    50    48    49    1
    51    49    50   ar
    52    50    51   ar
    53    51    52   ar
    54    52    53   ar
    55    53    54   ar
    56    47    43    1
    57     6     1   ar
    58    54    49   ar
    59    12     7   ar
    60    21    17    1
    61    30    25   ar
    62    57    58    1
    63    39    40    1
    64    13    16    1
    65    31    34    1
@<TRIPOS>MOLECULE
*****
 60 65 0 0 0
SMALL
GASTEIGER

@<TRIPOS>ATOM
      1 C          63.5009   90.8361   10.7743 C.ar    1  UNL1        0.0503
      2 C          62.5851   90.5744    9.7443 C.ar    1  UNL1        0.0147
      3 C          61.7960   89.4221    9.7659 C.ar    1  UNL1        0.0013
      4 C          61.9097   88.5007   10.8198 C.ar    1  UNL1        0.0001
      5 C          62.8249   88.7596   11.8526 C.ar    1  UNL1        0.0013
      6 C          63.6193   89.9089   11.8267 C.ar    1  UNL1        0.0147
      7 C          61.0784   87.2725   10.8403 C.ar    1  UNL1        0.0001
      8 C          60.7048   86.6459    9.6397 C.ar    1  UNL1        0.0013
      9 C          59.9586   85.4651    9.6574 C.ar    1  UNL1        0.0147
     10 C          59.5542   84.8956   10.8790 C.ar    1  UNL1        0.0503
     11 C          59.9209   85.5263   12.0764 C.ar    1  UNL1        0.0147
     12 C          60.6738   86.7032   12.0593 C.ar    1  UNL1        0.0013
     13 N          58.8557   83.6392   10.9328 N.am    1  UNL1       -0.2826
     14 C          58.3305   82.9687    9.7788 C.2     1  UNL1        0.2442
     15 O          57.6976   83.6184    8.9035 O.2     1  UNL1       -0.2730
     16 H          58.8279   83.1292   11.8443 H       1  UNL1        0.1549
     17 C          58.4968   81.4803    9.6226 C.3     1  UNL1        0.1521
     18 C          57.5205   80.7039   10.5076 C.3     1  UNL1        0.0310
     19 C          58.3430   80.1641   11.6755 C.3     1  UNL1        0.0237
     20 C          59.8005   80.2229   11.2348 C.3     1  UNL1        0.0939
     21 N          59.8272   81.0739   10.0552 N.am    1  UNL1       -0.2714
     22 C          61.0287   81.4670    9.3613 C.2     1  UNL1        0.2482
     23 O          60.9361   82.0428    8.2421 O.2     1  UNL1       -0.2727
     24 C          62.3990   81.1772    9.9306 C.3     1  UNL1        0.1743
     25 C          62.8177   82.2739   10.8877 C.ar    1  UNL1        0.0044
     26 C          63.0754   83.5779   10.4225 C.ar    1  UNL1       -0.0022
     27 C          63.4603   84.5836   11.3139 C.ar    1  UNL1       -0.0003
     28 C          63.5886   84.3012   12.6758 C.ar    1  UNL1       -0.0000
     29 C          63.3297   83.0129   13.1495 C.ar    1  UNL1       -0.0003
     30 C          62.9435   82.0035   12.2625 C.ar    1  UNL1       -0.0022
     31 N          62.4156   79.8735   10.6057 N.am    1  UNL1       -0.2606
     32 C          62.9492   78.6974    9.9845 C.2     1  UNL1        0.4023
     33 O          63.4645   78.7623    8.8345 O.2     1  UNL1       -0.2264
     34 H          61.9641   79.7649   11.5421 H       1  UNL1        0.1535
     35 O          62.8965   77.4794   10.6679 O.3     1  UNL1       -0.4306
     36 C          63.3960   76.2672   10.1154 C.3     1  UNL1        0.2573
     37 C          64.8272   92.7768   11.7875 C.2     1  UNL1        0.2442
     38 O          64.2584   92.7083   12.9098 O.2     1  UNL1       -0.2730
     39 N          64.3457   91.9998   10.6761 N.am    1  UNL1       -0.2826
     40 H          64.6085   92.3188    9.7167 H       1  UNL1        0.1549
     41 C          68.0527   92.3061   11.6890 C.2     1  UNL1        0.2482
     42 O          69.1439   92.0148   11.1251 O.2     1  UNL1       -0.2727
     43 N          67.1241   93.1766   11.0104 N.am    1  UNL1       -0.2714
     44 C          67.3813   93.6680    9.6652 C.3     1  UNL1        0.0939
     45 C          66.1876   94.5400    9.3039 C.3     1  UNL1        0.0237
     46 C          65.5150   94.8834   10.6281 C.3     1  UNL1        0.0310
     47 C          65.9366   93.7835   11.6051 C.3     1  UNL1        0.1521
     48 C          67.7468   91.6884   13.0383 C.3     1  UNL1        0.1743
     49 C          68.1871   92.5504   14.2115 C.ar    1  UNL1        0.0044
     50 C          69.4461   92.3039   14.7896 C.ar    1  UNL1       -0.0022
     51 C          69.8747   93.0328   15.9030 C.ar    1  UNL1       -0.0003
     52 C          69.0526   94.0169   16.4549 C.ar    1  UNL1       -0.0000
     53 C          67.7943   94.2635   15.9033 C.ar    1  UNL1       -0.0003
     54 C          67.3544   93.5286   14.7979 C.ar    1  UNL1       -0.0022
     55 C          65.7302   90.7876   14.2911 C.2     1  UNL1        0.4023
     56 O          66.4487   90.4890   15.2850 O.2     1  UNL1       -0.2264
     57 N          66.3098   91.4180   13.1430 N.am    1  UNL1       -0.2606
     58 H          65.6938   91.5889   12.3155 H       1  UNL1        0.1535
     59 C          63.6391   90.2385   15.4929 C.3     1  UNL1        0.2573
     60 O          64.3617   90.5047   14.2968 O.3     1  UNL1       -0.4306
@<TRIPOS>BOND
     1    59    60    1
     2    60    55    1
     3    55    56    2
     4    55    57   am
     5    57    48    1
     6    48    41    1
     7    41    42    2
     8    41    43   am
     9    43    44    1
    10    44    45    1
    11    45    46    1
    12    46    47    1
    13    47    37    1
    14    37    38    2
    15    37    39   am
    16    39     1    1
    17     1     2   ar
    18     2     3   ar
    19     3     4   ar
    20     4     7    1
    21     7     8   ar
    22     8     9   ar
    23     9    10   ar
    24    10    13    1
    25    13    14   am
    26    14    15    2
    27    14    17    1
    28    17    18    1
    29    18    19    1
    30    19    20    1
    31    20    21    1
    32    21    22   am
    33    22    23    2
    34    22    24    1
    35    24    31    1
    36    31    32   am
    37    32    33    2
    38    32    35    1
    39    35    36    1
    40    24    25    1
    41    25    26   ar
    42    26    27   ar
    43    27    28   ar
    44    28    29   ar
    45    29    30   ar
    46    10    11   ar
    47    11    12   ar
    48     4     5   ar
    49     5     6   ar
    50    48    49    1
    51    49    50   ar
    52    50    51   ar
    53    51    52   ar
    54    52    53   ar
    55    53    54   ar
    56    47    43    1
    57     6     1   ar
    58    54    49   ar
    59    12     7   ar
    60    21    17    1
    61    30    25   ar
    62    57    58    1
    63    39    40    1
    64    13    16    1
    65    31    34    1
@<TRIPOS>MOLECULE
*****
 60 65 0 0 0
SMALL
GASTEIGER

@<TRIPOS>ATOM
      1 C          61.0775   84.3923   11.2289 C.ar    1  UNL1        0.0503
      2 C          62.3390   84.8030   10.7727 C.ar    1  UNL1        0.0147
      3 C          63.0475   85.8058   11.4386 C.ar    1  UNL1        0.0013
      4 C          62.5054   86.4251   12.5767 C.ar    1  UNL1        0.0001
      5 C          61.2433   86.0163   13.0363 C.ar    1  UNL1        0.0013
      6 C          60.5318   85.0181   12.3655 C.ar    1  UNL1        0.0147
      7 C          63.2528   87.4959   13.2802 C.ar    1  UNL1        0.0001
      8 C          64.0556   87.1909   14.3921 C.ar    1  UNL1        0.0013
      9 C          64.7944   88.1904   15.0298 C.ar    1  UNL1        0.0147
     10 C          64.7307   89.5218   14.5786 C.ar    1  UNL1        0.0503
     11 C          63.9228   89.8263   13.4737 C.ar    1  UNL1        0.0147
     12 C          63.1896   88.8256   12.8309 C.ar    1  UNL1        0.0013
     13 N          65.5409   90.5573   15.1624 N.am    1  UNL1       -0.2826
     14 C          66.9715   90.5986   15.0688 C.2     1  UNL1        0.2442
     15 O          67.6483   89.5531   15.2624 O.2     1  UNL1       -0.2730
     16 H          65.0582   91.3851   15.5789 H       1  UNL1        0.1549
     17 C          67.6774   91.8964   14.7772 C.3     1  UNL1        0.1521
     18 C          67.6581   92.8367   15.9833 C.3     1  UNL1        0.0310
     19 C          66.6222   93.9129   15.6663 C.3     1  UNL1        0.0237
     20 C          66.4042   93.8652   14.1589 C.3     1  UNL1        0.0939
     21 N          66.9931   92.6132   13.7094 N.am    1  UNL1       -0.2714
     22 C          66.9356   92.1265   12.3532 C.2     1  UNL1        0.2482
     23 O          67.6389   91.1320   12.0228 O.2     1  UNL1       -0.2727
     24 C          66.0741   92.8001   11.3093 C.3     1  UNL1        0.1743
     25 C          66.9163   93.2350   10.1279 C.ar    1  UNL1        0.0044
     26 C          67.9194   92.3942    9.6085 C.ar    1  UNL1       -0.0022
     27 C          68.6909   92.8042    8.5171 C.ar    1  UNL1       -0.0003
     28 C          68.4682   94.0525    7.9313 C.ar    1  UNL1       -0.0000
     29 C          67.4718   94.8924    8.4342 C.ar    1  UNL1       -0.0003
     30 C          66.6968   94.4870    9.5250 C.ar    1  UNL1       -0.0022
     31 N          64.9965   91.9052   10.8692 N.am    1  UNL1       -0.2606
     32 C          63.7424   91.8221   11.5575 C.2     1  UNL1        0.4023
     33 O          63.5133   92.5597   12.5555 O.2     1  UNL1       -0.2264
     34 H          65.1567   91.2482   10.0722 H       1  UNL1        0.1535
     35 O          62.7747   90.9189   11.1091 O.3     1  UNL1       -0.4306
     36 C          62.4357   90.7770    9.7346 C.3     1  UNL1        0.2573
     37 C          60.7545   82.8665    9.1993 C.2     1  UNL1        0.2442
     38 O          61.5949   83.4755    8.4846 O.2     1  UNL1       -0.2730
     39 N          60.3503   83.4054   10.4709 N.am    1  UNL1       -0.2826
     40 H          59.4423   83.0736   10.8668 H       1  UNL1        0.1549
     41 C          60.1816   79.9890   10.6228 C.2     1  UNL1        0.2482
     42 O          59.5253   79.1852   11.3417 O.2     1  UNL1       -0.2727
     43 N          59.4757   80.8243    9.6824 N.am    1  UNL1       -0.2714
     44 C          58.0234   80.8152    9.5928 C.3     1  UNL1        0.0939
     45 C          57.6660   81.8156    8.5032 C.3     1  UNL1        0.0237
     46 C          58.9440   82.0178    7.6971 C.3     1  UNL1        0.0310
     47 C          60.0910   81.6342    8.6347 C.3     1  UNL1        0.1521
     48 C          61.6823   80.0730   10.8143 C.3     1  UNL1        0.1743
     49 C          62.0923   80.9079   12.0177 C.ar    1  UNL1        0.0044
     50 C          63.3295   81.5773   11.9795 C.ar    1  UNL1       -0.0022
     51 C          63.7761   82.3141   13.0806 C.ar    1  UNL1       -0.0003
     52 C          62.9945   82.3924   14.2346 C.ar    1  UNL1       -0.0000
     53 C          61.7719   81.7217   14.2950 C.ar    1  UNL1       -0.0003
     54 C          61.3258   80.9721   13.2020 C.ar    1  UNL1       -0.0022
     55 C          63.1180   78.1598    9.9625 C.2     1  UNL1        0.4023
     56 O          63.4838   78.8436    8.9666 O.2     1  UNL1       -0.2264
     57 N          62.2397   78.7233   10.9434 N.am    1  UNL1       -0.2606
     58 H          61.9083   78.1032   11.7174 H       1  UNL1        0.1535
     59 C          64.5102   76.2460    9.2431 C.3     1  UNL1        0.2573
     60 O          63.5627   76.8442   10.1193 O.3     1  UNL1       -0.4306
@<TRIPOS>BOND
     1    59    60    1
     2    60    55    1
     3    55    56    2
     4    55    57   am
     5    57    48    1
     6    48    41    1
     7    41    42    2
     8    41    43   am
     9    43    44    1
    10    44    45    1
    11    45    46    1
    12    46    47    1
    13    47    37    1
    14    37    38    2
    15    37    39   am
    16    39     1    1
    17     1     2   ar
    18     2     3   ar
    19     3     4   ar
    20     4     7    1
    21     7     8   ar
    22     8     9   ar
    23     9    10   ar
    24    10    13    1
    25    13    14   am
    26    14    15    2
    27    14    17    1
    28    17    18    1
    29    18    19    1
    30    19    20    1
    31    20    21    1
    32    21    22   am
    33    22    23    2
    34    22    24    1
    35    24    31    1
    36    31    32   am
    37    32    33    2
    38    32    35    1
    39    35    36    1
    40    24    25    1
    41    25    26   ar
    42    26    27   ar
    43    27    28   ar
    44    28    29   ar
    45    29    30   ar
    46    10    11   ar
    47    11    12   ar
    48     4     5   ar
    49     5     6   ar
    50    48    49    1
    51    49    50   ar
    52    50    51   ar
    53    51    52   ar
    54    52    53   ar
    55    53    54   ar
    56    47    43    1
    57     6     1   ar
    58    54    49   ar
    59    12     7   ar
    60    21    17    1
    61    30    25   ar
    62    57    58    1
    63    39    40    1
    64    13    16    1
    65    31    34    1
@<TRIPOS>MOLECULE
*****
 60 65 0 0 0
SMALL
GASTEIGER

@<TRIPOS>ATOM
      1 C          63.4067   90.8895   10.4127 C.ar    1  UNL1        0.0503
      2 C          62.4323   90.7843    9.4088 C.ar    1  UNL1        0.0147
      3 C          61.6686   89.6227    9.2738 C.ar    1  UNL1        0.0013
      4 C          61.8669   88.5352   10.1403 C.ar    1  UNL1        0.0001
      5 C          62.8409   88.6372   11.1463 C.ar    1  UNL1        0.0013
      6 C          63.6097   89.7968   11.2763 C.ar    1  UNL1        0.0147
      7 C          61.0624   87.2978    9.9932 C.ar    1  UNL1        0.0001
      8 C          59.7864   87.3438    9.4072 C.ar    1  UNL1        0.0013
      9 C          59.0448   86.1736    9.2282 C.ar    1  UNL1        0.0147
     10 C          59.5579   84.9329    9.6495 C.ar    1  UNL1        0.0503
     11 C          60.8282   84.8893   10.2415 C.ar    1  UNL1        0.0147
     12 C          61.5736   86.0585   10.4138 C.ar    1  UNL1        0.0013
     13 N          58.8544   83.7020    9.4059 N.am    1  UNL1       -0.2826
     14 C          59.1366   82.8264    8.3055 C.2     1  UNL1        0.2442
     15 O          59.3089   83.2989    7.1497 O.2     1  UNL1       -0.2730
     16 H          58.1798   83.3680   10.1306 H       1  UNL1        0.1549
     17 C          59.1909   81.3361    8.5139 C.3     1  UNL1        0.1521
     18 C          57.7923   80.7215    8.5858 C.3     1  UNL1        0.0310
     19 C          57.5405   80.4099   10.0593 C.3     1  UNL1        0.0237
     20 C          58.9066   80.4039   10.7343 C.3     1  UNL1        0.0939
     21 N          59.8211   81.0287    9.7909 N.am    1  UNL1       -0.2714
     22 C          61.2103   81.3031   10.0631 C.2     1  UNL1        0.2482
     23 O          61.9652   81.6668    9.1193 O.2     1  UNL1       -0.2727
     24 C          61.7907   81.1354   11.4490 C.3     1  UNL1        0.1743
     25 C          62.7654   82.2539   11.7540 C.ar    1  UNL1        0.0044
     26 C          63.9767   82.3686   11.0451 C.ar    1  UNL1       -0.0022
     27 C          64.8694   83.4051   11.3333 C.ar    1  UNL1       -0.0003
     28 C          64.5627   84.3380   12.3264 C.ar    1  UNL1       -0.0000
     29 C          63.3612   84.2378   13.0320 C.ar    1  UNL1       -0.0003
     30 C          62.4644   83.2036   12.7472 C.ar    1  UNL1       -0.0022
     31 N          60.7241   81.0955   12.4572 N.am    1  UNL1       -0.2606
     32 C          60.8812   80.4180   13.7102 C.2     1  UNL1        0.4023
     33 O          61.9759   79.8615   14.0007 O.2     1  UNL1       -0.2264
     34 H          59.7880   81.5084   12.2432 H       1  UNL1        0.1535
     35 O          59.8107   80.3841   14.6081 O.3     1  UNL1       -0.4306
     36 C          58.6739   79.5505   14.4160 C.3     1  UNL1        0.2573
     37 C          64.7456   92.6704   11.6727 C.2     1  UNL1        0.2442
     38 O          64.2397   92.3976   12.7940 O.2     1  UNL1       -0.2730
     39 N          64.2209   92.0774   10.4710 N.am    1  UNL1       -0.2826
     40 H          64.4250   92.5607    9.5677 H       1  UNL1        0.1549
     41 C          67.9879   92.3210   11.6908 C.2     1  UNL1        0.2482
     42 O          69.1128   92.1072   11.1593 O.2     1  UNL1       -0.2727
     43 N          67.0571   93.2025   11.0298 N.am    1  UNL1       -0.2714
     44 C          67.3534   93.7931    9.7334 C.3     1  UNL1        0.0939
     45 C          66.1441   94.6452    9.3765 C.3     1  UNL1        0.0237
     46 C          65.4022   94.8738   10.6885 C.3     1  UNL1        0.0310
     47 C          65.8227   93.7255   11.6085 C.3     1  UNL1        0.1521
     48 C          67.6476   91.6025   12.9807 C.3     1  UNL1        0.1743
     49 C          68.0443   92.3781   14.2275 C.ar    1  UNL1        0.0044
     50 C          67.0334   93.0138   14.9719 C.ar    1  UNL1       -0.0022
     51 C          67.3514   93.7828   16.0953 C.ar    1  UNL1       -0.0003
     52 C          68.6822   93.9284   16.4907 C.ar    1  UNL1       -0.0000
     53 C          69.6986   93.3173   15.7545 C.ar    1  UNL1       -0.0003
     54 C          69.3881   92.5579   14.6221 C.ar    1  UNL1       -0.0022
     55 C          65.6230   90.4879   14.0323 C.2     1  UNL1        0.4023
     56 O          66.3332   90.0182   14.9640 O.2     1  UNL1       -0.2264
     57 N          66.2108   91.3145   13.0211 N.am    1  UNL1       -0.2606
     58 H          65.6020   91.6292   12.2313 H       1  UNL1        0.1535
     59 C          63.4122   90.2594   15.1179 C.3     1  UNL1        0.2573
     60 O          64.2556   90.2054   13.9737 O.3     1  UNL1       -0.4306
@<TRIPOS>BOND
     1    59    60    1
     2    60    55    1
     3    55    56    2
     4    55    57   am
     5    57    48    1
     6    48    41    1
     7    41    42    2
     8    41    43   am
     9    43    44    1
    10    44    45    1
    11    45    46    1
    12    46    47    1
    13    47    37    1
    14    37    38    2
    15    37    39   am
    16    39     1    1
    17     1     2   ar
    18     2     3   ar
    19     3     4   ar
    20     4     7    1
    21     7     8   ar
    22     8     9   ar
    23     9    10   ar
    24    10    13    1
    25    13    14   am
    26    14    15    2
    27    14    17    1
    28    17    18    1
    29    18    19    1
    30    19    20    1
    31    20    21    1
    32    21    22   am
    33    22    23    2
    34    22    24    1
    35    24    31    1
    36    31    32   am
    37    32    33    2
    38    32    35    1
    39    35    36    1
    40    24    25    1
    41    25    26   ar
    42    26    27   ar
    43    27    28   ar
    44    28    29   ar
    45    29    30   ar
    46    10    11   ar
    47    11    12   ar
    48     4     5   ar
    49     5     6   ar
    50    48    49    1
    51    49    50   ar
    52    50    51   ar
    53    51    52   ar
    54    52    53   ar
    55    53    54   ar
    56    47    43    1
    57     6     1   ar
    58    54    49   ar
    59    12     7   ar
    60    21    17    1
    61    30    25   ar
    62    57    58    1
    63    39    40    1
    64    13    16    1
    65    31    34    1
