@<TRIPOS>MOLECULE
*****
 29 32 0 0 0
SMALL
GASTEIGER

@<TRIPOS>ATOM
      1 C         -26.5795   -8.5865  -13.4170 C.3     1  UNL1        0.0138
      2 C         -25.4869   -7.7774  -12.7535 C.3     1  UNL1        0.1087
      3 C         -25.2720   -6.4187  -13.0871 C.3     1  UNL1        0.0893
      4 N         -24.2481   -5.7314  -12.5048 N.4     1  UNL1        0.3475
      5 C         -23.4338   -6.2943  -11.5688 C.3     1  UNL1        0.0950
      6 C         -22.4006   -5.5384  -10.9939 C.3     1  UNL1        0.0932
      7 C         -21.5671   -6.0992  -10.0263 C.3     1  UNL1        0.1789
      8 F         -20.5747   -5.3503   -9.4839 F       1  UNL1       -0.2361
      9 C         -21.7558   -7.4231   -9.6192 C.3     1  UNL1        0.1186
     10 I         -20.4858   -8.2631   -8.1494 I       1  UNL1       -0.0695
     11 C         -22.7825   -8.1926  -10.1827 C.3     1  UNL1        0.1856
     12 F         -22.9387   -9.4762   -9.7670 F       1  UNL1       -0.2357
     13 C         -23.6331   -7.6353  -11.1662 C.3     1  UNL1        0.1419
     14 C         -24.6758   -8.3717  -11.7660 C.2     1  UNL1        0.1637
     15 O         -24.8877   -9.5680  -11.4236 O.2     1  UNL1       -0.2956
     16 H         -24.0976   -4.7311  -12.7735 H       1  UNL1        0.2374
     17 C         -26.1303   -5.7103  -14.0649 C.3     1  UNL1        0.0516
     18 C         -25.5816   -5.2359  -15.2632 C.3     1  UNL1        0.0071
     19 C         -26.3789   -4.5506  -16.1839 C.3     1  UNL1        0.0162
     20 C         -27.7427   -4.3158  -15.9196 C.3     1  UNL1        0.0577
     21 C         -28.2819   -4.7822  -14.7044 C.3     1  UNL1        0.0162
     22 C         -27.4823   -5.4668  -13.7855 C.3     1  UNL1        0.0071
     23 N         -28.5701   -3.6075  -16.8724 N.3     1  UNL1       -0.2692
     24 C         -28.1052   -3.1586  -18.1774 C.3     1  UNL1        0.0779
     25 C         -29.2317   -2.3109  -18.7521 C.3     1  UNL1        0.0853
     26 C         -30.4769   -2.6929  -17.9573 C.3     1  UNL1        0.2797
     27 F         -31.2898   -1.5916  -17.7480 F       1  UNL1       -0.2028
     28 F         -31.1877   -3.6672  -18.6395 F       1  UNL1       -0.2028
     29 C         -29.9627   -3.2535  -16.6362 C.3     1  UNL1        0.1394
@<TRIPOS>BOND
     1     1     2    1
     2     2     3    1
     3     3    17    1
     4    17    18    1
     5    18    19    1
     6    19    20    1
     7    20    23    1
     8    23    24    1
     9    24    25    1
    10    25    26    1
    11    26    27    1
    12    26    28    1
    13    26    29    1
    14    20    21    1
    15    21    22    1
    16     3     4    1
    17     4     5    1
    18     5     6    1
    19     6     7    1
    20     7     8    1
    21     7     9    1
    22     9    10    1
    23     9    11    1
    24    11    12    1
    25    11    13    1
    26    13    14    1
    27    14    15    2
    28    14     2    1
    29    22    17    1
    30    13     5    1
    31    29    23    1
    32     4    16    1
@<TRIPOS>MOLECULE
*****
 29 32 0 0 0
SMALL
GASTEIGER

@<TRIPOS>ATOM
      1 C         -27.6704   -7.9645  -12.3566 C.3     1  UNL1        0.0138
      2 C         -27.3999   -6.9012  -13.3981 C.3     1  UNL1        0.1087
      3 C         -26.0791   -6.5093  -13.7233 C.3     1  UNL1        0.0893
      4 N         -25.8716   -5.5143  -14.6326 N.4     1  UNL1        0.3475
      5 C         -26.8977   -4.8982  -15.2834 C.3     1  UNL1        0.0950
      6 C         -26.6274   -3.8864  -16.2174 C.3     1  UNL1        0.0932
      7 C         -27.6681   -3.2555  -16.8989 C.3     1  UNL1        0.1789
      8 F         -27.3838   -2.2800  -17.7975 F       1  UNL1       -0.2361
      9 C         -28.9934   -3.6285  -16.6570 C.3     1  UNL1        0.1186
     10 I         -30.5643   -2.6653  -17.6979 I       1  UNL1       -0.0695
     11 C         -29.2818   -4.6369  -15.7277 C.3     1  UNL1        0.1856
     12 F         -30.5797   -4.9751  -15.5139 F       1  UNL1       -0.2357
     13 C         -28.2347   -5.2827  -15.0289 C.3     1  UNL1        0.1419
     14 C         -28.4756   -6.2985  -14.0807 C.2     1  UNL1        0.1637
     15 O         -29.6560   -6.6728  -13.8359 O.2     1  UNL1       -0.2956
     16 H         -24.8883   -5.2302  -14.8507 H       1  UNL1        0.2374
     17 C         -24.8990   -7.1487  -13.0963 C.3     1  UNL1        0.0516
     18 C         -24.4487   -8.3921  -13.5582 C.3     1  UNL1        0.0071
     19 C         -23.3475   -9.0119  -12.9614 C.3     1  UNL1        0.0162
     20 C         -22.6785   -8.4041  -11.8807 C.3     1  UNL1        0.0577
     21 C         -23.1486   -7.1614  -11.4123 C.3     1  UNL1        0.0162
     22 C         -24.2502   -6.5440  -12.0107 C.3     1  UNL1        0.0071
     23 N         -21.5372   -9.0438  -11.2624 N.3     1  UNL1       -0.2692
     24 C         -21.0472  -10.3648  -11.6305 C.3     1  UNL1        0.0779
     25 C         -19.9684  -10.7077  -10.6124 C.3     1  UNL1        0.0853
     26 C         -19.5602   -9.3777   -9.9860 C.3     1  UNL1        0.2797
     27 F         -19.2768   -9.5293   -8.6390 F       1  UNL1       -0.2028
     28 F         -18.4453   -8.8753  -10.6377 F       1  UNL1       -0.2028
     29 C         -20.7484   -8.4457  -10.1945 C.3     1  UNL1        0.1394
@<TRIPOS>BOND
     1     1     2    1
     2     2     3    1
     3     3    17    1
     4    17    18    1
     5    18    19    1
     6    19    20    1
     7    20    23    1
     8    23    24    1
     9    24    25    1
    10    25    26    1
    11    26    27    1
    12    26    28    1
    13    26    29    1
    14    20    21    1
    15    21    22    1
    16     3     4    1
    17     4     5    1
    18     5     6    1
    19     6     7    1
    20     7     8    1
    21     7     9    1
    22     9    10    1
    23     9    11    1
    24    11    12    1
    25    11    13    1
    26    13    14    1
    27    14    15    2
    28    14     2    1
    29    22    17    1
    30    13     5    1
    31    29    23    1
    32     4    16    1
@<TRIPOS>MOLECULE
*****
 29 32 0 0 0
SMALL
GASTEIGER

@<TRIPOS>ATOM
      1 C         -21.2763   -6.7177  -11.7511 C.3     1  UNL1        0.0138
      2 C         -21.4220   -8.1597  -12.1846 C.3     1  UNL1        0.1087
      3 C         -21.2011   -9.2257  -11.2798 C.3     1  UNL1        0.0893
      4 N         -21.2944  -10.5147  -11.7150 N.4     1  UNL1        0.3475
      5 C         -21.6374  -10.8268  -12.9960 C.3     1  UNL1        0.0950
      6 C         -21.7286  -12.1710  -13.3888 C.3     1  UNL1        0.0932
      7 C         -22.0898  -12.5042  -14.6941 C.3     1  UNL1        0.1789
      8 F         -22.1719  -13.8100  -15.0521 F       1  UNL1       -0.2361
      9 C         -22.3661  -11.4982  -15.6245 C.3     1  UNL1        0.1186
     10 I         -22.9144  -12.0156  -17.6020 I       1  UNL1       -0.0695
     11 C         -22.2799  -10.1507  -15.2498 C.3     1  UNL1        0.1856
     12 F         -22.5529   -9.1969  -16.1775 F       1  UNL1       -0.2357
     13 C         -21.9127   -9.8004  -13.9291 C.3     1  UNL1        0.1419
     14 C         -21.8071   -8.4589  -13.5069 C.2     1  UNL1        0.1637
     15 O         -22.0548   -7.5178  -14.3109 O.2     1  UNL1       -0.2956
     16 H         -21.1156  -11.2891  -11.0341 H       1  UNL1        0.2374
     17 C         -20.8617   -8.9845   -9.8581 C.3     1  UNL1        0.0516
     18 C         -19.5248   -9.0215   -9.4417 C.3     1  UNL1        0.0071
     19 C         -19.1959   -8.8132   -8.0995 C.3     1  UNL1        0.0162
     20 C         -20.2009   -8.5735   -7.1417 C.3     1  UNL1        0.0577
     21 C         -21.5439   -8.5545   -7.5669 C.3     1  UNL1        0.0162
     22 C         -21.8700   -8.7634   -8.9096 C.3     1  UNL1        0.0071
     23 N         -19.8621   -8.3563   -5.7517 N.3     1  UNL1       -0.2692
     24 C         -20.6277   -8.8921   -4.6348 C.3     1  UNL1        0.0779
     25 C         -20.0292   -8.2678   -3.3818 C.3     1  UNL1        0.0853
     26 C         -18.6493   -7.7648   -3.7951 C.3     1  UNL1        0.2797
     27 F         -18.3414   -6.5764   -3.1542 F       1  UNL1       -0.2028
     28 F         -17.6913   -8.7168   -3.4854 F       1  UNL1       -0.2028
     29 C         -18.7203   -7.5705   -5.3054 C.3     1  UNL1        0.1394
@<TRIPOS>BOND
     1     1     2    1
     2     2     3    1
     3     3    17    1
     4    17    18    1
     5    18    19    1
     6    19    20    1
     7    20    23    1
     8    23    24    1
     9    24    25    1
    10    25    26    1
    11    26    27    1
    12    26    28    1
    13    26    29    1
    14    20    21    1
    15    21    22    1
    16     3     4    1
    17     4     5    1
    18     5     6    1
    19     6     7    1
    20     7     8    1
    21     7     9    1
    22     9    10    1
    23     9    11    1
    24    11    12    1
    25    11    13    1
    26    13    14    1
    27    14    15    2
    28    14     2    1
    29    22    17    1
    30    13     5    1
    31    29    23    1
    32     4    16    1
@<TRIPOS>MOLECULE
*****
 29 32 0 0 0
SMALL
GASTEIGER

@<TRIPOS>ATOM
      1 C         -27.0411   -7.3191  -10.8492 C.3     1  UNL1        0.0138
      2 C         -25.9846   -7.9435  -11.7337 C.3     1  UNL1        0.1087
      3 C         -25.9491   -7.6927  -13.1264 C.3     1  UNL1        0.0893
      4 N         -25.0123   -8.3090  -13.9026 N.4     1  UNL1        0.3475
      5 C         -24.0666   -9.1388  -13.3802 C.3     1  UNL1        0.0950
      6 C         -23.1194   -9.7396  -14.2235 C.3     1  UNL1        0.0932
      7 C         -22.1389  -10.5822  -13.7000 C.3     1  UNL1        0.1789
      8 F         -21.2332  -11.1523  -14.5335 F       1  UNL1       -0.2361
      9 C         -22.0910  -10.8347  -12.3260 C.3     1  UNL1        0.1186
     10 I         -20.5979  -12.1139  -11.5426 I       1  UNL1       -0.0695
     11 C         -23.0289  -10.2433  -11.4690 C.3     1  UNL1        0.1856
     12 F         -22.9565  -10.5099  -10.1392 F       1  UNL1       -0.2357
     13 C         -24.0292   -9.3883  -11.9887 C.3     1  UNL1        0.1419
     14 C         -24.9977   -8.7749  -11.1672 C.2     1  UNL1        0.1637
     15 O         -24.9880   -8.9683   -9.9198 O.2     1  UNL1       -0.2956
     16 H         -25.0099   -8.1202  -14.9320 H       1  UNL1        0.2374
     17 C         -26.9120   -6.7750  -13.7786 C.3     1  UNL1        0.0516
     18 C         -28.2488   -7.1616  -13.9386 C.3     1  UNL1        0.0071
     19 C         -29.1607   -6.3106  -14.5687 C.3     1  UNL1        0.0162
     20 C         -28.7510   -5.0563  -15.0625 C.3     1  UNL1        0.0577
     21 C         -27.4009   -4.6829  -14.9116 C.3     1  UNL1        0.0162
     22 C         -26.4911   -5.5360  -14.2815 C.3     1  UNL1        0.0071
     23 N         -29.6943   -4.1732  -15.7140 N.3     1  UNL1       -0.2692
     24 C         -30.6980   -3.3907  -15.0063 C.3     1  UNL1        0.0779
     25 C         -31.5746   -2.7659  -16.0829 C.3     1  UNL1        0.0853
     26 C         -30.7562   -2.8377  -17.3687 C.3     1  UNL1        0.2797
     27 F         -31.5686   -3.0920  -18.4609 F       1  UNL1       -0.2028
     28 F         -30.0835   -1.6420  -17.5634 F       1  UNL1       -0.2028
     29 C         -29.7562   -3.9681  -17.1544 C.3     1  UNL1        0.1394
@<TRIPOS>BOND
     1     1     2    1
     2     2     3    1
     3     3    17    1
     4    17    18    1
     5    18    19    1
     6    19    20    1
     7    20    23    1
     8    23    24    1
     9    24    25    1
    10    25    26    1
    11    26    27    1
    12    26    28    1
    13    26    29    1
    14    20    21    1
    15    21    22    1
    16     3     4    1
    17     4     5    1
    18     5     6    1
    19     6     7    1
    20     7     8    1
    21     7     9    1
    22     9    10    1
    23     9    11    1
    24    11    12    1
    25    11    13    1
    26    13    14    1
    27    14    15    2
    28    14     2    1
    29    22    17    1
    30    13     5    1
    31    29    23    1
    32     4    16    1
@<TRIPOS>MOLECULE
*****
 29 32 0 0 0
SMALL
GASTEIGER

@<TRIPOS>ATOM
      1 C         -22.9848   -4.7700  -11.2476 C.3     1  UNL1        0.0138
      2 C         -22.7024   -6.2512  -11.3701 C.3     1  UNL1        0.1087
      3 C         -23.5510   -7.1025  -12.1177 C.3     1  UNL1        0.0893
      4 N         -23.2944   -8.4409  -12.1687 N.4     1  UNL1        0.3475
      5 C         -22.2139   -8.9982  -11.5538 C.3     1  UNL1        0.0950
      6 C         -21.9913  -10.3806  -11.6465 C.3     1  UNL1        0.0932
      7 C         -20.8828  -10.9621  -11.0313 C.3     1  UNL1        0.1789
      8 F         -20.6872  -12.3005  -11.1339 F       1  UNL1       -0.2361
      9 C         -19.9808  -10.1693  -10.3159 C.3     1  UNL1        0.1186
     10 I         -18.3016  -11.0624   -9.3876 I       1  UNL1       -0.0695
     11 C         -20.1874   -8.7871  -10.2129 C.3     1  UNL1        0.1856
     12 F         -19.2937   -8.0447   -9.5094 F       1  UNL1       -0.2357
     13 C         -21.3091   -8.1862  -10.8312 C.3     1  UNL1        0.1419
     14 C         -21.5622   -6.8011  -10.7506 C.2     1  UNL1        0.1637
     15 O         -20.7703   -6.0457  -10.1216 O.2     1  UNL1       -0.2956
     16 H         -23.9402   -9.0557  -12.7165 H       1  UNL1        0.2374
     17 C         -24.7277   -6.5819  -12.8518 C.3     1  UNL1        0.0516
     18 C         -24.7641   -6.6454  -14.2507 C.3     1  UNL1        0.0071
     19 C         -25.8616   -6.1405  -14.9533 C.3     1  UNL1        0.0162
     20 C         -26.9433   -5.5506  -14.2702 C.3     1  UNL1        0.0577
     21 C         -26.8904   -5.4764  -12.8643 C.3     1  UNL1        0.0162
     22 C         -25.7917   -5.9816  -12.1642 C.3     1  UNL1        0.0071
     23 N         -28.0811   -5.0285  -14.9961 N.3     1  UNL1       -0.2692
     24 C         -29.4646   -5.3652  -14.6908 C.3     1  UNL1        0.0779
     25 C         -30.2991   -4.7494  -15.8054 C.3     1  UNL1        0.0853
     26 C         -29.4061   -3.6921  -16.4479 C.3     1  UNL1        0.2797
     27 F         -29.6086   -3.6362  -17.8167 F       1  UNL1       -0.2028
     28 F         -29.6737   -2.4517  -15.8915 F       1  UNL1       -0.2028
     29 C         -27.9770   -4.1109  -16.1220 C.3     1  UNL1        0.1394
@<TRIPOS>BOND
     1     1     2    1
     2     2     3    1
     3     3    17    1
     4    17    18    1
     5    18    19    1
     6    19    20    1
     7    20    23    1
     8    23    24    1
     9    24    25    1
    10    25    26    1
    11    26    27    1
    12    26    28    1
    13    26    29    1
    14    20    21    1
    15    21    22    1
    16     3     4    1
    17     4     5    1
    18     5     6    1
    19     6     7    1
    20     7     8    1
    21     7     9    1
    22     9    10    1
    23     9    11    1
    24    11    12    1
    25    11    13    1
    26    13    14    1
    27    14    15    2
    28    14     2    1
    29    22    17    1
    30    13     5    1
    31    29    23    1
    32     4    16    1
@<TRIPOS>MOLECULE
*****
 29 32 0 0 0
SMALL
GASTEIGER

@<TRIPOS>ATOM
      1 C         -26.7884   -8.2752  -10.4018 C.3     1  UNL1        0.0138
      2 C         -25.3566   -8.1385  -10.8707 C.3     1  UNL1        0.1087
      3 C         -25.0348   -7.4348  -12.0560 C.3     1  UNL1        0.0893
      4 N         -23.7388   -7.3708  -12.4757 N.4     1  UNL1        0.3475
      5 C         -22.7170   -7.9300  -11.7692 C.3     1  UNL1        0.0950
      6 C         -21.3998   -7.8261  -12.2418 C.3     1  UNL1        0.0932
      7 C         -20.3433   -8.3843  -11.5223 C.3     1  UNL1        0.1789
      8 F         -19.0779   -8.2718  -11.9977 F       1  UNL1       -0.2361
      9 C         -20.5890   -9.0530  -10.3196 C.3     1  UNL1        0.1186
     10 I         -18.9781   -9.8950   -9.2357 I       1  UNL1       -0.0695
     11 C         -21.8981   -9.1665   -9.8327 C.3     1  UNL1        0.1856
     12 F         -22.1040   -9.8238   -8.6621 F       1  UNL1       -0.2357
     13 C         -22.9781   -8.6059  -10.5547 C.3     1  UNL1        0.1419
     14 C         -24.3126   -8.6993  -10.1080 C.2     1  UNL1        0.1637
     15 O         -24.5804   -9.2874   -9.0237 O.2     1  UNL1       -0.2956
     16 H         -23.5224   -6.8564  -13.3611 H       1  UNL1        0.2374
     17 C         -26.0734   -6.7613  -12.8698 C.3     1  UNL1        0.0516
     18 C         -27.1907   -7.4806  -13.3131 C.3     1  UNL1        0.0071
     19 C         -28.1669   -6.8590  -14.0964 C.3     1  UNL1        0.0162
     20 C         -28.0402   -5.5044  -14.4624 C.3     1  UNL1        0.0577
     21 C         -26.9049   -4.7936  -14.0257 C.3     1  UNL1        0.0162
     22 C         -25.9302   -5.4177  -13.2428 C.3     1  UNL1        0.0071
     23 N         -29.0507   -4.8588  -15.2724 N.3     1  UNL1       -0.2692
     24 C         -30.4805   -5.0952  -15.1297 C.3     1  UNL1        0.0779
     25 C         -31.1417   -4.3633  -16.2895 C.3     1  UNL1        0.0853
     26 C         -30.1072   -3.3541  -16.7787 C.3     1  UNL1        0.2797
     27 F         -30.1573   -3.2194  -18.1560 F       1  UNL1       -0.2028
     28 F         -30.3374   -2.1226  -16.1867 F       1  UNL1       -0.2028
     29 C         -28.7572   -3.9024  -16.3305 C.3     1  UNL1        0.1394
@<TRIPOS>BOND
     1     1     2    1
     2     2     3    1
     3     3    17    1
     4    17    18    1
     5    18    19    1
     6    19    20    1
     7    20    23    1
     8    23    24    1
     9    24    25    1
    10    25    26    1
    11    26    27    1
    12    26    28    1
    13    26    29    1
    14    20    21    1
    15    21    22    1
    16     3     4    1
    17     4     5    1
    18     5     6    1
    19     6     7    1
    20     7     8    1
    21     7     9    1
    22     9    10    1
    23     9    11    1
    24    11    12    1
    25    11    13    1
    26    13    14    1
    27    14    15    2
    28    14     2    1
    29    22    17    1
    30    13     5    1
    31    29    23    1
    32     4    16    1
@<TRIPOS>MOLECULE
*****
 29 32 0 0 0
SMALL
GASTEIGER

@<TRIPOS>ATOM
      1 C         -21.9086   -7.3696  -10.2015 C.3     1  UNL1        0.0138
      2 C         -20.8684   -8.2392   -9.5305 C.3     1  UNL1        0.1087
      3 C         -20.4509   -9.4633  -10.1058 C.3     1  UNL1        0.0893
      4 N         -19.5461  -10.2463   -9.4515 N.4     1  UNL1        0.3475
      5 C         -18.9859   -9.8752   -8.2664 C.3     1  UNL1        0.0950
      6 C         -18.0520  -10.7147   -7.6401 C.3     1  UNL1        0.0932
      7 C         -17.4625  -10.3415   -6.4324 C.3     1  UNL1        0.1789
      8 F         -16.5621  -11.1684   -5.8445 F       1  UNL1       -0.2361
      9 C         -17.7976   -9.1231   -5.8347 C.3     1  UNL1        0.1186
     10 I         -16.8958   -8.5665   -4.0027 I       1  UNL1       -0.0695
     11 C         -18.7283   -8.2723   -6.4460 C.3     1  UNL1        0.1856
     12 F         -19.0339   -7.0962   -5.8392 F       1  UNL1       -0.2357
     13 C         -19.3342   -8.6409   -7.6702 C.3     1  UNL1        0.1419
     14 C         -20.2800   -7.8211   -8.3201 C.2     1  UNL1        0.1637
     15 O         -20.6070   -6.7088   -7.8207 O.2     1  UNL1       -0.2956
     16 H         -19.2591  -11.1535   -9.8870 H       1  UNL1        0.2374
     17 C         -20.9753   -9.9313  -11.4099 C.3     1  UNL1        0.0516
     18 C         -21.2687   -9.0054  -12.4192 C.3     1  UNL1        0.0071
     19 C         -21.7809   -9.4353  -13.6463 C.3     1  UNL1        0.0162
     20 C         -22.0207  -10.8027  -13.8862 C.3     1  UNL1        0.0577
     21 C         -21.7381  -11.7249  -12.8593 C.3     1  UNL1        0.0162
     22 C         -21.2264  -11.2923  -11.6331 C.3     1  UNL1        0.0071
     23 N         -22.5498  -11.2497  -15.1568 N.3     1  UNL1       -0.2692
     24 C         -23.8293  -11.9274  -15.3117 C.3     1  UNL1        0.0779
     25 C         -23.8913  -12.3733  -16.7661 C.3     1  UNL1        0.0853
     26 C         -22.8544  -11.5261  -17.4978 C.3     1  UNL1        0.2797
     27 F         -22.2237  -12.2594  -18.4887 F       1  UNL1       -0.2028
     28 F         -23.4677  -10.4197  -18.0631 F       1  UNL1       -0.2028
     29 C         -21.8621  -11.0815  -16.4293 C.3     1  UNL1        0.1394
@<TRIPOS>BOND
     1     1     2    1
     2     2     3    1
     3     3    17    1
     4    17    18    1
     5    18    19    1
     6    19    20    1
     7    20    23    1
     8    23    24    1
     9    24    25    1
    10    25    26    1
    11    26    27    1
    12    26    28    1
    13    26    29    1
    14    20    21    1
    15    21    22    1
    16     3     4    1
    17     4     5    1
    18     5     6    1
    19     6     7    1
    20     7     8    1
    21     7     9    1
    22     9    10    1
    23     9    11    1
    24    11    12    1
    25    11    13    1
    26    13    14    1
    27    14    15    2
    28    14     2    1
    29    22    17    1
    30    13     5    1
    31    29    23    1
    32     4    16    1
@<TRIPOS>MOLECULE
*****
 29 32 0 0 0
SMALL
GASTEIGER

@<TRIPOS>ATOM
      1 C         -23.3991   -8.2361   -9.6148 C.3     1  UNL1        0.0138
      2 C         -22.6854   -8.2358  -10.9487 C.3     1  UNL1        0.1087
      3 C         -21.2827   -8.4066  -11.0324 C.3     1  UNL1        0.0893
      4 N         -20.6646   -8.3539  -12.2469 N.4     1  UNL1        0.3475
      5 C         -21.3561   -8.1815  -13.4080 C.3     1  UNL1        0.0950
      6 C         -20.6709   -8.1445  -14.6321 C.3     1  UNL1        0.0932
      7 C         -21.3680   -7.9801  -15.8290 C.3     1  UNL1        0.1789
      8 F         -20.6855   -7.9472  -17.0007 F       1  UNL1       -0.2361
      9 C         -22.7599   -7.8516  -15.8187 C.3     1  UNL1        0.1186
     10 I         -23.8072   -7.6039  -17.6410 I       1  UNL1       -0.0695
     11 C         -23.4605   -7.8863  -14.6055 C.3     1  UNL1        0.1856
     12 F         -24.8123   -7.7571  -14.6290 F       1  UNL1       -0.2357
     13 C         -22.7641   -8.0508  -13.3850 C.3     1  UNL1        0.1419
     14 C         -23.4245   -8.0860  -12.1393 C.2     1  UNL1        0.1637
     15 O         -24.6812   -7.9816  -12.0827 O.2     1  UNL1       -0.2956
     16 H         -19.6254   -8.4702  -12.2871 H       1  UNL1        0.2374
     17 C         -20.4518   -8.6384   -9.8281 C.3     1  UNL1        0.0516
     18 C         -20.4961   -7.7307   -8.7620 C.3     1  UNL1        0.0071
     19 C         -19.7026   -7.9308   -7.6292 C.3     1  UNL1        0.0162
     20 C         -18.8382   -9.0401   -7.5435 C.3     1  UNL1        0.0577
     21 C         -18.7882   -9.9386   -8.6274 C.3     1  UNL1        0.0162
     22 C         -19.5825   -9.7359   -9.7591 C.3     1  UNL1        0.0071
     23 N         -18.0168   -9.2495   -6.3707 N.3     1  UNL1       -0.2692
     24 C         -17.3848  -10.5182   -6.0366 C.3     1  UNL1        0.0779
     25 C         -16.7871  -10.3332   -4.6486 C.3     1  UNL1        0.0853
     26 C         -16.6967   -8.8244   -4.4404 C.3     1  UNL1        0.2797
     27 F         -16.9646   -8.4878   -3.1241 F       1  UNL1       -0.2028
     28 F         -15.4295   -8.3794   -4.7811 F       1  UNL1       -0.2028
     29 C         -17.7312   -8.2189   -5.3823 C.3     1  UNL1        0.1394
@<TRIPOS>BOND
     1     1     2    1
     2     2     3    1
     3     3    17    1
     4    17    18    1
     5    18    19    1
     6    19    20    1
     7    20    23    1
     8    23    24    1
     9    24    25    1
    10    25    26    1
    11    26    27    1
    12    26    28    1
    13    26    29    1
    14    20    21    1
    15    21    22    1
    16     3     4    1
    17     4     5    1
    18     5     6    1
    19     6     7    1
    20     7     8    1
    21     7     9    1
    22     9    10    1
    23     9    11    1
    24    11    12    1
    25    11    13    1
    26    13    14    1
    27    14    15    2
    28    14     2    1
    29    22    17    1
    30    13     5    1
    31    29    23    1
    32     4    16    1
@<TRIPOS>MOLECULE
*****
 29 32 0 0 0
SMALL
GASTEIGER

@<TRIPOS>ATOM
      1 C         -20.0189   -7.9169  -11.8813 C.3     1  UNL1        0.0138
      2 C         -21.4627   -8.0126  -11.4402 C.3     1  UNL1        0.1087
      3 C         -21.8043   -8.3530  -10.1093 C.3     1  UNL1        0.0893
      4 N         -23.1157   -8.4771   -9.7565 N.4     1  UNL1        0.3475
      5 C         -24.1305   -8.2434  -10.6350 C.3     1  UNL1        0.0950
      6 C         -25.4633   -8.3761  -10.2166 C.3     1  UNL1        0.0932
      7 C         -26.5116   -8.1288  -11.1028 C.3     1  UNL1        0.1789
      8 F         -27.7924   -8.2631  -10.6769 F       1  UNL1       -0.2361
      9 C         -26.2418   -7.7441  -12.4193 C.3     1  UNL1        0.1186
     10 I         -27.8404   -7.3702  -13.7548 I       1  UNL1       -0.0695
     11 C         -24.9168   -7.6067  -12.8544 C.3     1  UNL1        0.1856
     12 F         -24.6879   -7.2331  -14.1400 F       1  UNL1       -0.2357
     13 C         -23.8452   -7.8566  -11.9651 C.3     1  UNL1        0.1419
     14 C         -22.4960   -7.7372  -12.3582 C.2     1  UNL1        0.1637
     15 O         -22.2055   -7.3850  -13.5350 O.2     1  UNL1       -0.2956
     16 H         -23.3479   -8.7414   -8.7709 H       1  UNL1        0.2374
     17 C         -20.7706   -8.5875   -9.0744 C.3     1  UNL1        0.0516
     18 C         -20.7610   -7.8137   -7.9068 C.3     1  UNL1        0.0071
     19 C         -19.7792   -8.0150   -6.9329 C.3     1  UNL1        0.0162
     20 C         -18.7779   -8.9898   -7.1118 C.3     1  UNL1        0.0577
     21 C         -18.7860   -9.7520   -8.2966 C.3     1  UNL1        0.0162
     22 C         -19.7686   -9.5484   -9.2690 C.3     1  UNL1        0.0071
     23 N         -17.7614   -9.2005   -6.1037 N.3     1  UNL1       -0.2692
     24 C         -17.0870  -10.4721   -5.8822 C.3     1  UNL1        0.0779
     25 C         -16.2499  -10.2862   -4.6242 C.3     1  UNL1        0.0853
     26 C         -16.1152   -8.7772   -4.4423 C.3     1  UNL1        0.2797
     27 F         -16.1416   -8.4344   -3.1009 F       1  UNL1       -0.2028
     28 F         -14.9267   -8.3415   -5.0059 F       1  UNL1       -0.2028
     29 C         -17.2979   -8.1684   -5.1869 C.3     1  UNL1        0.1394
@<TRIPOS>BOND
     1     1     2    1
     2     2     3    1
     3     3    17    1
     4    17    18    1
     5    18    19    1
     6    19    20    1
     7    20    23    1
     8    23    24    1
     9    24    25    1
    10    25    26    1
    11    26    27    1
    12    26    28    1
    13    26    29    1
    14    20    21    1
    15    21    22    1
    16     3     4    1
    17     4     5    1
    18     5     6    1
    19     6     7    1
    20     7     8    1
    21     7     9    1
    22     9    10    1
    23     9    11    1
    24    11    12    1
    25    11    13    1
    26    13    14    1
    27    14    15    2
    28    14     2    1
    29    22    17    1
    30    13     5    1
    31    29    23    1
    32     4    16    1
