@<TRIPOS>MOLECULE
*****
 36 39 0 0 0
SMALL
GASTEIGER

@<TRIPOS>ATOM
      1 N         -29.3624   46.6744   -6.8964 N.am    1  UNL1       -0.2685
      2 C         -28.3391   46.6639   -7.9081 C.2     1  UNL1        0.2672
      3 O         -28.2912   45.7087   -8.7302 O.2     1  UNL1       -0.2682
      4 C         -27.3251   47.7368   -7.9615 C.ar    1  UNL1        0.1347
      5 C         -27.1564   48.5184   -9.1160 C.ar    1  UNL1        0.0238
      6 C         -26.1712   49.5142   -9.1380 C.ar    1  UNL1        0.0031
      7 C         -25.9804   50.3135  -10.2761 C.ar    1  UNL1        0.0001
      8 C         -24.9917   51.3024  -10.2802 C.ar    1  UNL1        0.0000
      9 C         -24.1890   51.4999   -9.1529 C.ar    1  UNL1        0.0000
     10 C         -24.3694   50.7098   -8.0136 C.ar    1  UNL1        0.0015
     11 C         -25.3587   49.7152   -7.9994 C.ar    1  UNL1        0.0192
     12 C         -25.5588   48.9097   -6.8723 C.ar    1  UNL1        0.0989
     13 N         -26.5226   47.9523   -6.8830 N.ar    1  UNL1       -0.2393
     14 C         -31.2581   47.7748   -8.0852 C.3     1  UNL1        0.0265
     15 C         -30.3245   47.7929   -6.8639 C.3     1  UNL1        0.1007
     16 C         -29.5955   49.1121   -6.6515 C.ar    1  UNL1        0.0234
     17 C         -29.4669   50.0707   -7.6791 C.ar    1  UNL1        0.0019
     18 C         -28.7518   51.2522   -7.4636 C.ar    1  UNL1        0.0295
     19 C         -28.1433   51.4894   -6.2303 C.ar    1  UNL1        0.1424
     20 F         -27.4483   52.6354   -6.0259 F       1  UNL1       -0.2041
     21 C         -28.2429   50.5415   -5.2107 C.ar    1  UNL1        0.0590
     22 C         -28.9564   49.3567   -5.4176 C.ar    1  UNL1        0.1399
     23 F         -29.0169   48.4454   -4.4132 F       1  UNL1       -0.2044
     24 C         -29.5658   45.4565   -6.0972 C.3     1  UNL1        0.1207
     25 C         -29.0029   45.6450   -4.7124 C.ar    1  UNL1       -0.0016
     26 C         -29.8619   45.7312   -3.6066 C.ar    1  UNL1        0.0033
     27 C         -29.3397   45.8383   -2.3151 C.ar    1  UNL1        0.0214
     28 S         -30.4450   45.9407   -0.9110 S.3     1  UNL1       -0.1414
     29 C         -27.9555   45.8559   -2.1179 C.ar    1  UNL1        0.0123
     30 C         -27.0791   45.7620   -3.2134 C.ar    1  UNL1        0.0757
     31 C         -27.6139   45.6539   -4.5090 C.ar    1  UNL1        0.0039
     32 H         -30.4731   44.5411   -0.7640 H       1  UNL1        0.1071
     33 C         -25.6134   45.7681   -3.0096 C.2     1  UNL1        0.3380
     34 O         -24.8471   46.2339   -3.8959 O.2     1  UNL1       -0.2451
     35 O         -25.0659   45.2593   -1.8345 O.3     1  UNL1       -0.4771
     36 H         -24.0641   45.2595   -1.6846 H       1  UNL1        0.2954
@<TRIPOS>BOND
     1    14    15    1
     2    15    16    1
     3    16    17   ar
     4    17    18   ar
     5    18    19   ar
     6    19    20    1
     7    19    21   ar
     8    21    22   ar
     9    22    23    1
    10    15     1    1
    11     1    24    1
    12    24    25    1
    13    25    26   ar
    14    26    27   ar
    15    27    28    1
    16    27    29   ar
    17    29    30   ar
    18    30    33    1
    19    33    34    2
    20    33    35    1
    21    30    31   ar
    22     1     2   am
    23     2     3    2
    24     2     4    1
    25     4     5   ar
    26     5     6   ar
    27     6     7   ar
    28     7     8   ar
    29     8     9   ar
    30     9    10   ar
    31    10    11   ar
    32    11    12   ar
    33    12    13   ar
    34    22    16   ar
    35    31    25   ar
    36    13     4   ar
    37    11     6   ar
    38    28    32    1
    39    35    36    1
@<TRIPOS>MOLECULE
*****
 36 39 0 0 0
SMALL
GASTEIGER

@<TRIPOS>ATOM
      1 N         -29.3853   47.0402   -6.6638 N.am    1  UNL1       -0.2685
      2 C         -29.2321   47.3337   -8.0641 C.2     1  UNL1        0.2672
      3 O         -29.8035   46.6006   -8.9165 O.2     1  UNL1       -0.2682
      4 C         -28.3796   48.4559   -8.5070 C.ar    1  UNL1        0.1347
      5 C         -27.0667   48.6013   -8.0304 C.ar    1  UNL1        0.0238
      6 C         -26.2936   49.6892   -8.4568 C.ar    1  UNL1        0.0031
      7 C         -24.9772   49.8601   -8.0003 C.ar    1  UNL1        0.0001
      8 C         -24.2205   50.9523   -8.4363 C.ar    1  UNL1        0.0000
      9 C         -24.7702   51.8786   -9.3274 C.ar    1  UNL1        0.0000
     10 C         -26.0804   51.7192   -9.7888 C.ar    1  UNL1        0.0015
     11 C         -26.8476   50.6266   -9.3575 C.ar    1  UNL1        0.0192
     12 C         -28.1620   50.4447   -9.8030 C.ar    1  UNL1        0.0989
     13 N         -28.8855   49.3794   -9.3702 N.ar    1  UNL1       -0.2393
     14 C         -31.3911   48.4726   -6.2861 C.3     1  UNL1        0.0265
     15 C         -30.0000   48.0528   -5.7839 C.3     1  UNL1        0.1007
     16 C         -29.0390   49.2114   -5.5582 C.ar    1  UNL1        0.0234
     17 C         -27.8687   49.0736   -4.7818 C.ar    1  UNL1        0.0019
     18 C         -27.0315   50.1700   -4.5571 C.ar    1  UNL1        0.0295
     19 C         -27.3536   51.4197   -5.0882 C.ar    1  UNL1        0.1424
     20 F         -26.5404   52.4815   -4.8660 F       1  UNL1       -0.2041
     21 C         -28.5187   51.5775   -5.8403 C.ar    1  UNL1        0.0590
     22 C         -29.3622   50.4860   -6.0700 C.ar    1  UNL1        0.1399
     23 F         -30.4987   50.6768   -6.7876 F       1  UNL1       -0.2044
     24 C         -29.1574   45.6592   -6.2114 C.3     1  UNL1        0.1207
     25 C         -28.7471   45.6496   -4.7617 C.ar    1  UNL1       -0.0016
     26 C         -29.7212   45.6268   -3.7523 C.ar    1  UNL1        0.0033
     27 C         -29.3430   45.5498   -2.4095 C.ar    1  UNL1        0.0214
     28 S         -30.5944   45.5144   -1.1303 S.3     1  UNL1       -0.1414
     29 C         -27.9891   45.4907   -2.0648 C.ar    1  UNL1        0.0123
     30 C         -26.9991   45.5039   -3.0632 C.ar    1  UNL1        0.0757
     31 C         -27.3894   45.5810   -4.4116 C.ar    1  UNL1        0.0039
     32 H         -30.6709   44.1095   -1.1704 H       1  UNL1        0.1071
     33 C         -25.5653   45.4296   -2.7048 C.2     1  UNL1        0.3380
     34 O         -24.6928   45.9536   -3.4490 O.2     1  UNL1       -0.2451
     35 O         -25.1657   44.7799   -1.5396 O.3     1  UNL1       -0.4771
     36 H         -24.1869   44.7240   -1.2846 H       1  UNL1        0.2954
@<TRIPOS>BOND
     1    14    15    1
     2    15    16    1
     3    16    17   ar
     4    17    18   ar
     5    18    19   ar
     6    19    20    1
     7    19    21   ar
     8    21    22   ar
     9    22    23    1
    10    15     1    1
    11     1    24    1
    12    24    25    1
    13    25    26   ar
    14    26    27   ar
    15    27    28    1
    16    27    29   ar
    17    29    30   ar
    18    30    33    1
    19    33    34    2
    20    33    35    1
    21    30    31   ar
    22     1     2   am
    23     2     3    2
    24     2     4    1
    25     4     5   ar
    26     5     6   ar
    27     6     7   ar
    28     7     8   ar
    29     8     9   ar
    30     9    10   ar
    31    10    11   ar
    32    11    12   ar
    33    12    13   ar
    34    22    16   ar
    35    31    25   ar
    36    13     4   ar
    37    11     6   ar
    38    28    32    1
    39    35    36    1
@<TRIPOS>MOLECULE
*****
 36 39 0 0 0
SMALL
GASTEIGER

@<TRIPOS>ATOM
      1 N         -29.3327   46.7011   -6.8261 N.am    1  UNL1       -0.2685
      2 C         -28.3377   46.6953   -7.8656 C.2     1  UNL1        0.2672
      3 O         -28.3188   45.7490   -8.6992 O.2     1  UNL1       -0.2682
      4 C         -27.3185   47.7623   -7.9352 C.ar    1  UNL1        0.1347
      5 C         -27.1494   48.5288   -9.0997 C.ar    1  UNL1        0.0238
      6 C         -26.1591   49.5192   -9.1368 C.ar    1  UNL1        0.0031
      7 C         -25.9678   50.3035  -10.2852 C.ar    1  UNL1        0.0001
      8 C         -24.9741   51.2873  -10.3045 C.ar    1  UNL1        0.0000
      9 C         -24.1670   51.4945   -9.1820 C.ar    1  UNL1        0.0000
     10 C         -24.3479   50.7194   -8.0326 C.ar    1  UNL1        0.0015
     11 C         -25.3422   49.7301   -8.0032 C.ar    1  UNL1        0.0192
     12 C         -25.5430   48.9395   -6.8657 C.ar    1  UNL1        0.0989
     13 N         -26.5116   47.9869   -6.8619 N.ar    1  UNL1       -0.2393
     14 C         -31.2568   47.8233   -7.9470 C.3     1  UNL1        0.0265
     15 C         -30.2860   47.8252   -6.7548 C.3     1  UNL1        0.1007
     16 C         -29.5424   49.1379   -6.5540 C.ar    1  UNL1        0.0234
     17 C         -29.4085   50.0888   -7.5881 C.ar    1  UNL1        0.0019
     18 C         -28.6801   51.2641   -7.3832 C.ar    1  UNL1        0.0295
     19 C         -28.0636   51.5025   -6.1542 C.ar    1  UNL1        0.1424
     20 F         -27.3558   52.6425   -5.9601 F       1  UNL1       -0.2041
     21 C         -28.1684   50.5621   -5.1282 C.ar    1  UNL1        0.0590
     22 C         -28.8951   49.3836   -5.3245 C.ar    1  UNL1        0.1399
     23 F         -28.9606   48.4792   -4.3141 F       1  UNL1       -0.2044
     24 C         -29.5222   45.4756   -6.0349 C.3     1  UNL1        0.1207
     25 C         -28.8807   45.6287   -4.6802 C.ar    1  UNL1       -0.0016
     26 C         -27.4907   45.7827   -4.5704 C.ar    1  UNL1        0.0033
     27 C         -26.9012   45.9922   -3.3210 C.ar    1  UNL1        0.0214
     28 S         -25.1273   46.1942   -3.1936 S.3     1  UNL1       -0.1414
     29 C         -27.6961   46.0537   -2.1724 C.ar    1  UNL1        0.0123
     30 C         -29.0919   45.9100   -2.2641 C.ar    1  UNL1        0.0757
     31 C         -29.6759   45.7002   -3.5255 C.ar    1  UNL1        0.0039
     32 H         -25.2208   47.5884   -3.3630 H       1  UNL1        0.1071
     33 C         -29.9391   45.9862   -1.0532 C.2     1  UNL1        0.3380
     34 O         -31.1911   45.8648   -1.1408 O.2     1  UNL1       -0.2451
     35 O         -29.3606   46.1922    0.1967 O.3     1  UNL1       -0.4771
     36 H         -29.9313   46.2451    1.0319 H       1  UNL1        0.2954
@<TRIPOS>BOND
     1    14    15    1
     2    15    16    1
     3    16    17   ar
     4    17    18   ar
     5    18    19   ar
     6    19    20    1
     7    19    21   ar
     8    21    22   ar
     9    22    23    1
    10    15     1    1
    11     1    24    1
    12    24    25    1
    13    25    26   ar
    14    26    27   ar
    15    27    28    1
    16    27    29   ar
    17    29    30   ar
    18    30    33    1
    19    33    34    2
    20    33    35    1
    21    30    31   ar
    22     1     2   am
    23     2     3    2
    24     2     4    1
    25     4     5   ar
    26     5     6   ar
    27     6     7   ar
    28     7     8   ar
    29     8     9   ar
    30     9    10   ar
    31    10    11   ar
    32    11    12   ar
    33    12    13   ar
    34    22    16   ar
    35    31    25   ar
    36    13     4   ar
    37    11     6   ar
    38    28    32    1
    39    35    36    1
@<TRIPOS>MOLECULE
*****
 36 39 0 0 0
SMALL
GASTEIGER

@<TRIPOS>ATOM
      1 N         -29.3471   48.5357   -8.8095 N.am    1  UNL1       -0.2685
      2 C         -28.7890   49.5743   -7.9845 C.2     1  UNL1        0.2672
      3 O         -29.4865   50.0718   -7.0590 O.2     1  UNL1       -0.2682
      4 C         -27.4278   50.0874   -8.2419 C.ar    1  UNL1        0.1347
      5 C         -26.9753   50.3180   -9.5511 C.ar    1  UNL1        0.0238
      6 C         -25.6712   50.7861   -9.7587 C.ar    1  UNL1        0.0031
      7 C         -25.1910   51.0288  -11.0552 C.ar    1  UNL1        0.0001
      8 C         -23.8863   51.4954  -11.2434 C.ar    1  UNL1        0.0000
      9 C         -23.0543   51.7222  -10.1432 C.ar    1  UNL1        0.0000
     10 C         -23.5212   51.4838   -8.8470 C.ar    1  UNL1        0.0015
     11 C         -24.8287   51.0158   -8.6477 C.ar    1  UNL1        0.0192
     12 C         -25.3201   50.7678   -7.3607 C.ar    1  UNL1        0.0989
     13 N         -26.5895   50.3137   -7.1932 N.ar    1  UNL1       -0.2393
     14 C         -29.6932   46.0883   -9.1389 C.3     1  UNL1        0.0265
     15 C         -28.6907   47.2144   -8.8375 C.3     1  UNL1        0.1007
     16 C         -27.8723   47.0029   -7.5718 C.ar    1  UNL1        0.0234
     17 C         -28.4775   46.8200   -6.3102 C.ar    1  UNL1        0.0019
     18 C         -27.6954   46.6738   -5.1610 C.ar    1  UNL1        0.0295
     19 C         -26.3035   46.7223   -5.2484 C.ar    1  UNL1        0.1424
     20 F         -25.5483   46.5827   -4.1311 F       1  UNL1       -0.2041
     21 C         -25.6898   46.9241   -6.4856 C.ar    1  UNL1        0.0590
     22 C         -26.4646   47.0714   -7.6405 C.ar    1  UNL1        0.1399
     23 F         -25.8383   47.2874   -8.8255 F       1  UNL1       -0.2044
     24 C         -30.6806   48.7488   -9.3924 C.3     1  UNL1        0.1207
     25 C         -30.5570   49.4021  -10.7445 C.ar    1  UNL1       -0.0016
     26 C         -30.4955   48.6167  -11.9053 C.ar    1  UNL1        0.0033
     27 C         -30.4488   49.2215  -13.1639 C.ar    1  UNL1        0.0214
     28 S         -30.3775   48.2095  -14.6385 S.3     1  UNL1       -0.1414
     29 C         -30.4674   50.6154  -13.2729 C.ar    1  UNL1        0.0123
     30 C         -30.5374   51.4186  -12.1209 C.ar    1  UNL1        0.0757
     31 C         -30.5846   50.8009  -10.8590 C.ar    1  UNL1        0.0039
     32 H         -31.7808   48.1585  -14.7352 H       1  UNL1        0.1071
     33 C         -30.5694   52.8940  -12.2309 C.2     1  UNL1        0.3380
     34 O         -31.5826   53.5411  -11.8508 O.2     1  UNL1       -0.2451
     35 O         -29.4786   53.5828  -12.7553 O.3     1  UNL1       -0.4771
     36 H         -29.4899   54.5926  -12.8342 H       1  UNL1        0.2954
@<TRIPOS>BOND
     1    14    15    1
     2    15    16    1
     3    16    17   ar
     4    17    18   ar
     5    18    19   ar
     6    19    20    1
     7    19    21   ar
     8    21    22   ar
     9    22    23    1
    10    15     1    1
    11     1    24    1
    12    24    25    1
    13    25    26   ar
    14    26    27   ar
    15    27    28    1
    16    27    29   ar
    17    29    30   ar
    18    30    33    1
    19    33    34    2
    20    33    35    1
    21    30    31   ar
    22     1     2   am
    23     2     3    2
    24     2     4    1
    25     4     5   ar
    26     5     6   ar
    27     6     7   ar
    28     7     8   ar
    29     8     9   ar
    30     9    10   ar
    31    10    11   ar
    32    11    12   ar
    33    12    13   ar
    34    22    16   ar
    35    31    25   ar
    36    13     4   ar
    37    11     6   ar
    38    28    32    1
    39    35    36    1
@<TRIPOS>MOLECULE
*****
 36 39 0 0 0
SMALL
GASTEIGER

@<TRIPOS>ATOM
      1 N         -28.3010   47.9044   -6.5829 N.am    1  UNL1       -0.2685
      2 C         -29.5821   47.9222   -7.2380 C.2     1  UNL1        0.2672
      3 O         -30.4570   47.0751   -6.9099 O.2     1  UNL1       -0.2682
      4 C         -29.8608   48.8933   -8.3157 C.ar    1  UNL1        0.1347
      5 C         -28.8808   49.2232   -9.2658 C.ar    1  UNL1        0.0238
      6 C         -29.1737   50.1635  -10.2623 C.ar    1  UNL1        0.0031
      7 C         -28.2160   50.5119  -11.2277 C.ar    1  UNL1        0.0001
      8 C         -28.5259   51.4529  -12.2146 C.ar    1  UNL1        0.0000
      9 C         -29.7891   52.0510  -12.2450 C.ar    1  UNL1        0.0000
     10 C         -30.7511   51.7123  -11.2886 C.ar    1  UNL1        0.0015
     11 C         -30.4500   50.7692  -10.2945 C.ar    1  UNL1        0.0192
     12 C         -31.3945   50.4137   -9.3246 C.ar    1  UNL1        0.0989
     13 N         -31.0790   49.4987   -8.3713 N.ar    1  UNL1       -0.2393
     14 C         -29.0093   49.6777   -4.9793 C.3     1  UNL1        0.0265
     15 C         -27.8671   49.0958   -5.8281 C.3     1  UNL1        0.1007
     16 C         -27.2040   50.1002   -6.7598 C.ar    1  UNL1        0.0234
     17 C         -27.7766   51.3610   -7.0320 C.ar    1  UNL1        0.0019
     18 C         -27.1640   52.2415   -7.9281 C.ar    1  UNL1        0.0295
     19 C         -25.9836   51.8750   -8.5761 C.ar    1  UNL1        0.1424
     20 F         -25.3937   52.7307   -9.4467 F       1  UNL1       -0.2041
     21 C         -25.4161   50.6230   -8.3343 C.ar    1  UNL1        0.0590
     22 C         -26.0223   49.7358   -7.4393 C.ar    1  UNL1        0.1399
     23 F         -25.4570   48.5174   -7.2418 F       1  UNL1       -0.2044
     24 C         -27.5881   46.6219   -6.4793 C.3     1  UNL1        0.1207
     25 C         -27.6430   46.1111   -5.0629 C.ar    1  UNL1       -0.0016
     26 C         -28.8779   45.8177   -4.4654 C.ar    1  UNL1        0.0033
     27 C         -28.9273   45.2805   -3.1765 C.ar    1  UNL1        0.0214
     28 S         -30.5082   44.9035   -2.4266 S.3     1  UNL1       -0.1414
     29 C         -27.7436   45.0285   -2.4762 C.ar    1  UNL1        0.0123
     30 C         -26.4964   45.3083   -3.0623 C.ar    1  UNL1        0.0757
     31 C         -26.4568   45.8481   -4.3598 C.ar    1  UNL1        0.0039
     32 H         -30.5051   43.5974   -2.9512 H       1  UNL1        0.1071
     33 C         -25.2402   45.0325   -2.3305 C.2     1  UNL1        0.3380
     34 O         -24.1483   45.5213   -2.7288 O.2     1  UNL1       -0.2451
     35 O         -25.2523   44.2297   -1.1926 O.3     1  UNL1       -0.4771
     36 H         -24.3982   44.0353   -0.6838 H       1  UNL1        0.2954
@<TRIPOS>BOND
     1    14    15    1
     2    15    16    1
     3    16    17   ar
     4    17    18   ar
     5    18    19   ar
     6    19    20    1
     7    19    21   ar
     8    21    22   ar
     9    22    23    1
    10    15     1    1
    11     1    24    1
    12    24    25    1
    13    25    26   ar
    14    26    27   ar
    15    27    28    1
    16    27    29   ar
    17    29    30   ar
    18    30    33    1
    19    33    34    2
    20    33    35    1
    21    30    31   ar
    22     1     2   am
    23     2     3    2
    24     2     4    1
    25     4     5   ar
    26     5     6   ar
    27     6     7   ar
    28     7     8   ar
    29     8     9   ar
    30     9    10   ar
    31    10    11   ar
    32    11    12   ar
    33    12    13   ar
    34    22    16   ar
    35    31    25   ar
    36    13     4   ar
    37    11     6   ar
    38    28    32    1
    39    35    36    1
@<TRIPOS>MOLECULE
*****
 36 39 0 0 0
SMALL
GASTEIGER

@<TRIPOS>ATOM
      1 N         -29.0645   49.4177   -8.8013 N.am    1  UNL1       -0.2685
      2 C         -28.6402   48.0568   -8.6048 C.2     1  UNL1        0.2672
      3 O         -28.9356   47.1856   -9.4676 O.2     1  UNL1       -0.2682
      4 C         -27.9028   47.6690   -7.3850 C.ar    1  UNL1        0.1347
      5 C         -28.4393   47.9022   -6.1083 C.ar    1  UNL1        0.0238
      6 C         -27.7030   47.5394   -4.9729 C.ar    1  UNL1        0.0031
      7 C         -28.2136   47.7571   -3.6836 C.ar    1  UNL1        0.0001
      8 C         -27.4643   47.3891   -2.5617 C.ar    1  UNL1        0.0000
      9 C         -26.2046   46.8035   -2.7178 C.ar    1  UNL1        0.0000
     10 C         -25.6853   46.5820   -3.9969 C.ar    1  UNL1        0.0015
     11 C         -26.4293   46.9475   -5.1287 C.ar    1  UNL1        0.0192
     12 C         -25.9319   46.7380   -6.4202 C.ar    1  UNL1        0.0989
     13 N         -26.6707   47.1015   -7.5008 N.ar    1  UNL1       -0.2393
     14 C         -26.9894   50.1550   -9.9710 C.3     1  UNL1        0.0265
     15 C         -28.0431   50.4782   -8.8991 C.3     1  UNL1        0.1007
     16 C         -27.4655   50.7852   -7.5248 C.ar    1  UNL1        0.0234
     17 C         -26.1323   50.4712   -7.1853 C.ar    1  UNL1        0.0019
     18 C         -25.6474   50.7255   -5.8993 C.ar    1  UNL1        0.0295
     19 C         -26.4845   51.2808   -4.9305 C.ar    1  UNL1        0.1424
     20 F         -26.0112   51.5236   -3.6834 F       1  UNL1       -0.2041
     21 C         -27.8118   51.5771   -5.2440 C.ar    1  UNL1        0.0590
     22 C         -28.3053   51.3260   -6.5281 C.ar    1  UNL1        0.1399
     23 F         -29.6066   51.6057   -6.7954 F       1  UNL1       -0.2044
     24 C         -30.4726   49.6666   -9.1463 C.3     1  UNL1        0.1207
     25 C         -30.5856   50.0946  -10.5865 C.ar    1  UNL1       -0.0016
     26 C         -30.7882   49.1391  -11.5934 C.ar    1  UNL1        0.0033
     27 C         -30.9606   49.5396  -12.9208 C.ar    1  UNL1        0.0214
     28 S         -31.2253   48.3120  -14.1963 S.3     1  UNL1       -0.1414
     29 C         -30.9362   50.8978  -13.2520 C.ar    1  UNL1        0.0123
     30 C         -30.7428   51.8703  -12.2550 C.ar    1  UNL1        0.0757
     31 C         -30.5709   51.4577  -10.9221 C.ar    1  UNL1        0.0039
     32 H         -32.6213   48.3545  -14.0213 H       1  UNL1        0.1071
     33 C         -30.7280   53.3097  -12.5980 C.2     1  UNL1        0.3380
     34 O         -31.5094   53.7651  -13.4765 O.2     1  UNL1       -0.2451
     35 O         -29.8500   54.1764  -11.9520 O.3     1  UNL1       -0.4771
     36 H         -29.8323   55.1635  -12.1787 H       1  UNL1        0.2954
@<TRIPOS>BOND
     1    14    15    1
     2    15    16    1
     3    16    17   ar
     4    17    18   ar
     5    18    19   ar
     6    19    20    1
     7    19    21   ar
     8    21    22   ar
     9    22    23    1
    10    15     1    1
    11     1    24    1
    12    24    25    1
    13    25    26   ar
    14    26    27   ar
    15    27    28    1
    16    27    29   ar
    17    29    30   ar
    18    30    33    1
    19    33    34    2
    20    33    35    1
    21    30    31   ar
    22     1     2   am
    23     2     3    2
    24     2     4    1
    25     4     5   ar
    26     5     6   ar
    27     6     7   ar
    28     7     8   ar
    29     8     9   ar
    30     9    10   ar
    31    10    11   ar
    32    11    12   ar
    33    12    13   ar
    34    22    16   ar
    35    31    25   ar
    36    13     4   ar
    37    11     6   ar
    38    28    32    1
    39    35    36    1
@<TRIPOS>MOLECULE
*****
 36 39 0 0 0
SMALL
GASTEIGER

@<TRIPOS>ATOM
      1 N         -29.7796   48.0638   -6.1818 N.am    1  UNL1       -0.2685
      2 C         -29.3158   48.3045   -7.5226 C.2     1  UNL1        0.2672
      3 O         -30.0321   47.9504   -8.4984 O.2     1  UNL1       -0.2682
      4 C         -27.9946   48.9209   -7.7607 C.ar    1  UNL1        0.1347
      5 C         -27.8715   50.1110   -8.4959 C.ar    1  UNL1        0.0238
      6 C         -26.6005   50.6566   -8.7191 C.ar    1  UNL1        0.0031
      7 C         -26.4454   51.8464   -9.4478 C.ar    1  UNL1        0.0001
      8 C         -25.1690   52.3762   -9.6612 C.ar    1  UNL1        0.0000
      9 C         -24.0422   51.7246   -9.1511 C.ar    1  UNL1        0.0000
     10 C         -24.1840   50.5388   -8.4242 C.ar    1  UNL1        0.0015
     11 C         -25.4604   49.9994   -8.2044 C.ar    1  UNL1        0.0192
     12 C         -25.6298   48.8129   -7.4813 C.ar    1  UNL1        0.0989
     13 N         -26.8759   48.3096   -7.2827 N.ar    1  UNL1       -0.2393
     14 C         -30.9842   50.2238   -5.8637 C.3     1  UNL1        0.0265
     15 C         -29.9844   49.2129   -5.2789 C.3     1  UNL1        0.1007
     16 C         -28.6457   49.8157   -4.8774 C.ar    1  UNL1        0.0234
     17 C         -27.7472   49.1425   -4.0224 C.ar    1  UNL1        0.0019
     18 C         -26.5460   49.7446   -3.6373 C.ar    1  UNL1        0.0295
     19 C         -26.2291   51.0280   -4.0844 C.ar    1  UNL1        0.1424
     20 F         -25.0642   51.6097   -3.7067 F       1  UNL1       -0.2041
     21 C         -27.1169   51.7159   -4.9131 C.ar    1  UNL1        0.0590
     22 C         -28.3209   51.1211   -5.3033 C.ar    1  UNL1        0.1399
     23 F         -29.1726   51.8244   -6.0926 F       1  UNL1       -0.2044
     24 C         -30.2684   46.7184   -5.8437 C.3     1  UNL1        0.1207
     25 C         -29.5275   46.1834   -4.6458 C.ar    1  UNL1       -0.0016
     26 C         -28.2424   45.6408   -4.7948 C.ar    1  UNL1        0.0033
     27 C         -27.5268   45.2060   -3.6763 C.ar    1  UNL1        0.0214
     28 S         -25.8852   44.5217   -3.8774 S.3     1  UNL1       -0.1414
     29 C         -28.0876   45.3139   -2.3999 C.ar    1  UNL1        0.0123
     30 C         -29.3710   45.8629   -2.2304 C.ar    1  UNL1        0.0757
     31 C         -30.0830   46.2981   -3.3617 C.ar    1  UNL1        0.0039
     32 H         -25.2841   45.7878   -3.7473 H       1  UNL1        0.1071
     33 C         -29.9646   45.9904   -0.8809 C.2     1  UNL1        0.3380
     34 O         -29.2290   45.9905    0.1432 O.2     1  UNL1       -0.2451
     35 O         -31.3435   46.1127   -0.7291 O.3     1  UNL1       -0.4771
     36 H         -31.7600   46.2013    0.1901 H       1  UNL1        0.2954
@<TRIPOS>BOND
     1    14    15    1
     2    15    16    1
     3    16    17   ar
     4    17    18   ar
     5    18    19   ar
     6    19    20    1
     7    19    21   ar
     8    21    22   ar
     9    22    23    1
    10    15     1    1
    11     1    24    1
    12    24    25    1
    13    25    26   ar
    14    26    27   ar
    15    27    28    1
    16    27    29   ar
    17    29    30   ar
    18    30    33    1
    19    33    34    2
    20    33    35    1
    21    30    31   ar
    22     1     2   am
    23     2     3    2
    24     2     4    1
    25     4     5   ar
    26     5     6   ar
    27     6     7   ar
    28     7     8   ar
    29     8     9   ar
    30     9    10   ar
    31    10    11   ar
    32    11    12   ar
    33    12    13   ar
    34    22    16   ar
    35    31    25   ar
    36    13     4   ar
    37    11     6   ar
    38    28    32    1
    39    35    36    1
@<TRIPOS>MOLECULE
*****
 36 39 0 0 0
SMALL
GASTEIGER

@<TRIPOS>ATOM
      1 N         -30.7464   49.0903   -7.6262 N.am    1  UNL1       -0.2685
      2 C         -30.4958   50.2712   -8.4093 C.2     1  UNL1        0.2672
      3 O         -31.4628   50.8680   -8.9565 O.2     1  UNL1       -0.2682
      4 C         -29.1164   50.7602   -8.6099 C.ar    1  UNL1        0.1347
      5 C         -28.3002   50.2327   -9.6237 C.ar    1  UNL1        0.0238
      6 C         -26.9901   50.7065   -9.7722 C.ar    1  UNL1        0.0031
      7 C         -26.1511   50.2009  -10.7778 C.ar    1  UNL1        0.0001
      8 C         -24.8460   50.6853  -10.9108 C.ar    1  UNL1        0.0000
      9 C         -24.3704   51.6738  -10.0443 C.ar    1  UNL1        0.0000
     10 C         -25.1966   52.1848   -9.0387 C.ar    1  UNL1        0.0015
     11 C         -26.5075   51.7056   -8.8972 C.ar    1  UNL1        0.0192
     12 C         -27.3544   52.1992   -7.8980 C.ar    1  UNL1        0.0989
     13 N         -28.6196   51.7185   -7.7801 N.ar    1  UNL1       -0.2393
     14 C         -30.4399   50.4990   -5.5917 C.3     1  UNL1        0.0265
     15 C         -30.3762   49.0875   -6.1977 C.3     1  UNL1        0.1007
     16 C         -29.0442   48.3788   -5.9975 C.ar    1  UNL1        0.0234
     17 C         -27.8100   49.0417   -6.1671 C.ar    1  UNL1        0.0019
     18 C         -26.6049   48.3491   -6.0197 C.ar    1  UNL1        0.0295
     19 C         -26.6107   46.9869   -5.7169 C.ar    1  UNL1        0.1424
     20 F         -25.4398   46.3179   -5.5772 F       1  UNL1       -0.2041
     21 C         -27.8231   46.3117   -5.5672 C.ar    1  UNL1        0.0590
     22 C         -29.0335   46.9968   -5.7129 C.ar    1  UNL1        0.1399
     23 F         -30.1956   46.3073   -5.5821 F       1  UNL1       -0.2044
     24 C         -31.5835   48.0309   -8.2097 C.3     1  UNL1        0.1207
     25 C         -30.8398   47.3349   -9.3200 C.ar    1  UNL1       -0.0016
     26 C         -31.3950   47.2651  -10.6064 C.ar    1  UNL1        0.0033
     27 C         -30.6777   46.6796  -11.6528 C.ar    1  UNL1        0.0214
     28 S         -31.3930   46.6022  -13.2918 S.3     1  UNL1       -0.1414
     29 C         -29.3987   46.1632  -11.4232 C.ar    1  UNL1        0.0123
     30 C         -28.8227   46.2319  -10.1423 C.ar    1  UNL1        0.0757
     31 C         -29.5519   46.8233   -9.0960 C.ar    1  UNL1        0.0039
     32 H         -30.8517   47.8527  -13.6446 H       1  UNL1        0.1071
     33 C         -27.4648   45.6977   -9.8963 C.2     1  UNL1        0.3380
     34 O         -26.7358   46.1956   -8.9961 O.2     1  UNL1       -0.2451
     35 O         -26.9789   44.6375  -10.6574 O.3     1  UNL1       -0.4771
     36 H         -26.0512   44.2639  -10.4967 H       1  UNL1        0.2954
@<TRIPOS>BOND
     1    14    15    1
     2    15    16    1
     3    16    17   ar
     4    17    18   ar
     5    18    19   ar
     6    19    20    1
     7    19    21   ar
     8    21    22   ar
     9    22    23    1
    10    15     1    1
    11     1    24    1
    12    24    25    1
    13    25    26   ar
    14    26    27   ar
    15    27    28    1
    16    27    29   ar
    17    29    30   ar
    18    30    33    1
    19    33    34    2
    20    33    35    1
    21    30    31   ar
    22     1     2   am
    23     2     3    2
    24     2     4    1
    25     4     5   ar
    26     5     6   ar
    27     6     7   ar
    28     7     8   ar
    29     8     9   ar
    30     9    10   ar
    31    10    11   ar
    32    11    12   ar
    33    12    13   ar
    34    22    16   ar
    35    31    25   ar
    36    13     4   ar
    37    11     6   ar
    38    28    32    1
    39    35    36    1
@<TRIPOS>MOLECULE
*****
 36 39 0 0 0
SMALL
GASTEIGER

@<TRIPOS>ATOM
      1 N         -30.3064   49.5151   -7.5093 N.am    1  UNL1       -0.2685
      2 C         -29.5750   50.7160   -7.2030 C.2     1  UNL1        0.2672
      3 O         -30.1740   51.6842   -6.6605 O.2     1  UNL1       -0.2682
      4 C         -28.1460   50.8357   -7.5576 C.ar    1  UNL1        0.1347
      5 C         -27.7412   50.9973   -8.8925 C.ar    1  UNL1        0.0238
      6 C         -26.3760   51.0875   -9.1941 C.ar    1  UNL1        0.0031
      7 C         -25.9403   51.2521  -10.5184 C.ar    1  UNL1        0.0001
      8 C         -24.5735   51.3397  -10.8008 C.ar    1  UNL1        0.0000
      9 C         -23.6350   51.2636   -9.7675 C.ar    1  UNL1        0.0000
     10 C         -24.0568   51.0993   -8.4446 C.ar    1  UNL1        0.0015
     11 C         -25.4258   51.0106   -8.1510 C.ar    1  UNL1        0.0192
     12 C         -25.8744   50.8446   -6.8355 C.ar    1  UNL1        0.0989
     13 N         -27.2053   50.7601   -6.5763 N.ar    1  UNL1       -0.2393
     14 C         -29.1041   48.4818   -5.5847 C.3     1  UNL1        0.0265
     15 C         -29.8893   48.2448   -6.8850 C.3     1  UNL1        0.1007
     16 C         -29.1709   47.3670   -7.9000 C.ar    1  UNL1        0.0234
     17 C         -27.8147   47.5659   -8.2355 C.ar    1  UNL1        0.0019
     18 C         -27.1982   46.7703   -9.2054 C.ar    1  UNL1        0.0295
     19 C         -27.9247   45.7776   -9.8644 C.ar    1  UNL1        0.1424
     20 F         -27.3240   45.0096  -10.8064 F       1  UNL1       -0.2041
     21 C         -29.2727   45.5825   -9.5595 C.ar    1  UNL1        0.0590
     22 C         -29.8975   46.3740   -8.5906 C.ar    1  UNL1        0.1399
     23 F         -31.2150   46.1735   -8.3320 F       1  UNL1       -0.2044
     24 C         -31.5838   49.6404   -8.2277 C.3     1  UNL1        0.1207
     25 C         -31.3360   49.7611   -9.7090 C.ar    1  UNL1       -0.0016
     26 C         -31.5080   48.6490  -10.5467 C.ar    1  UNL1        0.0033
     27 C         -31.3442   48.7754  -11.9285 C.ar    1  UNL1        0.0214
     28 S         -31.5730   47.3513  -12.9884 S.3     1  UNL1       -0.1414
     29 C         -31.0114   50.0144  -12.4845 C.ar    1  UNL1        0.0123
     30 C         -30.8432   51.1420  -11.6614 C.ar    1  UNL1        0.0757
     31 C         -31.0107   51.0051  -10.2723 C.ar    1  UNL1        0.0039
     32 H         -32.9454   47.6220  -13.1447 H       1  UNL1        0.1071
     33 C         -30.5027   52.4583  -12.2455 C.2     1  UNL1        0.3380
     34 O         -29.6103   53.1783  -11.7212 O.2     1  UNL1       -0.2451
     35 O         -31.1652   52.9144  -13.3824 O.3     1  UNL1       -0.4771
     36 H         -30.9393   53.8135  -13.7907 H       1  UNL1        0.2954
@<TRIPOS>BOND
     1    14    15    1
     2    15    16    1
     3    16    17   ar
     4    17    18   ar
     5    18    19   ar
     6    19    20    1
     7    19    21   ar
     8    21    22   ar
     9    22    23    1
    10    15     1    1
    11     1    24    1
    12    24    25    1
    13    25    26   ar
    14    26    27   ar
    15    27    28    1
    16    27    29   ar
    17    29    30   ar
    18    30    33    1
    19    33    34    2
    20    33    35    1
    21    30    31   ar
    22     1     2   am
    23     2     3    2
    24     2     4    1
    25     4     5   ar
    26     5     6   ar
    27     6     7   ar
    28     7     8   ar
    29     8     9   ar
    30     9    10   ar
    31    10    11   ar
    32    11    12   ar
    33    12    13   ar
    34    22    16   ar
    35    31    25   ar
    36    13     4   ar
    37    11     6   ar
    38    28    32    1
    39    35    36    1
