@<TRIPOS>MOLECULE
*****
 62 67 0 0 0
SMALL
GASTEIGER

@<TRIPOS>ATOM
      1 C          11.5396   80.4556   25.2788 C.ar    1  UNL1        0.0001
      2 C          12.9238   80.2417   25.1665 C.ar    1  UNL1        0.0013
      3 C          13.7812   81.2966   24.8437 C.ar    1  UNL1        0.0147
      4 C          13.2720   82.5911   24.6344 C.ar    1  UNL1        0.0503
      5 C          11.8885   82.8000   24.7302 C.ar    1  UNL1        0.0147
      6 C          11.0305   81.7463   25.0568 C.ar    1  UNL1        0.0013
      7 C           8.8737   77.2701   26.4071 C.ar    1  UNL1        0.0503
      8 C          10.2152   77.2548   26.8250 C.ar    1  UNL1        0.0147
      9 C          11.0826   78.2852   26.4520 C.ar    1  UNL1        0.0013
     10 C          10.6333   79.3362   25.6341 C.ar    1  UNL1        0.0001
     11 C           9.3063   79.3192   25.1728 C.ar    1  UNL1        0.0013
     12 C           8.4379   78.2943   25.5547 C.ar    1  UNL1        0.0147
     13 C           6.6447   76.5248   27.3753 C.2     1  UNL1        0.2442
     14 O           6.3884   77.6391   27.9039 O.2     1  UNL1       -0.2730
     15 N           7.9403   76.2538   26.8103 N.am    1  UNL1       -0.2826
     16 H           8.1160   75.2834   26.4641 H       1  UNL1        0.1549
     17 C           6.2794   74.4523   25.0797 C.2     1  UNL1        0.2482
     18 O           6.8525   73.4744   24.5253 O.2     1  UNL1       -0.2727
     19 N           5.9429   74.3567   26.4805 N.am    1  UNL1       -0.2714
     20 C           5.9062   73.0776   27.1702 C.3     1  UNL1        0.0939
     21 C           5.2584   73.3506   28.5198 C.3     1  UNL1        0.0237
     22 C           5.3757   74.8545   28.7425 C.3     1  UNL1        0.0310
     23 C           5.5727   75.4674   27.3526 C.3     1  UNL1        0.1521
     24 C           5.9465   75.6784   24.2483 C.3     1  UNL1        0.1743
     25 C           7.0702   76.0402   23.2957 C.ar    1  UNL1        0.0044
     26 C           8.3320   75.4321   23.4335 C.ar    1  UNL1       -0.0022
     27 C           9.3905   75.7933   22.5949 C.ar    1  UNL1       -0.0003
     28 C           9.2096   76.7800   21.6243 C.ar    1  UNL1       -0.0000
     29 C           7.9702   77.4097   21.4925 C.ar    1  UNL1       -0.0003
     30 C           6.9073   77.0498   22.3271 C.ar    1  UNL1       -0.0022
     31 C           3.5623   76.3028   23.6334 C.2     1  UNL1        0.4023
     32 O           3.5508   77.2222   24.4980 O.2     1  UNL1       -0.2264
     33 N           4.7122   75.4610   23.4861 N.am    1  UNL1       -0.2606
     34 H           4.7001   74.7655   22.7060 H       1  UNL1        0.1535
     35 C           2.4592   76.4243   21.4228 C.3     1  UNL1        0.2573
     36 O           2.4546   76.0958   22.8068 O.3     1  UNL1       -0.4306
     37 N          14.1285   83.6907   24.2743 N.am    1  UNL1       -0.2826
     38 C          13.7007   85.0640   24.2530 C.2     1  UNL1        0.2442
     39 O          12.4877   85.3284   24.0337 O.2     1  UNL1       -0.2730
     40 H          15.0800   83.4644   23.9075 H       1  UNL1        0.1549
     41 C          14.6882   86.2129   24.3522 C.3     1  UNL1        0.1527
     42 C          14.1900   87.4101   25.1643 C.3     1  UNL1        0.0319
     43 C          14.9057   88.6124   24.5634 C.3     1  UNL1        0.0331
     44 C          15.1733   88.2318   23.1070 C.3     1  UNL1        0.1203
     45 S          16.8582   88.7438   22.6117 S.3     1  UNL1       -0.1491
     46 N          15.0144   86.7809   23.0475 N.am    1  UNL1       -0.2639
     47 C          15.4245   85.9909   21.9194 C.2     1  UNL1        0.2488
     48 O          16.5124   85.3567   21.9819 O.2     1  UNL1       -0.2727
     49 H          16.6406   88.4661   21.2507 H       1  UNL1        0.1038
     50 C          14.4912   85.7710   20.7483 C.3     1  UNL1        0.1743
     51 C          13.6742   87.0089   20.4426 C.ar    1  UNL1        0.0044
     52 C          14.2644   88.0854   19.7559 C.ar    1  UNL1       -0.0022
     53 C          13.5087   89.2136   19.4249 C.ar    1  UNL1       -0.0003
     54 C          12.1564   89.2766   19.7686 C.ar    1  UNL1       -0.0000
     55 C          11.5561   88.2096   20.4408 C.ar    1  UNL1       -0.0003
     56 C          12.3071   87.0785   20.7737 C.ar    1  UNL1       -0.0022
     57 N          15.2328   85.3415   19.5564 N.am    1  UNL1       -0.2606
     58 C          14.6056   84.6330   18.4814 C.2     1  UNL1        0.4023
     59 O          13.3929   84.2930   18.5638 O.2     1  UNL1       -0.2264
     60 H          16.2160   85.6678   19.4146 H       1  UNL1        0.1535
     61 O          15.3505   84.3258   17.3395 O.3     1  UNL1       -0.4306
     62 C          14.9975   84.7973   16.0447 C.3     1  UNL1        0.2573
@<TRIPOS>BOND
     1    35    36    1
     2    36    31    1
     3    31    32    2
     4    31    33   am
     5    33    24    1
     6    24    17    1
     7    17    18    2
     8    17    19   am
     9    19    20    1
    10    20    21    1
    11    21    22    1
    12    22    23    1
    13    23    13    1
    14    13    14    2
    15    13    15   am
    16    15     7    1
    17     7     8   ar
    18     8     9   ar
    19     9    10   ar
    20    10     1    1
    21     1     2   ar
    22     2     3   ar
    23     3     4   ar
    24     4    37    1
    25    37    38   am
    26    38    39    2
    27    38    41    1
    28    41    42    1
    29    42    43    1
    30    43    44    1
    31    44    45    1
    32    44    46    1
    33    46    47   am
    34    47    48    2
    35    47    50    1
    36    50    57    1
    37    57    58   am
    38    58    59    2
    39    58    61    1
    40    61    62    1
    41    50    51    1
    42    51    52   ar
    43    52    53   ar
    44    53    54   ar
    45    54    55   ar
    46    55    56   ar
    47     4     5   ar
    48     5     6   ar
    49    10    11   ar
    50    11    12   ar
    51    24    25    1
    52    25    26   ar
    53    26    27   ar
    54    27    28   ar
    55    28    29   ar
    56    29    30   ar
    57    23    19    1
    58    12     7   ar
    59    30    25   ar
    60     6     1   ar
    61    46    41    1
    62    56    51   ar
    63    33    34    1
    64    15    16    1
    65    37    40    1
    66    45    49    1
    67    57    60    1
@<TRIPOS>MOLECULE
*****
 62 67 0 0 0
SMALL
GASTEIGER

@<TRIPOS>ATOM
      1 C          12.5893   80.4916   24.8417 C.ar    1  UNL1        0.0001
      2 C          13.4393   79.3862   25.0149 C.ar    1  UNL1        0.0013
      3 C          13.0238   78.1056   24.6409 C.ar    1  UNL1        0.0147
      4 C          11.7507   77.9052   24.0773 C.ar    1  UNL1        0.0503
      5 C          10.8966   79.0066   23.9203 C.ar    1  UNL1        0.0147
      6 C          11.3128   80.2883   24.2906 C.ar    1  UNL1        0.0013
      7 C          14.0011   84.4131   25.9171 C.ar    1  UNL1        0.0503
      8 C          14.0659   83.3569   26.8416 C.ar    1  UNL1        0.0147
      9 C          13.6003   82.0855   26.4948 C.ar    1  UNL1        0.0013
     10 C          13.0381   81.8517   25.2280 C.ar    1  UNL1        0.0001
     11 C          12.9244   82.9230   24.3263 C.ar    1  UNL1        0.0013
     12 C          13.3995   84.1905   24.6705 C.ar    1  UNL1        0.0147
     13 C          15.1415   86.5868   25.2569 C.2     1  UNL1        0.2442
     14 O          15.6248   86.1251   24.1892 O.2     1  UNL1       -0.2730
     15 N          14.5138   85.7214   26.2204 N.am    1  UNL1       -0.2826
     16 H          14.2095   86.1532   27.1223 H       1  UNL1        0.1549
     17 C          13.2805   88.7219   23.9619 C.2     1  UNL1        0.2482
     18 O          12.0773   89.1003   23.9288 O.2     1  UNL1       -0.2727
     19 N          13.9799   88.7417   25.2249 N.am    1  UNL1       -0.2714
     20 C          13.4841   89.5038   26.3592 C.3     1  UNL1        0.0939
     21 C          14.6070   89.5001   27.3862 C.3     1  UNL1        0.0237
     22 C          15.5232   88.3443   26.9989 C.3     1  UNL1        0.0310
     23 C          15.2403   88.0663   25.5194 C.3     1  UNL1        0.1521
     24 C          13.9502   88.2837   22.6717 C.3     1  UNL1        0.1743
     25 C          12.9933   88.3193   21.4953 C.ar    1  UNL1        0.0044
     26 C          12.3699   87.1349   21.0599 C.ar    1  UNL1       -0.0022
     27 C          11.5254   87.1442   19.9459 C.ar    1  UNL1       -0.0003
     28 C          11.3101   88.3292   19.2403 C.ar    1  UNL1       -0.0000
     29 C          11.9415   89.5068   19.6458 C.ar    1  UNL1       -0.0003
     30 C          12.7849   89.5034   20.7613 C.ar    1  UNL1       -0.0022
     31 C          16.3009   88.6226   21.7707 C.2     1  UNL1        0.4023
     32 O          16.4177   87.3884   21.5339 O.2     1  UNL1       -0.2264
     33 N          15.1104   89.1335   22.3823 N.am    1  UNL1       -0.2606
     34 H          15.0327   90.1705   22.4872 H       1  UNL1        0.1535
     35 C          18.6974   89.1152   21.4064 C.3     1  UNL1        0.2573
     36 O          17.3303   89.5070   21.4370 O.3     1  UNL1       -0.4306
     37 N          11.2860   76.5938   23.7078 N.am    1  UNL1       -0.2826
     38 C          10.4332   75.7843   24.5366 C.2     1  UNL1        0.2442
     39 O          10.4747   75.9271   25.7885 O.2     1  UNL1       -0.2730
     40 H          11.6773   76.1679   22.8378 H       1  UNL1        0.1549
     41 C           9.5812   74.6675   23.9607 C.3     1  UNL1        0.1527
     42 C           9.8116   74.3959   22.4727 C.3     1  UNL1        0.0319
     43 C           8.4811   73.8562   21.9654 C.3     1  UNL1        0.0331
     44 C           7.4236   74.4761   22.8791 C.3     1  UNL1        0.1203
     45 S           6.1625   73.2313   23.3335 S.3     1  UNL1       -0.1491
     46 N           8.1526   74.9537   24.0514 N.am    1  UNL1       -0.2639
     47 C           7.5040   75.3741   25.2628 C.2     1  UNL1        0.2488
     48 O           7.4681   74.5812   26.2424 O.2     1  UNL1       -0.2727
     49 H           5.3070   74.1798   23.9213 H       1  UNL1        0.1038
     50 C           7.0319   76.8021   25.4326 C.3     1  UNL1        0.1743
     51 C           5.5378   76.9275   25.2200 C.ar    1  UNL1        0.0044
     52 C           5.0150   76.9396   23.9142 C.ar    1  UNL1       -0.0022
     53 C           3.6347   77.0060   23.7048 C.ar    1  UNL1       -0.0003
     54 C           2.7622   77.0539   24.7945 C.ar    1  UNL1       -0.0000
     55 C           3.2685   77.0314   26.0961 C.ar    1  UNL1       -0.0003
     56 C           4.6481   76.9642   26.3111 C.ar    1  UNL1       -0.0022
     57 N           7.4060   77.3280   26.7511 N.am    1  UNL1       -0.2606
     58 C           8.1779   78.5244   26.9047 C.2     1  UNL1        0.4023
     59 O           8.6229   79.1305   25.8910 O.2     1  UNL1       -0.2264
     60 H           6.9954   76.9010   27.6128 H       1  UNL1        0.1535
     61 O           8.4293   79.0148   28.1890 O.3     1  UNL1       -0.4306
     62 C           9.1298   78.2631   29.1727 C.3     1  UNL1        0.2573
@<TRIPOS>BOND
     1    35    36    1
     2    36    31    1
     3    31    32    2
     4    31    33   am
     5    33    24    1
     6    24    17    1
     7    17    18    2
     8    17    19   am
     9    19    20    1
    10    20    21    1
    11    21    22    1
    12    22    23    1
    13    23    13    1
    14    13    14    2
    15    13    15   am
    16    15     7    1
    17     7     8   ar
    18     8     9   ar
    19     9    10   ar
    20    10     1    1
    21     1     2   ar
    22     2     3   ar
    23     3     4   ar
    24     4    37    1
    25    37    38   am
    26    38    39    2
    27    38    41    1
    28    41    42    1
    29    42    43    1
    30    43    44    1
    31    44    45    1
    32    44    46    1
    33    46    47   am
    34    47    48    2
    35    47    50    1
    36    50    57    1
    37    57    58   am
    38    58    59    2
    39    58    61    1
    40    61    62    1
    41    50    51    1
    42    51    52   ar
    43    52    53   ar
    44    53    54   ar
    45    54    55   ar
    46    55    56   ar
    47     4     5   ar
    48     5     6   ar
    49    10    11   ar
    50    11    12   ar
    51    24    25    1
    52    25    26   ar
    53    26    27   ar
    54    27    28   ar
    55    28    29   ar
    56    29    30   ar
    57    23    19    1
    58    12     7   ar
    59    30    25   ar
    60     6     1   ar
    61    46    41    1
    62    56    51   ar
    63    33    34    1
    64    15    16    1
    65    37    40    1
    66    45    49    1
    67    57    60    1
@<TRIPOS>MOLECULE
*****
 62 67 0 0 0
SMALL
GASTEIGER

@<TRIPOS>ATOM
      1 C          12.7070   80.3713   24.7952 C.ar    1  UNL1        0.0001
      2 C          11.3725   80.1097   24.4416 C.ar    1  UNL1        0.0013
      3 C          10.9592   78.8088   24.1429 C.ar    1  UNL1        0.0147
      4 C          11.8717   77.7398   24.2000 C.ar    1  UNL1        0.0503
      5 C          13.2072   78.0044   24.5367 C.ar    1  UNL1        0.0147
      6 C          13.6206   79.3046   24.8393 C.ar    1  UNL1        0.0013
      7 C          13.8527   84.3983   25.7944 C.ar    1  UNL1        0.0503
      8 C          13.3489   84.0996   24.5171 C.ar    1  UNL1        0.0147
      9 C          12.9843   82.7906   24.1904 C.ar    1  UNL1        0.0013
     10 C          13.1398   81.7516   25.1240 C.ar    1  UNL1        0.0001
     11 C          13.6954   82.0443   26.3807 C.ar    1  UNL1        0.0013
     12 C          14.0498   83.3546   26.7095 C.ar    1  UNL1        0.0147
     13 C          14.9743   86.6409   25.3774 C.2     1  UNL1        0.2442
     14 O          15.7265   86.2076   24.4648 O.2     1  UNL1       -0.2730
     15 N          14.1927   85.7400   26.1829 N.am    1  UNL1       -0.2826
     16 H          13.6554   86.1548   26.9776 H       1  UNL1        0.1549
     17 C          13.0074   88.5744   23.9312 C.2     1  UNL1        0.2482
     18 O          11.7782   88.8337   23.8129 O.2     1  UNL1       -0.2727
     19 N          13.6148   88.6723   25.2373 N.am    1  UNL1       -0.2714
     20 C          12.9724   89.3915   26.3251 C.3     1  UNL1        0.0939
     21 C          14.0185   89.5053   27.4243 C.3     1  UNL1        0.0237
     22 C          15.0661   88.4411   27.1153 C.3     1  UNL1        0.0310
     23 C          14.9118   88.1251   25.6245 C.3     1  UNL1        0.1521
     24 C          13.8017   88.1933   22.6947 C.3     1  UNL1        0.1743
     25 C          12.9550   88.2479   21.4373 C.ar    1  UNL1        0.0044
     26 C          12.5318   87.0548   20.8222 C.ar    1  UNL1       -0.0022
     27 C          11.7941   87.0899   19.6352 C.ar    1  UNL1       -0.0003
     28 C          11.4888   88.3133   19.0364 C.ar    1  UNL1       -0.0000
     29 C          11.9235   89.5041   19.6220 C.ar    1  UNL1       -0.0003
     30 C          12.6592   89.4745   20.8109 C.ar    1  UNL1       -0.0022
     31 C          16.2372   88.5951   22.0952 C.2     1  UNL1        0.4023
     32 O          16.4212   87.3619   21.8998 O.2     1  UNL1       -0.2264
     33 N          14.9629   89.0761   22.5393 N.am    1  UNL1       -0.2606
     34 H          14.8407   90.1115   22.6128 H       1  UNL1        0.1535
     35 C          18.6372   89.1123   21.7935 C.3     1  UNL1        0.2573
     36 O          17.2733   89.5075   21.8784 O.3     1  UNL1       -0.4306
     37 N          11.4802   76.3940   23.8714 N.am    1  UNL1       -0.2826
     38 C          10.7427   75.5359   24.7599 C.2     1  UNL1        0.2442
     39 O          10.8538   75.6968   26.0054 O.2     1  UNL1       -0.2730
     40 H          11.8447   75.9865   22.9813 H       1  UNL1        0.1549
     41 C           9.9385   74.3541   24.2489 C.3     1  UNL1        0.1527
     42 C          10.4191   73.7901   22.9103 C.3     1  UNL1        0.0319
     43 C           9.1712   73.2016   22.2658 C.3     1  UNL1        0.0331
     44 C           8.0077   74.0194   22.8270 C.3     1  UNL1        0.1203
     45 S           6.6048   72.9257   23.2537 S.3     1  UNL1       -0.1491
     46 N           8.5396   74.6950   24.0078 N.am    1  UNL1       -0.2639
     47 C           7.7094   75.3632   24.9718 C.2     1  UNL1        0.2488
     48 O           7.4420   74.7785   26.0563 O.2     1  UNL1       -0.2727
     49 H           5.7210   73.9959   23.4785 H       1  UNL1        0.1038
     50 C           7.3100   76.8103   24.7784 C.3     1  UNL1        0.1743
     51 C           7.4316   77.6018   26.0637 C.ar    1  UNL1        0.0044
     52 C           8.5487   78.4308   26.2725 C.ar    1  UNL1       -0.0022
     53 C           8.6499   79.2037   27.4326 C.ar    1  UNL1       -0.0003
     54 C           7.6356   79.1633   28.3920 C.ar    1  UNL1       -0.0000
     55 C           6.5161   78.3525   28.1913 C.ar    1  UNL1       -0.0003
     56 C           6.4096   77.5780   27.0324 C.ar    1  UNL1       -0.0022
     57 N           8.1032   77.4387   23.7149 N.am    1  UNL1       -0.2606
     58 C           7.6090   77.5837   22.3786 C.2     1  UNL1        0.4023
     59 O           6.4861   77.1044   22.0586 O.2     1  UNL1       -0.2264
     60 H           9.0027   77.9148   23.9543 H       1  UNL1        0.1535
     61 O           8.3824   78.2648   21.4346 O.3     1  UNL1       -0.4306
     62 C           7.8380   78.7791   20.2253 C.3     1  UNL1        0.2573
@<TRIPOS>BOND
     1    35    36    1
     2    36    31    1
     3    31    32    2
     4    31    33   am
     5    33    24    1
     6    24    17    1
     7    17    18    2
     8    17    19   am
     9    19    20    1
    10    20    21    1
    11    21    22    1
    12    22    23    1
    13    23    13    1
    14    13    14    2
    15    13    15   am
    16    15     7    1
    17     7     8   ar
    18     8     9   ar
    19     9    10   ar
    20    10     1    1
    21     1     2   ar
    22     2     3   ar
    23     3     4   ar
    24     4    37    1
    25    37    38   am
    26    38    39    2
    27    38    41    1
    28    41    42    1
    29    42    43    1
    30    43    44    1
    31    44    45    1
    32    44    46    1
    33    46    47   am
    34    47    48    2
    35    47    50    1
    36    50    57    1
    37    57    58   am
    38    58    59    2
    39    58    61    1
    40    61    62    1
    41    50    51    1
    42    51    52   ar
    43    52    53   ar
    44    53    54   ar
    45    54    55   ar
    46    55    56   ar
    47     4     5   ar
    48     5     6   ar
    49    10    11   ar
    50    11    12   ar
    51    24    25    1
    52    25    26   ar
    53    26    27   ar
    54    27    28   ar
    55    28    29   ar
    56    29    30   ar
    57    23    19    1
    58    12     7   ar
    59    30    25   ar
    60     6     1   ar
    61    46    41    1
    62    56    51   ar
    63    33    34    1
    64    15    16    1
    65    37    40    1
    66    45    49    1
    67    57    60    1
@<TRIPOS>MOLECULE
*****
 62 67 0 0 0
SMALL
GASTEIGER

@<TRIPOS>ATOM
      1 C          11.1751   79.2978   24.2462 C.ar    1  UNL1        0.0001
      2 C           9.9707   79.4335   23.5352 C.ar    1  UNL1        0.0013
      3 C           9.2233   78.3067   23.1832 C.ar    1  UNL1        0.0147
      4 C           9.6613   77.0194   23.5431 C.ar    1  UNL1        0.0503
      5 C          10.8719   76.8838   24.2381 C.ar    1  UNL1        0.0147
      6 C          11.6183   78.0105   24.5939 C.ar    1  UNL1        0.0013
      7 C          13.4770   82.7962   25.2411 C.ar    1  UNL1        0.0503
      8 C          14.0817   81.5278   25.2301 C.ar    1  UNL1        0.0147
      9 C          13.3323   80.3912   24.9146 C.ar    1  UNL1        0.0013
     10 C          11.9601   80.4967   24.6295 C.ar    1  UNL1        0.0001
     11 C          11.3470   81.7591   24.6957 C.ar    1  UNL1        0.0013
     12 C          12.0993   82.8955   25.0010 C.ar    1  UNL1        0.0147
     13 C          14.0729   85.2248   24.7851 C.2     1  UNL1        0.2442
     14 O          13.5622   85.2379   23.6337 O.2     1  UNL1       -0.2730
     15 N          14.2256   83.9929   25.5133 N.am    1  UNL1       -0.2826
     16 H          14.7331   84.0382   26.4259 H       1  UNL1        0.1549
     17 C          13.3271   88.0366   23.6730 C.2     1  UNL1        0.2482
     18 O          12.3412   88.8037   23.4951 O.2     1  UNL1       -0.2727
     19 N          13.6529   87.6255   25.0182 N.am    1  UNL1       -0.2714
     20 C          13.1327   88.3307   26.1781 C.3     1  UNL1        0.0939
     21 C          13.9013   87.7887   27.3743 C.3     1  UNL1        0.0237
     22 C          14.4999   86.4620   26.9196 C.3     1  UNL1        0.0310
     23 C          14.5361   86.5239   25.3895 C.3     1  UNL1        0.1521
     24 C          14.1435   87.5960   22.4711 C.3     1  UNL1        0.1743
     25 C          13.4653   87.9542   21.1624 C.ar    1  UNL1        0.0044
     26 C          12.3914   87.1762   20.6909 C.ar    1  UNL1       -0.0022
     27 C          11.7904   87.4646   19.4621 C.ar    1  UNL1       -0.0003
     28 C          12.2669   88.5176   18.6795 C.ar    1  UNL1       -0.0000
     29 C          13.3477   89.2825   19.1231 C.ar    1  UNL1       -0.0003
     30 C          13.9505   88.9999   20.3528 C.ar    1  UNL1       -0.0022
     31 C          16.6756   87.4264   22.3611 C.2     1  UNL1        0.4023
     32 O          16.6151   86.1689   22.2731 O.2     1  UNL1       -0.2264
     33 N          15.4794   88.2008   22.5094 N.am    1  UNL1       -0.2606
     34 H          15.5781   89.2412   22.5014 H       1  UNL1        0.1535
     35 C          18.0449   89.4324   21.8924 C.3     1  UNL1        0.2573
     36 O          17.9100   88.0800   22.3123 O.3     1  UNL1       -0.4306
     37 N           8.9256   75.8395   23.1706 N.am    1  UNL1       -0.2826
     38 C           7.4963   75.7197   23.2815 C.2     1  UNL1        0.2442
     39 O           6.8881   76.3887   24.1602 O.2     1  UNL1       -0.2730
     40 H           9.4729   74.9900   22.9059 H       1  UNL1        0.1549
     41 C           6.7104   74.7110   22.4633 C.3     1  UNL1        0.1527
     42 C           7.5075   74.0463   21.3391 C.3     1  UNL1        0.0319
     43 C           6.4709   73.7043   20.2772 C.3     1  UNL1        0.0331
     44 C           5.3610   74.7409   20.4533 C.3     1  UNL1        0.1203
     45 S           3.7182   73.9479   20.3166 S.3     1  UNL1       -0.1491
     46 N           5.5707   75.3152   21.7799 N.am    1  UNL1       -0.2639
     47 C           4.6006   76.1454   22.4393 C.2     1  UNL1        0.2488
     48 O           3.8714   75.6386   23.3343 O.2     1  UNL1       -0.2727
     49 H           3.0288   75.1730   20.2860 H       1  UNL1        0.1038
     50 C           4.5716   77.6399   22.2016 C.3     1  UNL1        0.1743
     51 C           5.3771   78.0289   20.9797 C.ar    1  UNL1        0.0044
     52 C           4.7306   78.2101   19.7435 C.ar    1  UNL1       -0.0022
     53 C           5.4544   78.6161   18.6189 C.ar    1  UNL1       -0.0003
     54 C           6.8276   78.8520   18.7171 C.ar    1  UNL1       -0.0000
     55 C           7.4790   78.6862   19.9414 C.ar    1  UNL1       -0.0003
     56 C           6.7597   78.2811   21.0695 C.ar    1  UNL1       -0.0022
     57 N           3.1924   78.1280   22.0806 N.am    1  UNL1       -0.2606
     58 C           2.4285   78.5468   23.2172 C.2     1  UNL1        0.4023
     59 O           2.9060   78.4401   24.3807 O.2     1  UNL1       -0.2264
     60 H           2.7880   78.3032   21.1324 H       1  UNL1        0.1535
     61 O           1.1505   79.0781   23.0230 O.3     1  UNL1       -0.4306
     62 C           0.4421   78.9415   21.7971 C.3     1  UNL1        0.2573
@<TRIPOS>BOND
     1    35    36    1
     2    36    31    1
     3    31    32    2
     4    31    33   am
     5    33    24    1
     6    24    17    1
     7    17    18    2
     8    17    19   am
     9    19    20    1
    10    20    21    1
    11    21    22    1
    12    22    23    1
    13    23    13    1
    14    13    14    2
    15    13    15   am
    16    15     7    1
    17     7     8   ar
    18     8     9   ar
    19     9    10   ar
    20    10     1    1
    21     1     2   ar
    22     2     3   ar
    23     3     4   ar
    24     4    37    1
    25    37    38   am
    26    38    39    2
    27    38    41    1
    28    41    42    1
    29    42    43    1
    30    43    44    1
    31    44    45    1
    32    44    46    1
    33    46    47   am
    34    47    48    2
    35    47    50    1
    36    50    57    1
    37    57    58   am
    38    58    59    2
    39    58    61    1
    40    61    62    1
    41    50    51    1
    42    51    52   ar
    43    52    53   ar
    44    53    54   ar
    45    54    55   ar
    46    55    56   ar
    47     4     5   ar
    48     5     6   ar
    49    10    11   ar
    50    11    12   ar
    51    24    25    1
    52    25    26   ar
    53    26    27   ar
    54    27    28   ar
    55    28    29   ar
    56    29    30   ar
    57    23    19    1
    58    12     7   ar
    59    30    25   ar
    60     6     1   ar
    61    46    41    1
    62    56    51   ar
    63    33    34    1
    64    15    16    1
    65    37    40    1
    66    45    49    1
    67    57    60    1
@<TRIPOS>MOLECULE
*****
 62 67 0 0 0
SMALL
GASTEIGER

@<TRIPOS>ATOM
      1 C          10.7163   79.8794   24.0722 C.ar    1  UNL1        0.0001
      2 C           9.7678   80.2354   23.0985 C.ar    1  UNL1        0.0013
      3 C           8.9141   79.2729   22.5537 C.ar    1  UNL1        0.0147
      4 C           8.9858   77.9338   22.9782 C.ar    1  UNL1        0.0503
      5 C           9.9440   77.5762   23.9379 C.ar    1  UNL1        0.0147
      6 C          10.7958   78.5389   24.4862 C.ar    1  UNL1        0.0013
      7 C          13.3307   82.9069   25.6618 C.ar    1  UNL1        0.0503
      8 C          13.8476   81.6662   25.2519 C.ar    1  UNL1        0.0147
      9 C          12.9975   80.6805   24.7430 C.ar    1  UNL1        0.0013
     10 C          11.6128   80.9059   24.6580 C.ar    1  UNL1        0.0001
     11 C          11.0929   82.1265   25.1202 C.ar    1  UNL1        0.0013
     12 C          11.9449   83.1145   25.6189 C.ar    1  UNL1        0.0147
     13 C          14.3019   85.2516   25.5178 C.2     1  UNL1        0.2442
     14 O          13.9783   85.4192   24.3120 O.2     1  UNL1       -0.2730
     15 N          14.1794   83.9619   26.1447 N.am    1  UNL1       -0.2826
     16 H          14.5438   83.8693   27.1200 H       1  UNL1        0.1549
     17 C          13.5908   88.2224   24.9120 C.2     1  UNL1        0.2482
     18 O          12.6217   89.0305   24.9116 O.2     1  UNL1       -0.2727
     19 N          13.9683   87.5919   26.1547 N.am    1  UNL1       -0.2714
     20 C          13.5270   88.1119   27.4385 C.3     1  UNL1        0.0939
     21 C          14.3354   87.3661   28.4901 C.3     1  UNL1        0.0237
     22 C          14.8698   86.1171   27.7976 C.3     1  UNL1        0.0310
     23 C          14.8339   86.4249   26.2974 C.3     1  UNL1        0.1521
     24 C          14.3340   87.9636   23.6135 C.3     1  UNL1        0.1743
     25 C          13.4454   88.1666   22.4010 C.ar    1  UNL1        0.0044
     26 C          12.6189   87.1197   21.9517 C.ar    1  UNL1       -0.0022
     27 C          11.8332   87.2761   20.8061 C.ar    1  UNL1       -0.0003
     28 C          11.8790   88.4693   20.0831 C.ar    1  UNL1       -0.0000
     29 C          12.7131   89.5075   20.5029 C.ar    1  UNL1       -0.0003
     30 C          13.4988   89.3571   21.6500 C.ar    1  UNL1       -0.0022
     31 C          16.7942   88.3520   23.1146 C.2     1  UNL1        0.4023
     32 O          16.9774   87.1189   22.9180 O.2     1  UNL1       -0.2264
     33 N          15.5064   88.8391   23.5109 N.am    1  UNL1       -0.2606
     34 H          15.3885   89.8748   23.5868 H       1  UNL1        0.1535
     35 C          19.0684   89.1552   23.6630 C.3     1  UNL1        0.2573
     36 O          17.8444   89.2585   22.9458 O.3     1  UNL1       -0.4306
     37 N           8.1374   76.9162   22.4150 N.am    1  UNL1       -0.2826
     38 C           6.7168   76.8489   22.6319 C.2     1  UNL1        0.2442
     39 O           6.2327   77.3214   23.6958 O.2     1  UNL1       -0.2730
     40 H           8.5974   76.1262   21.9097 H       1  UNL1        0.1549
     41 C           5.7951   76.1059   21.6816 C.3     1  UNL1        0.1527
     42 C           4.3035   76.3058   21.9576 C.3     1  UNL1        0.0319
     43 C           3.6421   75.0253   21.4659 C.3     1  UNL1        0.0331
     44 C           4.7114   73.9420   21.6099 C.3     1  UNL1        0.1203
     45 S           4.7149   72.8484   20.1435 S.3     1  UNL1       -0.1491
     46 N           5.9767   74.6589   21.7475 N.am    1  UNL1       -0.2639
     47 C           7.2585   74.0160   21.6536 C.2     1  UNL1        0.2488
     48 O           7.9103   74.1089   20.5784 O.2     1  UNL1       -0.2727
     49 H           5.5894   71.9157   20.7286 H       1  UNL1        0.1038
     50 C           7.9030   73.3932   22.8732 C.3     1  UNL1        0.1743
     51 C           9.3783   73.1300   22.6547 C.ar    1  UNL1        0.0044
     52 C          10.3280   74.0816   23.0683 C.ar    1  UNL1       -0.0022
     53 C          11.6945   73.8302   22.9167 C.ar    1  UNL1       -0.0003
     54 C          12.1275   72.6254   22.3582 C.ar    1  UNL1       -0.0000
     55 C          11.1945   71.6678   21.9538 C.ar    1  UNL1       -0.0003
     56 C           9.8267   71.9139   22.1039 C.ar    1  UNL1       -0.0022
     57 N           7.7046   74.2325   24.0612 N.am    1  UNL1       -0.2606
     58 C           6.7920   73.8742   25.1051 C.2     1  UNL1        0.4023
     59 O           6.0712   72.8439   24.9959 O.2     1  UNL1       -0.2264
     60 H           8.3343   75.0508   24.2263 H       1  UNL1        0.1535
     61 O           6.7117   74.6760   26.2469 O.3     1  UNL1       -0.4306
     62 C           7.7909   75.4905   26.6888 C.3     1  UNL1        0.2573
@<TRIPOS>BOND
     1    35    36    1
     2    36    31    1
     3    31    32    2
     4    31    33   am
     5    33    24    1
     6    24    17    1
     7    17    18    2
     8    17    19   am
     9    19    20    1
    10    20    21    1
    11    21    22    1
    12    22    23    1
    13    23    13    1
    14    13    14    2
    15    13    15   am
    16    15     7    1
    17     7     8   ar
    18     8     9   ar
    19     9    10   ar
    20    10     1    1
    21     1     2   ar
    22     2     3   ar
    23     3     4   ar
    24     4    37    1
    25    37    38   am
    26    38    39    2
    27    38    41    1
    28    41    42    1
    29    42    43    1
    30    43    44    1
    31    44    45    1
    32    44    46    1
    33    46    47   am
    34    47    48    2
    35    47    50    1
    36    50    57    1
    37    57    58   am
    38    58    59    2
    39    58    61    1
    40    61    62    1
    41    50    51    1
    42    51    52   ar
    43    52    53   ar
    44    53    54   ar
    45    54    55   ar
    46    55    56   ar
    47     4     5   ar
    48     5     6   ar
    49    10    11   ar
    50    11    12   ar
    51    24    25    1
    52    25    26   ar
    53    26    27   ar
    54    27    28   ar
    55    28    29   ar
    56    29    30   ar
    57    23    19    1
    58    12     7   ar
    59    30    25   ar
    60     6     1   ar
    61    46    41    1
    62    56    51   ar
    63    33    34    1
    64    15    16    1
    65    37    40    1
    66    45    49    1
    67    57    60    1
@<TRIPOS>MOLECULE
*****
 62 67 0 0 0
SMALL
GASTEIGER

@<TRIPOS>ATOM
      1 C          11.7392   81.1970   25.3082 C.ar    1  UNL1        0.0001
      2 C          12.0647   79.9952   24.6569 C.ar    1  UNL1        0.0013
      3 C          11.2938   78.8473   24.8579 C.ar    1  UNL1        0.0147
      4 C          10.1746   78.8800   25.7094 C.ar    1  UNL1        0.0503
      5 C           9.8604   80.0755   26.3720 C.ar    1  UNL1        0.0147
      6 C          10.6286   81.2250   26.1686 C.ar    1  UNL1        0.0013
      7 C          14.1874   84.6681   24.6119 C.ar    1  UNL1        0.0503
      8 C          14.1954   84.0335   25.8656 C.ar    1  UNL1        0.0147
      9 C          13.3945   82.9111   26.0938 C.ar    1  UNL1        0.0013
     10 C          12.5521   82.4172   25.0830 C.ar    1  UNL1        0.0001
     11 C          12.5055   83.0873   23.8490 C.ar    1  UNL1        0.0013
     12 C          13.3140   84.2026   23.6189 C.ar    1  UNL1        0.0147
     13 C          15.8159   85.9325   23.1251 C.2     1  UNL1        0.2442
     14 O          16.1135   84.9275   22.4265 O.2     1  UNL1       -0.2730
     15 N          15.0329   85.7947   24.3247 N.am    1  UNL1       -0.2826
     16 H          14.8926   86.6534   24.9039 H       1  UNL1        0.1549
     17 C          13.9459   88.3063   22.3721 C.2     1  UNL1        0.2482
     18 O          13.0901   89.0907   22.8665 O.2     1  UNL1       -0.2727
     19 N          15.2860   88.3130   22.9095 N.am    1  UNL1       -0.2714
     20 C          15.7748   89.4123   23.7256 C.3     1  UNL1        0.0939
     21 C          17.2743   89.1936   23.8640 C.3     1  UNL1        0.0237
     22 C          17.5160   87.7280   23.5190 C.3     1  UNL1        0.0310
     23 C          16.3039   87.2895   22.6914 C.3     1  UNL1        0.1521
     24 C          13.5397   87.4055   21.2194 C.3     1  UNL1        0.1743
     25 C          12.8664   88.1811   20.1032 C.ar    1  UNL1        0.0044
     26 C          11.4634   88.1771   19.9912 C.ar    1  UNL1       -0.0022
     27 C          10.8325   88.8458   18.9379 C.ar    1  UNL1       -0.0003
     28 C          11.5935   89.5072   17.9727 C.ar    1  UNL1       -0.0000
     29 C          12.9873   89.4987   18.0571 C.ar    1  UNL1       -0.0003
     30 C          13.6231   88.8337   19.1103 C.ar    1  UNL1       -0.0022
     31 C          14.5891   85.6047   19.7674 C.2     1  UNL1        0.4023
     32 O          13.4518   85.1590   19.4502 O.2     1  UNL1       -0.2264
     33 N          14.7086   86.6981   20.6854 N.am    1  UNL1       -0.2606
     34 H          15.6672   87.0780   20.8559 H       1  UNL1        0.1535
     35 C          15.7392   84.2891   18.0168 C.3     1  UNL1        0.2573
     36 O          15.7465   85.0390   19.2255 O.3     1  UNL1       -0.4306
     37 N           9.3786   77.7062   25.9560 N.am    1  UNL1       -0.2826
     38 C           7.9606   77.7374   26.1966 C.2     1  UNL1        0.2442
     39 O           7.4457   78.7654   26.7139 O.2     1  UNL1       -0.2730
     40 H           9.8786   76.7963   26.0706 H       1  UNL1        0.1549
     41 C           7.0824   76.5196   25.9723 C.3     1  UNL1        0.1527
     42 C           7.1699   75.4619   27.0744 C.3     1  UNL1        0.0319
     43 C           6.8662   74.1444   26.3738 C.3     1  UNL1        0.0331
     44 C           7.3146   74.3484   24.9264 C.3     1  UNL1        0.1203
     45 S           6.0877   73.6372   23.7709 S.3     1  UNL1       -0.1491
     46 N           7.4368   75.7940   24.7561 N.am    1  UNL1       -0.2639
     47 C           7.5903   76.4241   23.4738 C.2     1  UNL1        0.2488
     48 O           6.5852   76.9596   22.9328 O.2     1  UNL1       -0.2727
     49 H           6.9198   73.7932   22.6483 H       1  UNL1        0.1038
     50 C           8.9620   76.6074   22.8608 C.3     1  UNL1        0.1743
     51 C           9.7696   75.3270   22.9012 C.ar    1  UNL1        0.0044
     52 C           9.3907   74.2346   22.1000 C.ar    1  UNL1       -0.0022
     53 C          10.1548   73.0643   22.0912 C.ar    1  UNL1       -0.0003
     54 C          11.3072   72.9741   22.8752 C.ar    1  UNL1       -0.0000
     55 C          11.7000   74.0558   23.6667 C.ar    1  UNL1       -0.0003
     56 C          10.9399   75.2289   23.6786 C.ar    1  UNL1       -0.0022
     57 N           8.8619   77.1046   21.4832 N.am    1  UNL1       -0.2606
     58 C           8.9909   78.4943   21.1621 C.2     1  UNL1        0.4023
     59 O           9.1275   79.3505   22.0794 O.2     1  UNL1       -0.2264
     60 H           8.8257   76.4243   20.6901 H       1  UNL1        0.1535
     61 O           8.9674   78.8906   19.8222 O.3     1  UNL1       -0.4306
     62 C           7.7637   79.2301   19.1445 C.3     1  UNL1        0.2573
@<TRIPOS>BOND
     1    35    36    1
     2    36    31    1
     3    31    32    2
     4    31    33   am
     5    33    24    1
     6    24    17    1
     7    17    18    2
     8    17    19   am
     9    19    20    1
    10    20    21    1
    11    21    22    1
    12    22    23    1
    13    23    13    1
    14    13    14    2
    15    13    15   am
    16    15     7    1
    17     7     8   ar
    18     8     9   ar
    19     9    10   ar
    20    10     1    1
    21     1     2   ar
    22     2     3   ar
    23     3     4   ar
    24     4    37    1
    25    37    38   am
    26    38    39    2
    27    38    41    1
    28    41    42    1
    29    42    43    1
    30    43    44    1
    31    44    45    1
    32    44    46    1
    33    46    47   am
    34    47    48    2
    35    47    50    1
    36    50    57    1
    37    57    58   am
    38    58    59    2
    39    58    61    1
    40    61    62    1
    41    50    51    1
    42    51    52   ar
    43    52    53   ar
    44    53    54   ar
    45    54    55   ar
    46    55    56   ar
    47     4     5   ar
    48     5     6   ar
    49    10    11   ar
    50    11    12   ar
    51    24    25    1
    52    25    26   ar
    53    26    27   ar
    54    27    28   ar
    55    28    29   ar
    56    29    30   ar
    57    23    19    1
    58    12     7   ar
    59    30    25   ar
    60     6     1   ar
    61    46    41    1
    62    56    51   ar
    63    33    34    1
    64    15    16    1
    65    37    40    1
    66    45    49    1
    67    57    60    1
@<TRIPOS>MOLECULE
*****
 62 67 0 0 0
SMALL
GASTEIGER

@<TRIPOS>ATOM
      1 C          11.9919   81.1599   25.4299 C.ar    1  UNL1        0.0001
      2 C          12.5120   79.9211   25.0183 C.ar    1  UNL1        0.0013
      3 C          11.8084   78.7390   25.2633 C.ar    1  UNL1        0.0147
      4 C          10.5642   78.7724   25.9185 C.ar    1  UNL1        0.0503
      5 C          10.0538   80.0076   26.3438 C.ar    1  UNL1        0.0147
      6 C          10.7550   81.1908   26.0959 C.ar    1  UNL1        0.0013
      7 C          14.2446   84.7337   24.6048 C.ar    1  UNL1        0.0503
      8 C          14.2316   84.1854   25.8985 C.ar    1  UNL1        0.0147
      9 C          13.4938   83.0294   26.1680 C.ar    1  UNL1        0.0013
     10 C          12.7353   82.4143   25.1572 C.ar    1  UNL1        0.0001
     11 C          12.7065   82.9966   23.8789 C.ar    1  UNL1        0.0013
     12 C          13.4524   84.1460   23.6085 C.ar    1  UNL1        0.0147
     13 C          15.8371   86.0146   23.0933 C.2     1  UNL1        0.2442
     14 O          16.2140   84.9941   22.4585 O.2     1  UNL1       -0.2730
     15 N          15.0295   85.8930   24.2783 N.am    1  UNL1       -0.2826
     16 H          14.8217   86.7709   24.8060 H       1  UNL1        0.1549
     17 C          13.8514   88.3054   22.3804 C.2     1  UNL1        0.2482
     18 O          12.9971   89.0753   22.8994 O.2     1  UNL1       -0.2727
     19 N          15.2170   88.3700   22.8447 N.am    1  UNL1       -0.2714
     20 C          15.7111   89.5066   23.6044 C.3     1  UNL1        0.0939
     21 C          17.2224   89.3401   23.6677 C.3     1  UNL1        0.0237
     22 C          17.4945   87.8740   23.3485 C.3     1  UNL1        0.0310
     23 C          16.2558   87.3739   22.5988 C.3     1  UNL1        0.1521
     24 C          13.4154   87.3603   21.2750 C.3     1  UNL1        0.1743
     25 C          12.7978   88.1023   20.1049 C.ar    1  UNL1        0.0044
     26 C          11.3982   88.1614   19.9695 C.ar    1  UNL1       -0.0022
     27 C          10.8168   88.7983   18.8691 C.ar    1  UNL1       -0.0003
     28 C          11.6237   89.3640   17.8806 C.ar    1  UNL1       -0.0000
     29 C          13.0139   89.2912   17.9891 C.ar    1  UNL1       -0.0003
     30 C          13.6004   88.6578   19.0893 C.ar    1  UNL1       -0.0022
     31 C          14.4007   85.4856   19.8725 C.2     1  UNL1        0.4023
     32 O          13.2515   85.1302   19.4904 O.2     1  UNL1       -0.2264
     33 N          14.5536   86.5650   20.8020 N.am    1  UNL1       -0.2606
     34 H          15.5279   86.8689   21.0273 H       1  UNL1        0.1535
     35 C          15.5573   84.1387   18.1502 C.3     1  UNL1        0.2573
     36 O          15.5389   84.8325   19.3919 O.3     1  UNL1       -0.4306
     37 N           9.8303   77.5683   26.2079 N.am    1  UNL1       -0.2826
     38 C           8.6356   77.1726   25.5110 C.2     1  UNL1        0.2442
     39 O           7.8945   78.0587   25.0062 O.2     1  UNL1       -0.2730
     40 H          10.1246   77.0090   27.0397 H       1  UNL1        0.1549
     41 C           8.1667   75.7290   25.4796 C.3     1  UNL1        0.1527
     42 C           7.4023   75.3371   24.2135 C.3     1  UNL1        0.0319
     43 C           6.4562   74.2296   24.6578 C.3     1  UNL1        0.0331
     44 C           6.1831   74.5060   26.1364 C.3     1  UNL1        0.1203
     45 S           6.2168   72.9483   27.0948 S.3     1  UNL1       -0.1491
     46 N           7.2384   75.4214   26.5634 N.am    1  UNL1       -0.2639
     47 C           7.4986   75.7326   27.9420 C.2     1  UNL1        0.2488
     48 O           8.4610   75.1636   28.5247 O.2     1  UNL1       -0.2727
     49 H           5.7141   73.5495   28.2622 H       1  UNL1        0.1038
     50 C           6.7546   76.8530   28.6362 C.3     1  UNL1        0.1743
     51 C           7.6993   77.9192   29.1501 C.ar    1  UNL1        0.0044
     52 C           9.0130   77.5735   29.5154 C.ar    1  UNL1       -0.0022
     53 C           9.9100   78.5554   29.9453 C.ar    1  UNL1       -0.0003
     54 C           9.5086   79.8917   30.0084 C.ar    1  UNL1       -0.0000
     55 C           8.2102   80.2492   29.6379 C.ar    1  UNL1       -0.0003
     56 C           7.3093   79.2712   29.2065 C.ar    1  UNL1       -0.0022
     57 N           5.7483   77.4476   27.7480 N.am    1  UNL1       -0.2606
     58 C           4.3764   77.0371   27.7661 C.2     1  UNL1        0.4023
     59 O           4.0045   76.0885   28.5110 O.2     1  UNL1       -0.2264
     60 H           5.9973   78.2846   27.1728 H       1  UNL1        0.1535
     61 O           3.4542   77.7011   26.9526 O.3     1  UNL1       -0.4306
     62 C           3.1258   77.2534   25.6431 C.3     1  UNL1        0.2573
@<TRIPOS>BOND
     1    35    36    1
     2    36    31    1
     3    31    32    2
     4    31    33   am
     5    33    24    1
     6    24    17    1
     7    17    18    2
     8    17    19   am
     9    19    20    1
    10    20    21    1
    11    21    22    1
    12    22    23    1
    13    23    13    1
    14    13    14    2
    15    13    15   am
    16    15     7    1
    17     7     8   ar
    18     8     9   ar
    19     9    10   ar
    20    10     1    1
    21     1     2   ar
    22     2     3   ar
    23     3     4   ar
    24     4    37    1
    25    37    38   am
    26    38    39    2
    27    38    41    1
    28    41    42    1
    29    42    43    1
    30    43    44    1
    31    44    45    1
    32    44    46    1
    33    46    47   am
    34    47    48    2
    35    47    50    1
    36    50    57    1
    37    57    58   am
    38    58    59    2
    39    58    61    1
    40    61    62    1
    41    50    51    1
    42    51    52   ar
    43    52    53   ar
    44    53    54   ar
    45    54    55   ar
    46    55    56   ar
    47     4     5   ar
    48     5     6   ar
    49    10    11   ar
    50    11    12   ar
    51    24    25    1
    52    25    26   ar
    53    26    27   ar
    54    27    28   ar
    55    28    29   ar
    56    29    30   ar
    57    23    19    1
    58    12     7   ar
    59    30    25   ar
    60     6     1   ar
    61    46    41    1
    62    56    51   ar
    63    33    34    1
    64    15    16    1
    65    37    40    1
    66    45    49    1
    67    57    60    1
@<TRIPOS>MOLECULE
*****
 62 67 0 0 0
SMALL
GASTEIGER

@<TRIPOS>ATOM
      1 C          11.5241   79.4723   24.0683 C.ar    1  UNL1        0.0001
      2 C          12.0450   78.1935   24.3288 C.ar    1  UNL1        0.0013
      3 C          11.4254   77.0549   23.8073 C.ar    1  UNL1        0.0147
      4 C          10.2752   77.1725   23.0063 C.ar    1  UNL1        0.0503
      5 C           9.7464   78.4481   22.7607 C.ar    1  UNL1        0.0147
      6 C          10.3676   79.5878   23.2787 C.ar    1  UNL1        0.0013
      7 C          13.4937   83.0070   25.5360 C.ar    1  UNL1        0.0503
      8 C          14.1785   81.7810   25.4875 C.ar    1  UNL1        0.0147
      9 C          13.5363   80.6318   25.0182 C.ar    1  UNL1        0.0013
     10 C          12.1914   80.6801   24.6129 C.ar    1  UNL1        0.0001
     11 C          11.4938   81.8953   24.7148 C.ar    1  UNL1        0.0013
     12 C          12.1398   83.0452   25.1743 C.ar    1  UNL1        0.0147
     13 C          14.3371   85.3696   25.1256 C.2     1  UNL1        0.2442
     14 O          14.3149   85.2664   23.8704 O.2     1  UNL1       -0.2730
     15 N          14.1350   84.2194   25.9667 N.am    1  UNL1       -0.2826
     16 H          14.2499   84.3557   26.9966 H       1  UNL1        0.1549
     17 C          13.1249   88.0325   24.0589 C.2     1  UNL1        0.2482
     18 O          12.0243   88.6300   23.9044 O.2     1  UNL1       -0.2727
     19 N          13.5348   87.6670   25.3942 N.am    1  UNL1       -0.2714
     20 C          12.9251   88.2663   26.5699 C.3     1  UNL1        0.0939
     21 C          13.7909   87.8454   27.7484 C.3     1  UNL1        0.0237
     22 C          14.5906   86.6389   27.2689 C.3     1  UNL1        0.0310
     23 C          14.5918   86.7209   25.7394 C.3     1  UNL1        0.1521
     24 C          13.9828   87.7431   22.8402 C.3     1  UNL1        0.1743
     25 C          13.2268   87.9755   21.5459 C.ar    1  UNL1        0.0044
     26 C          13.1556   89.2690   20.9956 C.ar    1  UNL1       -0.0022
     27 C          12.4199   89.5064   19.8308 C.ar    1  UNL1       -0.0003
     28 C          11.7291   88.4622   19.2139 C.ar    1  UNL1       -0.0000
     29 C          11.7703   87.1787   19.7624 C.ar    1  UNL1       -0.0003
     30 C          12.5071   86.9354   20.9258 C.ar    1  UNL1       -0.0022
     31 C          16.4853   88.0515   22.5319 C.2     1  UNL1        0.4023
     32 O          16.6365   86.8201   22.3005 O.2     1  UNL1       -0.2264
     33 N          15.1912   88.5745   22.8550 N.am    1  UNL1       -0.2606
     34 H          15.1065   89.6107   22.9629 H       1  UNL1        0.1535
     35 C          18.2549   89.2203   21.2587 C.3     1  UNL1        0.2573
     36 O          17.5777   88.9212   22.4734 O.3     1  UNL1       -0.4306
     37 N           9.6008   76.0155   22.4782 N.am    1  UNL1       -0.2826
     38 C           8.6463   75.2372   23.2216 C.2     1  UNL1        0.2442
     39 O           8.7342   75.1908   24.4784 O.2     1  UNL1       -0.2730
     40 H           9.9025   75.6635   21.5421 H       1  UNL1        0.1549
     41 C           7.6166   74.3600   22.5325 C.3     1  UNL1        0.1527
     42 C           7.8272   74.1975   21.0258 C.3     1  UNL1        0.0319
     43 C           6.4320   73.9667   20.4608 C.3     1  UNL1        0.0331
     44 C           5.4861   74.6796   21.4275 C.3     1  UNL1        0.1203
     45 S           4.0070   73.6522   21.7488 S.3     1  UNL1       -0.1491
     46 N           6.2634   74.8963   22.6451 N.am    1  UNL1       -0.2639
     47 C           5.6757   75.3089   23.8898 C.2     1  UNL1        0.2488
     48 O           5.4717   74.4444   24.7845 O.2     1  UNL1       -0.2727
     49 H           3.3277   74.6808   22.4252 H       1  UNL1        0.1038
     50 C           5.4711   76.7761   24.2003 C.3     1  UNL1        0.1743
     51 C           4.0972   77.2522   23.7774 C.ar    1  UNL1        0.0044
     52 C           3.0797   77.3961   24.7381 C.ar    1  UNL1       -0.0022
     53 C           1.8215   77.8805   24.3697 C.ar    1  UNL1       -0.0003
     54 C           1.5676   78.2328   23.0422 C.ar    1  UNL1       -0.0000
     55 C           2.5730   78.1049   22.0810 C.ar    1  UNL1       -0.0003
     56 C           3.8334   77.6216   22.4443 C.ar    1  UNL1       -0.0022
     57 N           5.6897   77.0490   25.6260 N.am    1  UNL1       -0.2606
     58 C           6.9046   77.6286   26.1148 C.2     1  UNL1        0.4023
     59 O           7.8627   77.8601   25.3264 O.2     1  UNL1       -0.2264
     60 H           4.8967   76.9435   26.2994 H       1  UNL1        0.1535
     61 O           7.0155   77.9381   27.4731 O.3     1  UNL1       -0.4306
     62 C           8.2589   77.9211   28.1638 C.3     1  UNL1        0.2573
@<TRIPOS>BOND
     1    35    36    1
     2    36    31    1
     3    31    32    2
     4    31    33   am
     5    33    24    1
     6    24    17    1
     7    17    18    2
     8    17    19   am
     9    19    20    1
    10    20    21    1
    11    21    22    1
    12    22    23    1
    13    23    13    1
    14    13    14    2
    15    13    15   am
    16    15     7    1
    17     7     8   ar
    18     8     9   ar
    19     9    10   ar
    20    10     1    1
    21     1     2   ar
    22     2     3   ar
    23     3     4   ar
    24     4    37    1
    25    37    38   am
    26    38    39    2
    27    38    41    1
    28    41    42    1
    29    42    43    1
    30    43    44    1
    31    44    45    1
    32    44    46    1
    33    46    47   am
    34    47    48    2
    35    47    50    1
    36    50    57    1
    37    57    58   am
    38    58    59    2
    39    58    61    1
    40    61    62    1
    41    50    51    1
    42    51    52   ar
    43    52    53   ar
    44    53    54   ar
    45    54    55   ar
    46    55    56   ar
    47     4     5   ar
    48     5     6   ar
    49    10    11   ar
    50    11    12   ar
    51    24    25    1
    52    25    26   ar
    53    26    27   ar
    54    27    28   ar
    55    28    29   ar
    56    29    30   ar
    57    23    19    1
    58    12     7   ar
    59    30    25   ar
    60     6     1   ar
    61    46    41    1
    62    56    51   ar
    63    33    34    1
    64    15    16    1
    65    37    40    1
    66    45    49    1
    67    57    60    1
