@<TRIPOS>MOLECULE
*****
 29 33 0 0 0
SMALL
GASTEIGER

@<TRIPOS>ATOM
      1 C          47.8194   11.7988  -22.8358 C.3     1  UNL1        0.0645
      2 C          46.5277   11.6075  -23.7392 C.3     1  UNL1        0.0217
      3 C          46.0345   12.8841  -24.4393 C.3     1  UNL1        0.0346
      4 C          47.0981   13.4851  -25.4105 C.3     1  UNL1        0.1252
      5 C          48.5326   13.1216  -24.9408 C.3     1  UNL1        0.0346
      6 C          48.5896   13.0546  -23.4113 C.3     1  UNL1        0.0217
      7 O          47.0094   14.9173  -25.3891 O.3     1  UNL1       -0.3527
      8 C          45.8721   15.4270  -26.0812 C.3     1  UNL1        0.1472
      9 C          45.9778   15.1830  -27.5948 C.3     1  UNL1        0.0597
     10 C          46.3365   13.7555  -27.8078 C.ar    1  UNL1       -0.0045
     11 C          46.2453   12.9662  -28.9306 C.ar    1  UNL1        0.0151
     12 C          45.7785   13.2347  -30.2156 C.ar    1  UNL1        0.0308
     13 C          45.8075   12.1860  -31.1536 C.ar    1  UNL1        0.1402
     14 F          45.3639   12.4001  -32.4166 F       1  UNL1       -0.2042
     15 C          46.2946   10.9104  -30.7866 C.ar    1  UNL1        0.0311
     16 C          46.7579   10.6709  -29.4793 C.ar    1  UNL1        0.0193
     17 C          46.7207   11.7274  -28.5708 C.ar    1  UNL1        0.0563
     18 N          47.1110   11.7094  -27.2808 N.ar    1  UNL1       -0.3549
     19 C          46.8904   12.9668  -26.8241 C.ar    1  UNL1        0.0544
     20 H          47.4964   10.8930  -26.7573 H       1  UNL1        0.1657
     21 C          47.4417   12.0471  -21.3397 C.ar    1  UNL1       -0.0093
     22 C          48.3782   12.5687  -20.4101 C.ar    1  UNL1       -0.0030
     23 C          48.0262   12.8058  -19.0786 C.ar    1  UNL1       -0.0003
     24 C          46.7288   12.5583  -18.6401 C.ar    1  UNL1       -0.0000
     25 C          45.7729   12.0920  -19.5374 C.ar    1  UNL1       -0.0003
     26 C          46.1157   11.8523  -20.8707 C.ar    1  UNL1       -0.0030
     27 C          48.3578    9.4820  -22.0204 C.3     1  UNL1        0.0898
     28 N          48.6757   10.5653  -22.9757 N.3     1  UNL1       -0.2693
     29 C          50.1361   10.8036  -22.9696 C.3     1  UNL1        0.0898
@<TRIPOS>BOND
     1    27    28    1
     2    28    29    1
     3     1    28    1
     4     1    21    1
     5    21    22   ar
     6    22    23   ar
     7    23    24   ar
     8    24    25   ar
     9    25    26   ar
    10     1     2    1
    11     2     3    1
    12     3     4    1
    13     4     5    1
    14     5     6    1
    15     4     7    1
    16     7     8    1
    17     8     9    1
    18     9    10    1
    19    10    11   ar
    20    11    12   ar
    21    12    13   ar
    22    13    14    1
    23    13    15   ar
    24    15    16   ar
    25    16    17   ar
    26    17    18   ar
    27    18    19   ar
    28     6     1    1
    29    19    10   ar
    30    26    21   ar
    31    19     4    1
    32    17    11   ar
    33    18    20    1
@<TRIPOS>MOLECULE
*****
 29 33 0 0 0
SMALL
GASTEIGER

@<TRIPOS>ATOM
      1 C          50.3915   12.8033  -21.7057 C.3     1  UNL1        0.0645
      2 C          50.0814   12.9682  -23.2541 C.3     1  UNL1        0.0217
      3 C          48.7377   13.6421  -23.5754 C.3     1  UNL1        0.0346
      4 C          48.6424   15.0924  -23.0070 C.3     1  UNL1        0.1252
      5 C          49.5320   15.2424  -21.7434 C.3     1  UNL1        0.0346
      6 C          49.5663   13.9271  -20.9588 C.3     1  UNL1        0.0217
      7 O          47.2936   15.3559  -22.5936 O.3     1  UNL1       -0.3527
      8 C          46.3958   15.5638  -23.6811 C.3     1  UNL1        0.1472
      9 C          46.7110   16.8681  -24.4303 C.3     1  UNL1        0.0597
     10 C          48.1692   16.8920  -24.7211 C.ar    1  UNL1       -0.0045
     11 C          48.8930   17.6474  -25.6142 C.ar    1  UNL1        0.0151
     12 C          48.5027   18.6136  -26.5390 C.ar    1  UNL1        0.0308
     13 C          49.5061   19.2041  -27.3295 C.ar    1  UNL1        0.1402
     14 F          49.1743   20.1494  -28.2428 F       1  UNL1       -0.2042
     15 C          50.8575   18.8166  -27.1785 C.ar    1  UNL1        0.0311
     16 C          51.2190   17.8360  -26.2358 C.ar    1  UNL1        0.0193
     17 C          50.2061   17.2691  -25.4639 C.ar    1  UNL1        0.0563
     18 N          50.3362   16.3207  -24.5151 N.ar    1  UNL1       -0.3549
     19 C          49.0808   16.1089  -24.0485 C.ar    1  UNL1        0.0544
     20 H          51.2209   15.8553  -24.2157 H       1  UNL1        0.1657
     21 C          49.9646   11.3941  -21.1818 C.ar    1  UNL1       -0.0093
     22 C          49.9604   11.0820  -19.7976 C.ar    1  UNL1       -0.0030
     23 C          49.5585    9.8254  -19.3368 C.ar    1  UNL1       -0.0003
     24 C          49.1237    8.8541  -20.2336 C.ar    1  UNL1       -0.0000
     25 C          49.0696    9.1436  -21.5936 C.ar    1  UNL1       -0.0003
     26 C          49.4692   10.3974  -22.0635 C.ar    1  UNL1       -0.0030
     27 C          52.2080   13.8076  -20.2865 C.3     1  UNL1        0.0898
     28 N          51.8679   13.0289  -21.4969 N.3     1  UNL1       -0.2693
     29 C          52.5928   13.5944  -22.6564 C.3     1  UNL1        0.0898
@<TRIPOS>BOND
     1    27    28    1
     2    28    29    1
     3     1    28    1
     4     1    21    1
     5    21    22   ar
     6    22    23   ar
     7    23    24   ar
     8    24    25   ar
     9    25    26   ar
    10     1     2    1
    11     2     3    1
    12     3     4    1
    13     4     5    1
    14     5     6    1
    15     4     7    1
    16     7     8    1
    17     8     9    1
    18     9    10    1
    19    10    11   ar
    20    11    12   ar
    21    12    13   ar
    22    13    14    1
    23    13    15   ar
    24    15    16   ar
    25    16    17   ar
    26    17    18   ar
    27    18    19   ar
    28     6     1    1
    29    19    10   ar
    30    26    21   ar
    31    19     4    1
    32    17    11   ar
    33    18    20    1
@<TRIPOS>MOLECULE
*****
 29 33 0 0 0
SMALL
GASTEIGER

@<TRIPOS>ATOM
      1 C          50.5374   10.2921  -24.5977 C.3     1  UNL1        0.0645
      2 C          50.8559    8.8356  -25.1437 C.3     1  UNL1        0.0217
      3 C          50.0532    8.4227  -26.3880 C.3     1  UNL1        0.0346
      4 C          50.3159    9.3579  -27.6095 C.3     1  UNL1        0.1252
      5 C          50.7119   10.7810  -27.1314 C.3     1  UNL1        0.0346
      6 C          49.9875   11.1234  -25.8257 C.3     1  UNL1        0.0217
      7 O          49.1074    9.5014  -28.3700 O.3     1  UNL1       -0.3527
      8 C          48.7774    8.3458  -29.1366 C.3     1  UNL1        0.1472
      9 C          49.7877    8.1151  -30.2713 C.3     1  UNL1        0.0597
     10 C          51.1559    8.1963  -29.6941 C.ar    1  UNL1       -0.0045
     11 C          52.3648    7.7653  -30.1890 C.ar    1  UNL1        0.0151
     12 C          52.6995    7.1054  -31.3695 C.ar    1  UNL1        0.0308
     13 C          54.0542    6.7859  -31.5778 C.ar    1  UNL1        0.1402
     14 F          54.4277    6.1442  -32.7120 F       1  UNL1       -0.2042
     15 C          55.0274    7.1283  -30.6110 C.ar    1  UNL1        0.0311
     16 C          54.6563    7.7937  -29.4275 C.ar    1  UNL1        0.0193
     17 C          53.3086    8.1007  -29.2474 C.ar    1  UNL1        0.0563
     18 N          52.7474    8.7269  -28.1940 N.ar    1  UNL1       -0.3549
     19 C          51.4252    8.8001  -28.4860 C.ar    1  UNL1        0.0544
     20 H          53.2380    9.0735  -27.3408 H       1  UNL1        0.1657
     21 C          49.4679   10.2568  -23.4585 C.ar    1  UNL1       -0.0093
     22 C          48.3211   11.0919  -23.4852 C.ar    1  UNL1       -0.0030
     23 C          47.3600   11.0398  -22.4720 C.ar    1  UNL1       -0.0003
     24 C          47.4961   10.1389  -21.4201 C.ar    1  UNL1       -0.0000
     25 C          48.5842    9.2721  -21.3886 C.ar    1  UNL1       -0.0003
     26 C          49.5500    9.3169  -22.3975 C.ar    1  UNL1       -0.0030
     27 C          51.8995   12.3722  -24.2232 C.3     1  UNL1        0.0898
     28 N          51.8267   10.8999  -24.1048 N.3     1  UNL1       -0.2693
     29 C          53.0615   10.3070  -24.6647 C.3     1  UNL1        0.0898
@<TRIPOS>BOND
     1    27    28    1
     2    28    29    1
     3     1    28    1
     4     1    21    1
     5    21    22   ar
     6    22    23   ar
     7    23    24   ar
     8    24    25   ar
     9    25    26   ar
    10     1     2    1
    11     2     3    1
    12     3     4    1
    13     4     5    1
    14     5     6    1
    15     4     7    1
    16     7     8    1
    17     8     9    1
    18     9    10    1
    19    10    11   ar
    20    11    12   ar
    21    12    13   ar
    22    13    14    1
    23    13    15   ar
    24    15    16   ar
    25    16    17   ar
    26    17    18   ar
    27    18    19   ar
    28     6     1    1
    29    19    10   ar
    30    26    21   ar
    31    19     4    1
    32    17    11   ar
    33    18    20    1
@<TRIPOS>MOLECULE
*****
 29 33 0 0 0
SMALL
GASTEIGER

@<TRIPOS>ATOM
      1 C          46.6734   12.9156  -26.5154 C.3     1  UNL1        0.0645
      2 C          47.2836   11.8245  -25.5365 C.3     1  UNL1        0.0217
      3 C          48.8100   11.8904  -25.3673 C.3     1  UNL1        0.0346
      4 C          49.2900   13.2516  -24.7738 C.3     1  UNL1        0.1252
      5 C          48.2992   14.3880  -25.1449 C.3     1  UNL1        0.0346
      6 C          47.6875   14.1293  -26.5254 C.3     1  UNL1        0.0217
      7 O          50.5554   13.6050  -25.3512 O.3     1  UNL1       -0.3527
      8 C          51.6443   12.8331  -24.8506 C.3     1  UNL1        0.1472
      9 C          51.9229   13.1448  -23.3718 C.3     1  UNL1        0.0597
     10 C          50.6321   13.0811  -22.6360 C.ar    1  UNL1       -0.0045
     11 C          50.3721   12.9672  -21.2901 C.ar    1  UNL1        0.0151
     12 C          51.2195   12.8592  -20.1895 C.ar    1  UNL1        0.0308
     13 C          50.6273   12.7425  -18.9181 C.ar    1  UNL1        0.1402
     14 F          51.4116   12.6352  -17.8176 F       1  UNL1       -0.2042
     15 C          49.2201   12.7347  -18.7817 C.ar    1  UNL1        0.0311
     16 C          48.3913   12.8442  -19.9140 C.ar    1  UNL1        0.0193
     17 C          49.0034   12.9612  -21.1609 C.ar    1  UNL1        0.0563
     18 N          48.3986   13.0740  -22.3602 N.ar    1  UNL1       -0.3549
     19 C          49.4079   13.1678  -23.2608 C.ar    1  UNL1        0.0544
     20 H          47.3711   13.0827  -22.5420 H       1  UNL1        0.1657
     21 C          46.5017   12.3550  -27.9642 C.ar    1  UNL1       -0.0093
     22 C          46.1377   13.1923  -29.0503 C.ar    1  UNL1       -0.0030
     23 C          46.0053   12.6860  -30.3462 C.ar    1  UNL1       -0.0003
     24 C          46.2574   11.3419  -30.6045 C.ar    1  UNL1       -0.0000
     25 C          46.6630   10.5034  -29.5707 C.ar    1  UNL1       -0.0003
     26 C          46.7983   11.0009  -28.2719 C.ar    1  UNL1       -0.0030
     27 C          45.2682   14.8022  -25.6274 C.3     1  UNL1        0.0898
     28 N          45.3475   13.3615  -25.9518 N.3     1  UNL1       -0.2693
     29 C          44.8533   12.5771  -24.7984 C.3     1  UNL1        0.0898
@<TRIPOS>BOND
     1    27    28    1
     2    28    29    1
     3     1    28    1
     4     1    21    1
     5    21    22   ar
     6    22    23   ar
     7    23    24   ar
     8    24    25   ar
     9    25    26   ar
    10     1     2    1
    11     2     3    1
    12     3     4    1
    13     4     5    1
    14     5     6    1
    15     4     7    1
    16     7     8    1
    17     8     9    1
    18     9    10    1
    19    10    11   ar
    20    11    12   ar
    21    12    13   ar
    22    13    14    1
    23    13    15   ar
    24    15    16   ar
    25    16    17   ar
    26    17    18   ar
    27    18    19   ar
    28     6     1    1
    29    19    10   ar
    30    26    21   ar
    31    19     4    1
    32    17    11   ar
    33    18    20    1
@<TRIPOS>MOLECULE
*****
 29 33 0 0 0
SMALL
GASTEIGER

@<TRIPOS>ATOM
      1 C          49.4819   11.3421  -23.5247 C.3     1  UNL1        0.0645
      2 C          49.2293   11.6742  -25.0567 C.3     1  UNL1        0.0217
      3 C          50.5037   11.8649  -25.8947 C.3     1  UNL1        0.0346
      4 C          51.4018   10.5888  -25.9204 C.3     1  UNL1        0.1252
      5 C          51.2001    9.7539  -24.6270 C.3     1  UNL1        0.0346
      6 C          50.9143   10.6769  -23.4382 C.3     1  UNL1        0.0217
      7 O          52.7831   10.9771  -25.9474 O.3     1  UNL1       -0.3527
      8 C          53.2073   11.4820  -27.2112 C.3     1  UNL1        0.1472
      9 C          53.2123   10.3820  -28.2844 C.3     1  UNL1        0.0597
     10 C          51.9064    9.6731  -28.2241 C.ar    1  UNL1       -0.0045
     11 C          51.2898    8.8507  -29.1382 C.ar    1  UNL1        0.0151
     12 C          51.6718    8.4298  -30.4102 C.ar    1  UNL1        0.0308
     13 C          50.7930    7.5811  -31.1088 C.ar    1  UNL1        0.1402
     14 F          51.1221    7.1454  -32.3496 F       1  UNL1       -0.2042
     15 C          49.5684    7.1817  -30.5256 C.ar    1  UNL1        0.0311
     16 C          49.2109    7.6259  -29.2388 C.ar    1  UNL1        0.0193
     17 C          50.1005    8.4633  -28.5677 C.ar    1  UNL1        0.0563
     18 N          49.9503    8.9979  -27.3396 N.ar    1  UNL1       -0.3549
     19 C          51.0753    9.7246  -27.1272 C.ar    1  UNL1        0.0544
     20 H          49.1349    8.8729  -26.7005 H       1  UNL1        0.1657
     21 C          49.4413   12.6322  -22.6435 C.ar    1  UNL1       -0.0093
     22 C          50.0653   12.6865  -21.3703 C.ar    1  UNL1       -0.0030
     23 C          50.0406   13.8507  -20.5975 C.ar    1  UNL1       -0.0003
     24 C          49.4207   15.0002  -21.0783 C.ar    1  UNL1       -0.0000
     25 C          48.8410   14.9954  -22.3433 C.ar    1  UNL1       -0.0003
     26 C          48.8611   13.8361  -23.1232 C.ar    1  UNL1       -0.0030
     27 C          47.1395   10.9612  -22.6939 C.3     1  UNL1        0.0898
     28 N          48.4320   10.3551  -23.0800 N.3     1  UNL1       -0.2693
     29 C          48.8579    9.4091  -22.0248 C.3     1  UNL1        0.0898
@<TRIPOS>BOND
     1    27    28    1
     2    28    29    1
     3     1    28    1
     4     1    21    1
     5    21    22   ar
     6    22    23   ar
     7    23    24   ar
     8    24    25   ar
     9    25    26   ar
    10     1     2    1
    11     2     3    1
    12     3     4    1
    13     4     5    1
    14     5     6    1
    15     4     7    1
    16     7     8    1
    17     8     9    1
    18     9    10    1
    19    10    11   ar
    20    11    12   ar
    21    12    13   ar
    22    13    14    1
    23    13    15   ar
    24    15    16   ar
    25    16    17   ar
    26    17    18   ar
    27    18    19   ar
    28     6     1    1
    29    19    10   ar
    30    26    21   ar
    31    19     4    1
    32    17    11   ar
    33    18    20    1
@<TRIPOS>MOLECULE
*****
 29 33 0 0 0
SMALL
GASTEIGER

@<TRIPOS>ATOM
      1 C          47.7169   13.4451  -25.3374 C.3     1  UNL1        0.0645
      2 C          46.8980   12.8172  -24.1307 C.3     1  UNL1        0.0217
      3 C          47.4453   11.4802  -23.6054 C.3     1  UNL1        0.0346
      4 C          48.9027   11.6008  -23.0603 C.3     1  UNL1        0.1252
      5 C          49.6597   12.7511  -23.7775 C.3     1  UNL1        0.0346
      6 C          49.1875   12.8732  -25.2298 C.3     1  UNL1        0.0217
      7 O          49.6222   10.3931  -23.3486 O.3     1  UNL1       -0.3527
      8 C          49.2450    9.2952  -22.5211 C.3     1  UNL1        0.1472
      9 C          49.6651    9.5206  -21.0602 C.3     1  UNL1        0.0597
     10 C          49.2163   10.8795  -20.6557 C.ar    1  UNL1       -0.0045
     11 C          49.0597   11.4376  -19.4083 C.ar    1  UNL1        0.0151
     12 C          49.2512   10.9166  -18.1304 C.ar    1  UNL1        0.0308
     13 C          48.9854   11.7591  -17.0349 C.ar    1  UNL1        0.1402
     14 F          49.1577   11.2963  -15.7724 F       1  UNL1       -0.2042
     15 C          48.5383   13.0843  -17.2427 C.ar    1  UNL1        0.0311
     16 C          48.3532   13.5802  -18.5469 C.ar    1  UNL1        0.0193
     17 C          48.6262   12.7259  -19.6139 C.ar    1  UNL1        0.0563
     18 N          48.5131   12.9997  -20.9288 N.ar    1  UNL1       -0.3549
     19 C          48.8977   11.8649  -21.5635 C.ar    1  UNL1        0.0544
     20 H          48.1933   13.8977  -21.3535 H       1  UNL1        0.1657
     21 C          47.0951   13.0555  -26.7173 C.ar    1  UNL1       -0.0093
     22 C          46.5672   14.0323  -27.6007 C.ar    1  UNL1       -0.0030
     23 C          46.0307   13.6767  -28.8412 C.ar    1  UNL1       -0.0003
     24 C          46.0286   12.3467  -29.2506 C.ar    1  UNL1       -0.0000
     25 C          46.5823   11.3695  -28.4290 C.ar    1  UNL1       -0.0003
     26 C          47.1212   11.7158  -27.1871 C.ar    1  UNL1       -0.0030
     27 C          49.0458   15.5779  -25.4240 C.3     1  UNL1        0.0898
     28 N          47.7364   14.9428  -25.1612 N.3     1  UNL1       -0.2693
     29 C          47.2092   15.4358  -23.8693 C.3     1  UNL1        0.0898
@<TRIPOS>BOND
     1    27    28    1
     2    28    29    1
     3     1    28    1
     4     1    21    1
     5    21    22   ar
     6    22    23   ar
     7    23    24   ar
     8    24    25   ar
     9    25    26   ar
    10     1     2    1
    11     2     3    1
    12     3     4    1
    13     4     5    1
    14     5     6    1
    15     4     7    1
    16     7     8    1
    17     8     9    1
    18     9    10    1
    19    10    11   ar
    20    11    12   ar
    21    12    13   ar
    22    13    14    1
    23    13    15   ar
    24    15    16   ar
    25    16    17   ar
    26    17    18   ar
    27    18    19   ar
    28     6     1    1
    29    19    10   ar
    30    26    21   ar
    31    19     4    1
    32    17    11   ar
    33    18    20    1
@<TRIPOS>MOLECULE
*****
 29 33 0 0 0
SMALL
GASTEIGER

@<TRIPOS>ATOM
      1 C          50.9668   12.1567  -24.5118 C.3     1  UNL1        0.0645
      2 C          49.8189   12.7854  -25.4107 C.3     1  UNL1        0.0217
      3 C          48.6990   13.4900  -24.6282 C.3     1  UNL1        0.0346
      4 C          49.2233   14.6895  -23.7786 C.3     1  UNL1        0.1252
      5 C          50.7047   14.4637  -23.3723 C.3     1  UNL1        0.0346
      6 C          50.9745   12.9713  -23.1561 C.3     1  UNL1        0.0217
      7 O          48.4716   14.7762  -22.5592 O.3     1  UNL1       -0.3527
      8 C          47.1531   15.2873  -22.7392 C.3     1  UNL1        0.1472
      9 C          47.1742   16.7675  -23.1520 C.3     1  UNL1        0.0597
     10 C          48.1357   16.9188  -24.2765 C.ar    1  UNL1       -0.0045
     11 C          48.2910   17.9327  -25.1929 C.ar    1  UNL1        0.0151
     12 C          47.5984   19.1274  -25.3778 C.ar    1  UNL1        0.0308
     13 C          48.0040   19.9603  -26.4373 C.ar    1  UNL1        0.1402
     14 F          47.3601   21.1331  -26.6559 F       1  UNL1       -0.2042
     15 C          49.0771   19.5808  -27.2760 C.ar    1  UNL1        0.0311
     16 C          49.7556   18.3660  -27.0635 C.ar    1  UNL1        0.0193
     17 C          49.3356   17.5612  -26.0057 C.ar    1  UNL1        0.0563
     18 N          49.8436   16.3691  -25.6349 N.ar    1  UNL1       -0.3549
     19 C          49.1130   15.9900  -24.5574 C.ar    1  UNL1        0.0544
     20 H          50.6302   15.8573  -26.0913 H       1  UNL1        0.1657
     21 C          50.7042   10.6437  -24.2209 C.ar    1  UNL1       -0.0093
     22 C          50.3615   10.1815  -22.9239 C.ar    1  UNL1       -0.0030
     23 C          50.1093    8.8292  -22.6771 C.ar    1  UNL1       -0.0003
     24 C          50.1629    7.9036  -23.7148 C.ar    1  UNL1       -0.0000
     25 C          50.4489    8.3306  -25.0080 C.ar    1  UNL1       -0.0003
     26 C          50.7022    9.6807  -25.2643 C.ar    1  UNL1       -0.0030
     27 C          52.3025   11.8378  -26.6182 C.3     1  UNL1        0.0898
     28 N          52.2799   12.3453  -25.2293 N.3     1  UNL1       -0.2693
     29 C          53.4724   11.8439  -24.5107 C.3     1  UNL1        0.0898
@<TRIPOS>BOND
     1    27    28    1
     2    28    29    1
     3     1    28    1
     4     1    21    1
     5    21    22   ar
     6    22    23   ar
     7    23    24   ar
     8    24    25   ar
     9    25    26   ar
    10     1     2    1
    11     2     3    1
    12     3     4    1
    13     4     5    1
    14     5     6    1
    15     4     7    1
    16     7     8    1
    17     8     9    1
    18     9    10    1
    19    10    11   ar
    20    11    12   ar
    21    12    13   ar
    22    13    14    1
    23    13    15   ar
    24    15    16   ar
    25    16    17   ar
    26    17    18   ar
    27    18    19   ar
    28     6     1    1
    29    19    10   ar
    30    26    21   ar
    31    19     4    1
    32    17    11   ar
    33    18    20    1
@<TRIPOS>MOLECULE
*****
 29 33 0 0 0
SMALL
GASTEIGER

@<TRIPOS>ATOM
      1 C          50.7087   12.0573  -23.3127 C.3     1  UNL1        0.0645
      2 C          50.2332   12.5241  -24.7539 C.3     1  UNL1        0.0217
      3 C          48.8452   13.1836  -24.7937 C.3     1  UNL1        0.0346
      4 C          48.7707   14.4784  -23.9255 C.3     1  UNL1        0.1252
      5 C          49.7839   14.4065  -22.7512 C.3     1  UNL1        0.0346
      6 C          49.9363   12.9604  -22.2690 C.3     1  UNL1        0.0217
      7 O          47.4663   14.5845  -23.3368 O.3     1  UNL1       -0.3527
      8 C          46.4537   14.9693  -24.2635 C.3     1  UNL1        0.1472
      9 C          46.6527   16.4142  -24.7475 C.3     1  UNL1        0.0597
     10 C          48.0711   16.5688  -25.1670 C.ar    1  UNL1       -0.0045
     11 C          48.6761   17.5272  -25.9464 C.ar    1  UNL1        0.0151
     12 C          48.1645   18.6438  -26.6041 C.ar    1  UNL1        0.0308
     13 C          49.0628   19.4334  -27.3459 C.ar    1  UNL1        0.1402
     14 F          48.6111   20.5301  -28.0025 F       1  UNL1       -0.2042
     15 C          50.4325   19.0893  -27.4120 C.ar    1  UNL1        0.0311
     16 C          50.9178   17.9534  -26.7371 C.ar    1  UNL1        0.0193
     17 C          50.0075   17.1903  -26.0077 C.ar    1  UNL1        0.0563
     18 N          50.2624   16.0734  -25.2976 N.ar    1  UNL1       -0.3549
     19 C          49.0693   15.7086  -24.7665 C.ar    1  UNL1        0.0544
     20 H          51.1861   15.5997  -25.1906 H       1  UNL1        0.1657
     21 C          50.3778   10.5510  -23.0591 C.ar    1  UNL1       -0.0093
     22 C          49.6866   10.1242  -21.8958 C.ar    1  UNL1       -0.0030
     23 C          49.3778    8.7774  -21.6866 C.ar    1  UNL1       -0.0003
     24 C          49.7213    7.8217  -22.6381 C.ar    1  UNL1       -0.0000
     25 C          50.3570    8.2128  -23.8126 C.ar    1  UNL1       -0.0003
     26 C          50.6695    9.5572  -24.0305 C.ar    1  UNL1       -0.0030
     27 C          52.5616   13.5038  -22.4201 C.3     1  UNL1        0.0898
     28 N          52.1922   12.3064  -23.2054 N.3     1  UNL1       -0.2693
     29 C          52.9264   12.3240  -24.4901 C.3     1  UNL1        0.0898
@<TRIPOS>BOND
     1    27    28    1
     2    28    29    1
     3     1    28    1
     4     1    21    1
     5    21    22   ar
     6    22    23   ar
     7    23    24   ar
     8    24    25   ar
     9    25    26   ar
    10     1     2    1
    11     2     3    1
    12     3     4    1
    13     4     5    1
    14     5     6    1
    15     4     7    1
    16     7     8    1
    17     8     9    1
    18     9    10    1
    19    10    11   ar
    20    11    12   ar
    21    12    13   ar
    22    13    14    1
    23    13    15   ar
    24    15    16   ar
    25    16    17   ar
    26    17    18   ar
    27    18    19   ar
    28     6     1    1
    29    19    10   ar
    30    26    21   ar
    31    19     4    1
    32    17    11   ar
    33    18    20    1
@<TRIPOS>MOLECULE
*****
 29 33 0 0 0
SMALL
GASTEIGER

@<TRIPOS>ATOM
      1 C          48.7433   12.5815  -24.7100 C.3     1  UNL1        0.0645
      2 C          48.8006   13.6047  -23.4973 C.3     1  UNL1        0.0217
      3 C          47.7898   13.3300  -22.3723 C.3     1  UNL1        0.0346
      4 C          47.9963   11.9331  -21.7076 C.3     1  UNL1        0.1252
      5 C          48.6276   10.9368  -22.7172 C.3     1  UNL1        0.0346
      6 C          48.1374   11.2375  -24.1372 C.3     1  UNL1        0.0217
      7 O          46.7221   11.3882  -21.3348 O.3     1  UNL1       -0.3527
      8 C          46.1492   12.0140  -20.1893 C.3     1  UNL1        0.1472
      9 C          46.9578   11.7105  -18.9181 C.3     1  UNL1        0.0597
     10 C          48.3916   11.9771  -19.2091 C.ar    1  UNL1       -0.0045
     11 C          49.4583   12.1666  -18.3615 C.ar    1  UNL1        0.0151
     12 C          49.5433   12.1873  -16.9710 C.ar    1  UNL1        0.0308
     13 C          50.8064   12.4241  -16.3973 C.ar    1  UNL1        0.1402
     14 F          50.9383   12.4529  -15.0484 F       1  UNL1       -0.2042
     15 C          51.9380   12.6337  -17.2187 C.ar    1  UNL1        0.0311
     16 C          51.8183   12.6080  -18.6209 C.ar    1  UNL1        0.0193
     17 C          50.5566   12.3689  -19.1631 C.ar    1  UNL1        0.0563
     18 N          50.2273   12.3065  -20.4686 N.ar    1  UNL1       -0.3549
     19 C          48.8970   12.0447  -20.4884 C.ar    1  UNL1        0.0544
     20 H          50.8696   12.4368  -21.2806 H       1  UNL1        0.1657
     21 C          47.8442   13.1171  -25.8708 C.ar    1  UNL1       -0.0093
     22 C          47.8494   14.4847  -26.2488 C.ar    1  UNL1       -0.0030
     23 C          47.0566   14.9513  -27.3009 C.ar    1  UNL1       -0.0003
     24 C          46.2588   14.0697  -28.0241 C.ar    1  UNL1       -0.0000
     25 C          46.2668   12.7139  -27.7105 C.ar    1  UNL1       -0.0003
     26 C          47.0565   12.2383  -26.6604 C.ar    1  UNL1       -0.0030
     27 C          50.4330   10.9563  -25.6188 C.3     1  UNL1        0.0898
     28 N          50.1533   12.3435  -25.1892 N.3     1  UNL1       -0.2693
     29 C          51.2202   12.7894  -24.2658 C.3     1  UNL1        0.0898
@<TRIPOS>BOND
     1    27    28    1
     2    28    29    1
     3     1    28    1
     4     1    21    1
     5    21    22   ar
     6    22    23   ar
     7    23    24   ar
     8    24    25   ar
     9    25    26   ar
    10     1     2    1
    11     2     3    1
    12     3     4    1
    13     4     5    1
    14     5     6    1
    15     4     7    1
    16     7     8    1
    17     8     9    1
    18     9    10    1
    19    10    11   ar
    20    11    12   ar
    21    12    13   ar
    22    13    14    1
    23    13    15   ar
    24    15    16   ar
    25    16    17   ar
    26    17    18   ar
    27    18    19   ar
    28     6     1    1
    29    19    10   ar
    30    26    21   ar
    31    19     4    1
    32    17    11   ar
    33    18    20    1
