@<TRIPOS>MOLECULE
*****
 50 55 0 0 0
SMALL
GASTEIGER

@<TRIPOS>ATOM
      1 C         -61.1792  -43.8008  -26.4073 C.3     1  UNL1        0.1535
      2 N         -61.5412  -45.2159  -26.2608 N.am    1  UNL1       -0.2945
      3 C         -61.0737  -46.0108  -25.1586 C.2     1  UNL1        0.2483
      4 O         -60.1517  -45.5731  -24.4170 O.2     1  UNL1       -0.2701
      5 H         -62.1117  -45.6837  -27.0009 H       1  UNL1        0.1501
      6 C         -61.6354  -47.3557  -24.8990 C.ar    1  UNL1        0.0808
      7 C         -60.9414  -48.2482  -24.0661 C.ar    1  UNL1        0.0080
      8 C         -61.4506  -49.5234  -23.8094 C.ar    1  UNL1        0.0148
      9 C         -62.6713  -49.9326  -24.3728 C.ar    1  UNL1        0.0502
     10 C         -63.3768  -49.0313  -25.1881 C.ar    1  UNL1        0.0443
     11 C         -62.8686  -47.7546  -25.4488 C.ar    1  UNL1        0.1457
     12 F         -63.6090  -46.8998  -26.1994 F       1  UNL1       -0.2040
     13 N         -63.2024  -51.2483  -24.1028 N.pl3   1  UNL1       -0.3040
     14 C         -62.9578  -51.8688  -22.7888 C.3     1  UNL1        0.1122
     15 C         -63.2932  -53.3605  -22.8055 C.3     1  UNL1        0.1122
     16 N         -64.6270  -53.5530  -23.3852 N.pl3   1  UNL1       -0.3040
     17 C         -64.9757  -52.8896  -24.6504 C.3     1  UNL1        0.1122
     18 C         -63.8190  -52.0332  -25.1853 C.3     1  UNL1        0.1122
     19 C         -65.6285  -54.3122  -22.6828 C.ar    1  UNL1        0.0488
     20 C         -65.2626  -55.4155  -21.8958 C.ar    1  UNL1        0.0154
     21 C         -66.2372  -56.1573  -21.2233 C.ar    1  UNL1        0.0135
     22 C         -67.5880  -55.8110  -21.3315 C.ar    1  UNL1        0.0683
     23 CL        -68.7850  -56.7692  -20.4706 Cl      1  UNL1       -0.0814
     24 C         -67.9648  -54.7123  -22.1217 C.ar    1  UNL1        0.0694
     25 CL        -69.6523  -54.2481  -22.2924 Cl      1  UNL1       -0.0813
     26 C         -66.9865  -53.9700  -22.7936 C.ar    1  UNL1        0.0268
     27 C         -60.7550  -43.4977  -27.8258 C.2     1  UNL1        0.2443
     28 O         -59.9981  -42.5147  -28.0548 O.2     1  UNL1       -0.2730
     29 N         -61.1041  -44.4097  -28.8808 N.am    1  UNL1       -0.2825
     30 H         -61.5602  -45.3117  -28.6135 H       1  UNL1        0.1549
     31 C         -60.6604  -44.2684  -30.2392 C.ar    1  UNL1        0.0535
     32 C         -59.4144  -44.7889  -30.6138 C.ar    1  UNL1        0.0353
     33 C         -58.9857  -44.6681  -31.9377 C.ar    1  UNL1        0.1002
     34 N         -59.7809  -44.0629  -32.8593 N.ar    1  UNL1       -0.2422
     35 C         -61.0019  -43.5648  -32.5289 C.ar    1  UNL1        0.1002
     36 C         -61.4680  -43.6631  -31.2155 C.ar    1  UNL1        0.0353
     37 C         -62.3650  -42.9073  -25.9947 C.3     1  UNL1        0.0569
     38 C         -63.1911  -40.7423  -21.6088 C.ar    1  UNL1        0.0503
     39 C         -64.5332  -40.3813  -21.8671 C.ar    1  UNL1        0.0043
     40 C         -65.1204  -40.6247  -23.1258 C.ar    1  UNL1        0.0002
     41 C         -64.3841  -41.2417  -24.1480 C.ar    1  UNL1        0.0012
     42 C         -63.0658  -41.6007  -23.8757 C.ar    1  UNL1        0.0132
     43 C         -62.1446  -42.2828  -24.6452 C.ar    1  UNL1       -0.0017
     44 C         -61.0355  -42.4628  -23.8284 C.ar    1  UNL1        0.0681
     45 N         -61.2457  -41.9050  -22.6157 N.ar    1  UNL1       -0.3522
     46 C         -62.4834  -41.3706  -22.6513 C.ar    1  UNL1        0.0591
     47 H         -60.5901  -41.9546  -21.8068 H       1  UNL1        0.1660
     48 C         -63.4315  -40.3774  -19.0398 C.3     1  UNL1        0.0773
     49 C         -62.5997  -40.4547  -20.2826 C.2     1  UNL1        0.1749
     50 O         -61.3522  -40.3047  -20.1834 O.2     1  UNL1       -0.2913
@<TRIPOS>BOND
     1    48    49    1
     2    49    50    2
     3    49    38    1
     4    38    39   ar
     5    39    40   ar
     6    40    41   ar
     7    41    42   ar
     8    42    43   ar
     9    43    37    1
    10    37     1    1
    11     1     2    1
    12     2     3   am
    13     3     4    2
    14     3     6    1
    15     6     7   ar
    16     7     8   ar
    17     8     9   ar
    18     9    13    1
    19    13    14    1
    20    14    15    1
    21    15    16    1
    22    16    19    1
    23    19    20   ar
    24    20    21   ar
    25    21    22   ar
    26    22    23    1
    27    22    24   ar
    28    24    25    1
    29    24    26   ar
    30    16    17    1
    31    17    18    1
    32     9    10   ar
    33    10    11   ar
    34    11    12    1
    35     1    27    1
    36    27    28    2
    37    27    29   am
    38    29    31    1
    39    31    32   ar
    40    32    33   ar
    41    33    34   ar
    42    34    35   ar
    43    35    36   ar
    44    43    44   ar
    45    44    45   ar
    46    45    46   ar
    47    46    38   ar
    48    46    42   ar
    49    11     6   ar
    50    36    31   ar
    51    18    13    1
    52    26    19   ar
    53     2     5    1
    54    29    30    1
    55    45    47    1
@<TRIPOS>MOLECULE
*****
 50 55 0 0 0
SMALL
GASTEIGER

@<TRIPOS>ATOM
      1 C         -60.1582  -46.2183  -27.0484 C.3     1  UNL1        0.1535
      2 N         -60.9557  -45.4222  -26.1075 N.am    1  UNL1       -0.2945
      3 C         -60.6911  -45.4232  -24.6950 C.2     1  UNL1        0.2483
      4 O         -59.9164  -46.2890  -24.2032 O.2     1  UNL1       -0.2701
      5 H         -61.7753  -44.8758  -26.4566 H       1  UNL1        0.1501
      6 C         -61.3429  -44.4417  -23.7986 C.ar    1  UNL1        0.0808
      7 C         -61.9706  -44.8855  -22.6235 C.ar    1  UNL1        0.0080
      8 C         -62.5945  -43.9780  -21.7643 C.ar    1  UNL1        0.0148
      9 C         -62.5972  -42.6032  -22.0558 C.ar    1  UNL1        0.0502
     10 C         -61.9496  -42.1567  -23.2203 C.ar    1  UNL1        0.0443
     11 C         -61.3258  -43.0631  -24.0837 C.ar    1  UNL1        0.1457
     12 F         -60.6684  -42.5814  -25.1692 F       1  UNL1       -0.2040
     13 N         -63.2361  -41.6630  -21.1649 N.pl3   1  UNL1       -0.3040
     14 C         -62.4216  -40.9480  -20.1666 C.3     1  UNL1        0.1122
     15 C         -63.2987  -40.2695  -19.1139 C.3     1  UNL1        0.1122
     16 N         -64.3494  -39.4938  -19.7823 N.pl3   1  UNL1       -0.3040
     17 C         -65.1436  -40.1127  -20.8540 C.3     1  UNL1        0.1122
     18 C         -64.7044  -41.5578  -21.1303 C.3     1  UNL1        0.1122
     19 C         -64.5508  -38.1048  -19.4618 C.ar    1  UNL1        0.0488
     20 C         -65.8327  -37.5370  -19.5336 C.ar    1  UNL1        0.0154
     21 C         -66.0243  -36.1862  -19.2323 C.ar    1  UNL1        0.0135
     22 C         -64.9400  -35.3846  -18.8607 C.ar    1  UNL1        0.0683
     23 CL        -65.2213  -33.6890  -18.4895 Cl      1  UNL1       -0.0814
     24 C         -63.6523  -35.9422  -18.7919 C.ar    1  UNL1        0.0694
     25 CL        -62.2603  -34.9683  -18.3382 Cl      1  UNL1       -0.0813
     26 C         -63.4629  -37.2960  -19.0932 C.ar    1  UNL1        0.0268
     27 C         -61.0454  -47.1105  -27.8854 C.2     1  UNL1        0.2443
     28 O         -60.5812  -48.1820  -28.3629 O.2     1  UNL1       -0.2730
     29 N         -62.4433  -46.8008  -28.0145 N.am    1  UNL1       -0.2825
     30 H         -62.8231  -46.0152  -27.4387 H       1  UNL1        0.1549
     31 C         -63.3884  -47.6396  -28.6968 C.ar    1  UNL1        0.0535
     32 C         -64.0365  -47.1565  -29.8414 C.ar    1  UNL1        0.0353
     33 C         -64.9443  -47.9747  -30.5176 C.ar    1  UNL1        0.1002
     34 N         -65.1845  -49.2376  -30.0755 N.ar    1  UNL1       -0.2422
     35 C         -64.5572  -49.7394  -28.9787 C.ar    1  UNL1        0.1002
     36 C         -63.6431  -48.9536  -28.2722 C.ar    1  UNL1        0.0353
     37 C         -59.3217  -45.2889  -27.9491 C.3     1  UNL1        0.0569
     38 C         -61.1581  -43.6398  -32.2519 C.ar    1  UNL1        0.0503
     39 C         -60.0534  -44.0229  -33.0462 C.ar    1  UNL1        0.0043
     40 C         -58.9018  -44.5896  -32.4621 C.ar    1  UNL1        0.0002
     41 C         -58.8334  -44.7946  -31.0762 C.ar    1  UNL1        0.0012
     42 C         -59.9335  -44.4211  -30.3073 C.ar    1  UNL1        0.0132
     43 C         -60.1790  -44.5763  -28.9577 C.ar    1  UNL1       -0.0017
     44 C         -61.4794  -44.1295  -28.7605 C.ar    1  UNL1        0.0681
     45 N         -62.0134  -43.6994  -29.9248 N.ar    1  UNL1       -0.3522
     46 C         -61.0628  -43.8699  -30.8661 C.ar    1  UNL1        0.0591
     47 H         -62.9943  -43.3711  -30.0540 H       1  UNL1        0.1660
     48 C         -62.6610  -43.2412  -34.3431 C.3     1  UNL1        0.0773
     49 C         -62.3436  -43.0296  -32.8951 C.2     1  UNL1        0.1749
     50 O         -63.1350  -42.3382  -32.1992 O.2     1  UNL1       -0.2913
@<TRIPOS>BOND
     1    48    49    1
     2    49    50    2
     3    49    38    1
     4    38    39   ar
     5    39    40   ar
     6    40    41   ar
     7    41    42   ar
     8    42    43   ar
     9    43    37    1
    10    37     1    1
    11     1     2    1
    12     2     3   am
    13     3     4    2
    14     3     6    1
    15     6     7   ar
    16     7     8   ar
    17     8     9   ar
    18     9    13    1
    19    13    14    1
    20    14    15    1
    21    15    16    1
    22    16    19    1
    23    19    20   ar
    24    20    21   ar
    25    21    22   ar
    26    22    23    1
    27    22    24   ar
    28    24    25    1
    29    24    26   ar
    30    16    17    1
    31    17    18    1
    32     9    10   ar
    33    10    11   ar
    34    11    12    1
    35     1    27    1
    36    27    28    2
    37    27    29   am
    38    29    31    1
    39    31    32   ar
    40    32    33   ar
    41    33    34   ar
    42    34    35   ar
    43    35    36   ar
    44    43    44   ar
    45    44    45   ar
    46    45    46   ar
    47    46    38   ar
    48    46    42   ar
    49    11     6   ar
    50    36    31   ar
    51    18    13    1
    52    26    19   ar
    53     2     5    1
    54    29    30    1
    55    45    47    1
@<TRIPOS>MOLECULE
*****
 50 55 0 0 0
SMALL
GASTEIGER

@<TRIPOS>ATOM
      1 C         -60.1572  -43.9864  -23.3807 C.3     1  UNL1        0.1535
      2 N         -60.8820  -45.2454  -23.5920 N.am    1  UNL1       -0.2945
      3 C         -60.1979  -46.4865  -23.8304 C.2     1  UNL1        0.2483
      4 O         -58.9646  -46.4812  -24.0959 O.2     1  UNL1       -0.2701
      5 H         -61.9265  -45.2424  -23.6244 H       1  UNL1        0.1501
      6 C         -60.9276  -47.7743  -23.8035 C.ar    1  UNL1        0.0808
      7 C         -60.4478  -48.8270  -23.0077 C.ar    1  UNL1        0.0080
      8 C         -61.1181  -50.0519  -22.9690 C.ar    1  UNL1        0.0148
      9 C         -62.2900  -50.2496  -23.7189 C.ar    1  UNL1        0.0502
     10 C         -62.7826  -49.1888  -24.4979 C.ar    1  UNL1        0.0443
     11 C         -62.1126  -47.9618  -24.5404 C.ar    1  UNL1        0.1457
     12 F         -62.6531  -46.9496  -25.2653 F       1  UNL1       -0.2040
     13 N         -62.9878  -51.5134  -23.6747 N.pl3   1  UNL1       -0.3040
     14 C         -62.7066  -52.4542  -22.5761 C.3     1  UNL1        0.1122
     15 C         -63.2696  -53.8442  -22.8743 C.3     1  UNL1        0.1122
     16 N         -64.6703  -53.7224  -23.2929 N.pl3   1  UNL1       -0.3040
     17 C         -65.0421  -52.7386  -24.3208 C.3     1  UNL1        0.1122
     18 C         -63.8288  -51.9337  -24.8080 C.3     1  UNL1        0.1122
     19 C         -65.6986  -54.4931  -22.6438 C.ar    1  UNL1        0.0488
     20 C         -65.3798  -55.6891  -21.9814 C.ar    1  UNL1        0.0154
     21 C         -66.3809  -56.4410  -21.3611 C.ar    1  UNL1        0.0135
     22 C         -67.7117  -56.0122  -21.3981 C.ar    1  UNL1        0.0683
     23 CL        -68.9432  -56.9861  -20.6062 Cl      1  UNL1       -0.0814
     24 C         -68.0417  -54.8199  -22.0639 C.ar    1  UNL1        0.0694
     25 CL        -69.7031  -54.2494  -22.1424 Cl      1  UNL1       -0.0813
     26 C         -67.0369  -54.0678  -22.6837 C.ar    1  UNL1        0.0268
     27 C         -60.9966  -42.8040  -23.8065 C.2     1  UNL1        0.2443
     28 O         -60.4364  -41.7817  -24.2889 O.2     1  UNL1       -0.2730
     29 N         -62.4303  -42.9080  -23.7865 N.am    1  UNL1       -0.2825
     30 H         -62.8477  -43.8416  -23.5692 H       1  UNL1        0.1549
     31 C         -63.3130  -41.8836  -24.2700 C.ar    1  UNL1        0.0535
     32 C         -63.5073  -41.7377  -25.6501 C.ar    1  UNL1        0.0353
     33 C         -64.3775  -40.7534  -26.1242 C.ar    1  UNL1        0.1002
     34 N         -65.0431  -39.9531  -25.2499 N.ar    1  UNL1       -0.2422
     35 C         -64.8882  -40.0835  -23.9056 C.ar    1  UNL1        0.1002
     36 C         -64.0261  -41.0542  -23.3894 C.ar    1  UNL1        0.0353
     37 C         -59.7486  -43.8546  -21.9007 C.3     1  UNL1        0.0569
     38 C         -63.4671  -41.8129  -19.3298 C.ar    1  UNL1        0.0503
     39 C         -64.3687  -42.8907  -19.4832 C.ar    1  UNL1        0.0043
     40 C         -64.0323  -44.0113  -20.2704 C.ar    1  UNL1        0.0002
     41 C         -62.7867  -44.0835  -20.9113 C.ar    1  UNL1        0.0012
     42 C         -61.9047  -43.0184  -20.7430 C.ar    1  UNL1        0.0132
     43 C         -60.6045  -42.8531  -21.1767 C.ar    1  UNL1       -0.0017
     44 C         -60.1743  -41.6552  -20.6203 C.ar    1  UNL1        0.0681
     45 N         -61.1618  -41.0909  -19.8908 N.ar    1  UNL1       -0.3522
     46 C         -62.2208  -41.9216  -19.9758 C.ar    1  UNL1        0.0591
     47 H         -61.0723  -40.2195  -19.3259 H       1  UNL1        0.1660
     48 C         -65.0418  -40.6744  -17.5934 C.3     1  UNL1        0.0773
     49 C         -63.8598  -40.6429  -18.5123 C.2     1  UNL1        0.1749
     50 O         -63.1603  -39.5955  -18.5591 O.2     1  UNL1       -0.2913
@<TRIPOS>BOND
     1    48    49    1
     2    49    50    2
     3    49    38    1
     4    38    39   ar
     5    39    40   ar
     6    40    41   ar
     7    41    42   ar
     8    42    43   ar
     9    43    37    1
    10    37     1    1
    11     1     2    1
    12     2     3   am
    13     3     4    2
    14     3     6    1
    15     6     7   ar
    16     7     8   ar
    17     8     9   ar
    18     9    13    1
    19    13    14    1
    20    14    15    1
    21    15    16    1
    22    16    19    1
    23    19    20   ar
    24    20    21   ar
    25    21    22   ar
    26    22    23    1
    27    22    24   ar
    28    24    25    1
    29    24    26   ar
    30    16    17    1
    31    17    18    1
    32     9    10   ar
    33    10    11   ar
    34    11    12    1
    35     1    27    1
    36    27    28    2
    37    27    29   am
    38    29    31    1
    39    31    32   ar
    40    32    33   ar
    41    33    34   ar
    42    34    35   ar
    43    35    36   ar
    44    43    44   ar
    45    44    45   ar
    46    45    46   ar
    47    46    38   ar
    48    46    42   ar
    49    11     6   ar
    50    36    31   ar
    51    18    13    1
    52    26    19   ar
    53     2     5    1
    54    29    30    1
    55    45    47    1
@<TRIPOS>MOLECULE
*****
 50 55 0 0 0
SMALL
GASTEIGER

@<TRIPOS>ATOM
      1 C         -65.9665  -55.8595  -21.8292 C.3     1  UNL1        0.1535
      2 N         -65.5636  -54.5160  -22.2623 N.am    1  UNL1       -0.2945
      3 C         -64.1967  -54.1920  -22.5651 C.2     1  UNL1        0.2483
      4 O         -63.2765  -54.9919  -22.2410 O.2     1  UNL1       -0.2701
      5 H         -66.2742  -53.7509  -22.3048 H       1  UNL1        0.1501
      6 C         -63.8462  -52.9130  -23.2232 C.ar    1  UNL1        0.0808
      7 C         -64.6909  -52.3891  -24.2151 C.ar    1  UNL1        0.0080
      8 C         -64.3788  -51.1855  -24.8518 C.ar    1  UNL1        0.0148
      9 C         -63.2185  -50.4728  -24.5045 C.ar    1  UNL1        0.0502
     10 C         -62.3850  -50.9859  -23.4961 C.ar    1  UNL1        0.0443
     11 C         -62.6935  -52.1917  -22.8582 C.ar    1  UNL1        0.1457
     12 F         -61.8875  -52.6223  -21.8547 F       1  UNL1       -0.2040
     13 N         -62.8981  -49.2249  -25.1573 N.pl3   1  UNL1       -0.3040
     14 C         -61.5631  -48.6321  -24.9638 C.3     1  UNL1        0.1122
     15 C         -61.5233  -47.1799  -25.4409 C.3     1  UNL1        0.1122
     16 N         -62.0906  -47.0954  -26.7911 N.pl3   1  UNL1       -0.3040
     17 C         -63.3782  -47.7427  -27.0837 C.3     1  UNL1        0.1122
     18 C         -63.9486  -48.4639  -25.8541 C.3     1  UNL1        0.1122
     19 C         -61.3569  -46.4621  -27.8557 C.ar    1  UNL1        0.0488
     20 C         -59.9735  -46.6630  -27.9836 C.ar    1  UNL1        0.0154
     21 C         -59.2616  -46.0390  -29.0112 C.ar    1  UNL1        0.0135
     22 C         -59.9193  -45.2038  -29.9202 C.ar    1  UNL1        0.0683
     23 CL        -58.9888  -44.4360  -31.1995 Cl      1  UNL1       -0.0814
     24 C         -61.3026  -44.9915  -29.7967 C.ar    1  UNL1        0.0694
     25 CL        -62.1669  -43.9422  -30.9120 Cl      1  UNL1       -0.0813
     26 C         -62.0139  -45.6186  -28.7670 C.ar    1  UNL1        0.0268
     27 C         -67.1418  -55.7900  -20.8818 C.2     1  UNL1        0.2443
     28 O         -67.3010  -56.6943  -20.0166 O.2     1  UNL1       -0.2730
     29 N         -67.9867  -54.6268  -20.8839 N.am    1  UNL1       -0.2825
     30 H         -67.6985  -53.8169  -21.4788 H       1  UNL1        0.1549
     31 C         -69.0608  -54.4172  -19.9541 C.ar    1  UNL1        0.0535
     32 C         -70.2035  -53.7200  -20.3685 C.ar    1  UNL1        0.0353
     33 C         -71.2576  -53.5278  -19.4725 C.ar    1  UNL1        0.1002
     34 N         -71.1801  -54.0286  -18.2111 N.ar    1  UNL1       -0.2422
     35 C         -70.0920  -54.7245  -17.7869 C.ar    1  UNL1        0.1002
     36 C         -69.0148  -54.9378  -18.6507 C.ar    1  UNL1        0.0353
     37 C         -66.3104  -56.7281  -23.0548 C.3     1  UNL1        0.0569
     38 C         -70.4532  -54.8435  -25.0275 C.ar    1  UNL1        0.0503
     39 C         -71.3526  -55.5423  -24.1903 C.ar    1  UNL1        0.0043
     40 C         -70.8859  -56.4851  -23.2513 C.ar    1  UNL1        0.0002
     41 C         -69.5130  -56.7420  -23.1218 C.ar    1  UNL1        0.0012
     42 C         -68.6380  -56.0387  -23.9468 C.ar    1  UNL1        0.0132
     43 C         -67.2581  -56.0233  -23.9849 C.ar    1  UNL1       -0.0017
     44 C         -66.9208  -55.0540  -24.9211 C.ar    1  UNL1        0.0681
     45 N         -68.0338  -54.5044  -25.4548 N.ar    1  UNL1       -0.3522
     46 C         -69.0813  -55.1152  -24.8644 C.ar    1  UNL1        0.0591
     47 H         -68.0504  -53.7155  -26.1359 H       1  UNL1        0.1660
     48 C         -72.3880  -53.9339  -26.5175 C.3     1  UNL1        0.0773
     49 C         -70.9781  -53.8748  -26.0162 C.2     1  UNL1        0.1749
     50 O         -70.2309  -52.9463  -26.4262 O.2     1  UNL1       -0.2913
@<TRIPOS>BOND
     1    48    49    1
     2    49    50    2
     3    49    38    1
     4    38    39   ar
     5    39    40   ar
     6    40    41   ar
     7    41    42   ar
     8    42    43   ar
     9    43    37    1
    10    37     1    1
    11     1     2    1
    12     2     3   am
    13     3     4    2
    14     3     6    1
    15     6     7   ar
    16     7     8   ar
    17     8     9   ar
    18     9    13    1
    19    13    14    1
    20    14    15    1
    21    15    16    1
    22    16    19    1
    23    19    20   ar
    24    20    21   ar
    25    21    22   ar
    26    22    23    1
    27    22    24   ar
    28    24    25    1
    29    24    26   ar
    30    16    17    1
    31    17    18    1
    32     9    10   ar
    33    10    11   ar
    34    11    12    1
    35     1    27    1
    36    27    28    2
    37    27    29   am
    38    29    31    1
    39    31    32   ar
    40    32    33   ar
    41    33    34   ar
    42    34    35   ar
    43    35    36   ar
    44    43    44   ar
    45    44    45   ar
    46    45    46   ar
    47    46    38   ar
    48    46    42   ar
    49    11     6   ar
    50    36    31   ar
    51    18    13    1
    52    26    19   ar
    53     2     5    1
    54    29    30    1
    55    45    47    1
@<TRIPOS>MOLECULE
*****
 50 55 0 0 0
SMALL
GASTEIGER

@<TRIPOS>ATOM
      1 C         -62.4300  -42.8684  -25.8344 C.3     1  UNL1        0.1535
      2 N         -62.6437  -44.3198  -25.7829 N.am    1  UNL1       -0.2945
      3 C         -61.7331  -45.1995  -25.1033 C.2     1  UNL1        0.2483
      4 O         -60.6054  -44.7708  -24.7344 O.2     1  UNL1       -0.2701
      5 H         -63.4497  -44.7430  -26.2962 H       1  UNL1        0.1501
      6 C         -62.0848  -46.6166  -24.8585 C.ar    1  UNL1        0.0808
      7 C         -63.2881  -47.1307  -25.3681 C.ar    1  UNL1        0.0080
      8 C         -63.6421  -48.4637  -25.1470 C.ar    1  UNL1        0.0148
      9 C         -62.7958  -49.3168  -24.4183 C.ar    1  UNL1        0.0502
     10 C         -61.5811  -48.8082  -23.9276 C.ar    1  UNL1        0.0443
     11 C         -61.2248  -47.4735  -24.1454 C.ar    1  UNL1        0.1457
     12 F         -60.0190  -47.0400  -23.6978 F       1  UNL1       -0.2040
     13 N         -63.1573  -50.6972  -24.1947 N.pl3   1  UNL1       -0.3040
     14 C         -62.8974  -51.3064  -22.8785 C.3     1  UNL1        0.1122
     15 C         -63.0273  -52.8289  -22.9333 C.3     1  UNL1        0.1122
     16 N         -64.2923  -53.1863  -23.5846 N.pl3   1  UNL1       -0.3040
     17 C         -64.6635  -52.5495  -24.8571 C.3     1  UNL1        0.1122
     18 C         -63.6076  -51.5350  -25.3188 C.3     1  UNL1        0.1122
     19 C         -65.2161  -54.0872  -22.9462 C.ar    1  UNL1        0.0488
     20 C         -64.7446  -55.1849  -22.2090 C.ar    1  UNL1        0.0154
     21 C         -65.6431  -56.0640  -21.5990 C.ar    1  UNL1        0.0135
     22 C         -67.0218  -55.8620  -21.7207 C.ar    1  UNL1        0.0683
     23 CL        -68.1207  -56.9904  -20.9390 Cl      1  UNL1       -0.0814
     24 C         -67.5035  -54.7699  -22.4616 C.ar    1  UNL1        0.0694
     25 CL        -69.2286  -54.4844  -22.6477 Cl      1  UNL1       -0.0813
     26 C         -66.6014  -53.8899  -23.0710 C.ar    1  UNL1        0.0268
     27 C         -62.4925  -42.2655  -24.4501 C.2     1  UNL1        0.2443
     28 O         -63.6097  -41.9502  -23.9560 O.2     1  UNL1       -0.2730
     29 N         -61.2963  -42.1846  -23.6569 N.am    1  UNL1       -0.2825
     30 H         -60.4327  -42.6403  -24.0305 H       1  UNL1        0.1549
     31 C         -61.2690  -41.7286  -22.2954 C.ar    1  UNL1        0.0535
     32 C         -62.0766  -40.6483  -21.9153 C.ar    1  UNL1        0.0353
     33 C         -62.0656  -40.2117  -20.5886 C.ar    1  UNL1        0.1002
     34 N         -61.2872  -40.8424  -19.6697 N.ar    1  UNL1       -0.2422
     35 C         -60.5074  -41.9041  -20.0055 C.ar    1  UNL1        0.1002
     36 C         -60.4876  -42.3717  -21.3220 C.ar    1  UNL1        0.0353
     37 C         -61.0747  -42.5578  -26.4989 C.3     1  UNL1        0.0569
     38 C         -60.8337  -43.6965  -31.3209 C.ar    1  UNL1        0.0503
     39 C         -59.9636  -44.8007  -31.1737 C.ar    1  UNL1        0.0043
     40 C         -59.4343  -45.1441  -29.9126 C.ar    1  UNL1        0.0002
     41 C         -59.7703  -44.3994  -28.7723 C.ar    1  UNL1        0.0012
     42 C         -60.6366  -43.3200  -28.9311 C.ar    1  UNL1        0.0132
     43 C         -61.1974  -42.4745  -27.9949 C.ar    1  UNL1       -0.0017
     44 C         -62.0728  -41.6608  -28.7029 C.ar    1  UNL1        0.0681
     45 N         -62.0467  -41.9696  -30.0181 N.ar    1  UNL1       -0.3522
     46 C         -61.1609  -42.9773  -30.1555 C.ar    1  UNL1        0.0591
     47 H         -62.6546  -41.5440  -30.7501 H       1  UNL1        0.1660
     48 C         -60.5413  -43.5364  -33.9054 C.3     1  UNL1        0.0773
     49 C         -61.3559  -43.3517  -32.6625 C.2     1  UNL1        0.1749
     50 O         -62.5358  -42.9225  -32.7731 O.2     1  UNL1       -0.2913
@<TRIPOS>BOND
     1    48    49    1
     2    49    50    2
     3    49    38    1
     4    38    39   ar
     5    39    40   ar
     6    40    41   ar
     7    41    42   ar
     8    42    43   ar
     9    43    37    1
    10    37     1    1
    11     1     2    1
    12     2     3   am
    13     3     4    2
    14     3     6    1
    15     6     7   ar
    16     7     8   ar
    17     8     9   ar
    18     9    13    1
    19    13    14    1
    20    14    15    1
    21    15    16    1
    22    16    19    1
    23    19    20   ar
    24    20    21   ar
    25    21    22   ar
    26    22    23    1
    27    22    24   ar
    28    24    25    1
    29    24    26   ar
    30    16    17    1
    31    17    18    1
    32     9    10   ar
    33    10    11   ar
    34    11    12    1
    35     1    27    1
    36    27    28    2
    37    27    29   am
    38    29    31    1
    39    31    32   ar
    40    32    33   ar
    41    33    34   ar
    42    34    35   ar
    43    35    36   ar
    44    43    44   ar
    45    44    45   ar
    46    45    46   ar
    47    46    38   ar
    48    46    42   ar
    49    11     6   ar
    50    36    31   ar
    51    18    13    1
    52    26    19   ar
    53     2     5    1
    54    29    30    1
    55    45    47    1
@<TRIPOS>MOLECULE
*****
 50 55 0 0 0
SMALL
GASTEIGER

@<TRIPOS>ATOM
      1 C         -61.9512  -47.5399  -26.3367 C.3     1  UNL1        0.1535
      2 N         -62.4655  -46.6344  -25.3020 N.am    1  UNL1       -0.2945
      3 C         -61.6229  -46.1090  -24.2633 C.2     1  UNL1        0.2483
      4 O         -60.4747  -46.5987  -24.0801 O.2     1  UNL1       -0.2701
      5 H         -63.4835  -46.3996  -25.2789 H       1  UNL1        0.1501
      6 C         -62.0958  -45.0206  -23.3782 C.ar    1  UNL1        0.0808
      7 C         -62.4044  -45.3015  -22.0375 C.ar    1  UNL1        0.0080
      8 C         -62.8552  -44.2910  -21.1848 C.ar    1  UNL1        0.0148
      9 C         -62.9992  -42.9732  -21.6512 C.ar    1  UNL1        0.0502
     10 C         -62.6689  -42.6877  -22.9870 C.ar    1  UNL1        0.0443
     11 C         -62.2192  -43.6976  -23.8438 C.ar    1  UNL1        0.1457
     12 F         -61.8627  -43.3658  -25.1107 F       1  UNL1       -0.2040
     13 N         -63.4588  -41.9261  -20.7690 N.pl3   1  UNL1       -0.3040
     14 C         -62.4708  -41.0584  -20.1039 C.3     1  UNL1        0.1122
     15 C         -63.1093  -40.2513  -18.9730 C.3     1  UNL1        0.1122
     16 N         -64.3280  -39.6011  -19.4671 N.pl3   1  UNL1       -0.3040
     17 C         -65.3188  -40.3840  -20.2207 C.3     1  UNL1        0.1122
     18 C         -64.8808  -41.8451  -20.3954 C.3     1  UNL1        0.1122
     19 C         -64.5220  -38.1844  -19.2996 C.ar    1  UNL1        0.0488
     20 C         -65.7878  -37.6113  -19.4994 C.ar    1  UNL1        0.0154
     21 C         -65.9716  -36.2347  -19.3466 C.ar    1  UNL1        0.0135
     22 C         -64.8949  -35.4128  -18.9978 C.ar    1  UNL1        0.0683
     23 CL        -65.1659  -33.6849  -18.8153 Cl      1  UNL1       -0.0814
     24 C         -63.6229  -35.9760  -18.8018 C.ar    1  UNL1        0.0694
     25 CL        -62.2405  -34.9780  -18.3715 Cl      1  UNL1       -0.0813
     26 C         -63.4415  -37.3556  -18.9543 C.ar    1  UNL1        0.0268
     27 C         -61.5795  -48.8793  -25.7437 C.2     1  UNL1        0.2443
     28 O         -60.7563  -49.6220  -26.3455 O.2     1  UNL1       -0.2730
     29 N         -62.0595  -49.2338  -24.4358 N.am    1  UNL1       -0.2825
     30 H         -62.5746  -48.5043  -23.8921 H       1  UNL1        0.1549
     31 C         -61.6787  -50.4320  -23.7419 C.ar    1  UNL1        0.0535
     32 C         -62.6421  -51.4188  -23.4931 C.ar    1  UNL1        0.0353
     33 C         -62.2728  -52.5930  -22.8330 C.ar    1  UNL1        0.1002
     34 N         -60.9825  -52.7824  -22.4490 N.ar    1  UNL1       -0.2422
     35 C         -60.0230  -51.8507  -22.6929 C.ar    1  UNL1        0.1002
     36 C         -60.3503  -50.6614  -23.3490 C.ar    1  UNL1        0.0353
     37 C         -62.9988  -47.7147  -27.4532 C.3     1  UNL1        0.0569
     38 C         -61.2114  -44.3812  -30.6624 C.ar    1  UNL1        0.0503
     39 C         -59.8617  -44.4862  -30.2558 C.ar    1  UNL1        0.0043
     40 C         -59.4926  -45.3095  -29.1720 C.ar    1  UNL1        0.0002
     41 C         -60.4606  -46.0516  -28.4793 C.ar    1  UNL1        0.0012
     42 C         -61.7852  -45.9456  -28.8975 C.ar    1  UNL1        0.0132
     43 C         -62.9175  -46.6080  -28.4673 C.ar    1  UNL1       -0.0017
     44 C         -63.9370  -46.1953  -29.3158 C.ar    1  UNL1        0.0681
     45 N         -63.4696  -45.3057  -30.2191 N.ar    1  UNL1       -0.3522
     46 C         -62.1566  -45.1480  -29.9545 C.ar    1  UNL1        0.0591
     47 H         -64.0219  -44.8920  -31.0003 H       1  UNL1        0.1660
     48 C         -60.7911  -43.4836  -33.0725 C.3     1  UNL1        0.0773
     49 C         -61.5669  -43.4926  -31.7917 C.2     1  UNL1        0.1749
     50 O         -62.5754  -42.7430  -31.6923 O.2     1  UNL1       -0.2913
@<TRIPOS>BOND
     1    48    49    1
     2    49    50    2
     3    49    38    1
     4    38    39   ar
     5    39    40   ar
     6    40    41   ar
     7    41    42   ar
     8    42    43   ar
     9    43    37    1
    10    37     1    1
    11     1     2    1
    12     2     3   am
    13     3     4    2
    14     3     6    1
    15     6     7   ar
    16     7     8   ar
    17     8     9   ar
    18     9    13    1
    19    13    14    1
    20    14    15    1
    21    15    16    1
    22    16    19    1
    23    19    20   ar
    24    20    21   ar
    25    21    22   ar
    26    22    23    1
    27    22    24   ar
    28    24    25    1
    29    24    26   ar
    30    16    17    1
    31    17    18    1
    32     9    10   ar
    33    10    11   ar
    34    11    12    1
    35     1    27    1
    36    27    28    2
    37    27    29   am
    38    29    31    1
    39    31    32   ar
    40    32    33   ar
    41    33    34   ar
    42    34    35   ar
    43    35    36   ar
    44    43    44   ar
    45    44    45   ar
    46    45    46   ar
    47    46    38   ar
    48    46    42   ar
    49    11     6   ar
    50    36    31   ar
    51    18    13    1
    52    26    19   ar
    53     2     5    1
    54    29    30    1
    55    45    47    1
@<TRIPOS>MOLECULE
*****
 50 55 0 0 0
SMALL
GASTEIGER

@<TRIPOS>ATOM
      1 C         -63.7832  -45.9691  -28.8770 C.3     1  UNL1        0.1535
      2 N         -63.7584  -45.3476  -27.5473 N.am    1  UNL1       -0.2945
      3 C         -62.7326  -44.4185  -27.1605 C.2     1  UNL1        0.2483
      4 O         -61.6988  -44.2941  -27.8730 O.2     1  UNL1       -0.2701
      5 H         -64.4723  -45.6208  -26.8347 H       1  UNL1        0.1501
      6 C         -62.8540  -43.6266  -25.9156 C.ar    1  UNL1        0.0808
      7 C         -63.4474  -42.3546  -25.9577 C.ar    1  UNL1        0.0080
      8 C         -63.5699  -41.5883  -24.7963 C.ar    1  UNL1        0.0148
      9 C         -63.1096  -42.0805  -23.5631 C.ar    1  UNL1        0.0502
     10 C         -62.5361  -43.3626  -23.5171 C.ar    1  UNL1        0.0443
     11 C         -62.4101  -44.1315  -24.6785 C.ar    1  UNL1        0.1457
     12 F         -61.8974  -45.3842  -24.5777 F       1  UNL1       -0.2040
     13 N         -63.2417  -41.2919  -22.3602 N.pl3   1  UNL1       -0.3040
     14 C         -62.2250  -40.2709  -22.0523 C.3     1  UNL1        0.1122
     15 C         -62.3415  -39.7861  -20.6068 C.3     1  UNL1        0.1122
     16 N         -63.7364  -39.4310  -20.3234 N.pl3   1  UNL1       -0.3040
     17 C         -64.8149  -40.3621  -20.6872 C.3     1  UNL1        0.1122
     18 C         -64.2731  -41.6289  -21.3648 C.3     1  UNL1        0.1122
     19 C         -64.0673  -38.1418  -19.7747 C.ar    1  UNL1        0.0488
     20 C         -65.4085  -37.7687  -19.5940 C.ar    1  UNL1        0.0154
     21 C         -65.7275  -36.5129  -19.0710 C.ar    1  UNL1        0.0135
     22 C         -64.7138  -35.6127  -18.7269 C.ar    1  UNL1        0.0683
     23 CL        -65.1554  -34.0415  -18.0723 Cl      1  UNL1       -0.0814
     24 C         -63.3687  -35.9745  -18.9100 C.ar    1  UNL1        0.0694
     25 CL        -62.0637  -34.8698  -18.4993 Cl      1  UNL1       -0.0813
     26 C         -63.0515  -37.2335  -19.4330 C.ar    1  UNL1        0.0268
     27 C         -62.9519  -45.1752  -29.8580 C.2     1  UNL1        0.2443
     28 O         -63.3680  -44.0570  -30.2679 O.2     1  UNL1       -0.2730
     29 N         -61.6355  -45.6355  -30.2077 N.am    1  UNL1       -0.2825
     30 H         -61.2551  -46.4608  -29.6908 H       1  UNL1        0.1549
     31 C         -60.7281  -44.9018  -31.0446 C.ar    1  UNL1        0.0535
     32 C         -59.3479  -45.0935  -30.8969 C.ar    1  UNL1        0.0353
     33 C         -58.4620  -44.3943  -31.7198 C.ar    1  UNL1        0.1002
     34 N         -58.9384  -43.5450  -32.6683 N.ar    1  UNL1       -0.2422
     35 C         -60.2724  -43.3526  -32.8465 C.ar    1  UNL1        0.1002
     36 C         -61.1927  -44.0311  -32.0435 C.ar    1  UNL1        0.0353
     37 C         -63.2766  -47.4219  -28.7900 C.3     1  UNL1        0.0569
     38 C         -61.9603  -49.1693  -24.3381 C.ar    1  UNL1        0.0503
     39 C         -63.2159  -49.7345  -24.0186 C.ar    1  UNL1        0.0043
     40 C         -64.3206  -49.5826  -24.8818 C.ar    1  UNL1        0.0002
     41 C         -64.1921  -48.8729  -26.0849 C.ar    1  UNL1        0.0012
     42 C         -62.9462  -48.3299  -26.3911 C.ar    1  UNL1        0.0132
     43 C         -62.5099  -47.6660  -27.5202 C.ar    1  UNL1       -0.0017
     44 C         -61.1498  -47.4580  -27.3293 C.ar    1  UNL1        0.0681
     45 N         -60.7593  -47.9504  -26.1332 N.ar    1  UNL1       -0.3522
     46 C         -61.8613  -48.4738  -25.5582 C.ar    1  UNL1        0.0591
     47 H         -59.7787  -47.9711  -25.7801 H       1  UNL1        0.1660
     48 C         -60.7853  -50.4293  -22.3829 C.3     1  UNL1        0.0773
     49 C         -60.8265  -49.3311  -23.4001 C.2     1  UNL1        0.1749
     50 O         -59.8446  -48.5448  -23.4786 O.2     1  UNL1       -0.2913
@<TRIPOS>BOND
     1    48    49    1
     2    49    50    2
     3    49    38    1
     4    38    39   ar
     5    39    40   ar
     6    40    41   ar
     7    41    42   ar
     8    42    43   ar
     9    43    37    1
    10    37     1    1
    11     1     2    1
    12     2     3   am
    13     3     4    2
    14     3     6    1
    15     6     7   ar
    16     7     8   ar
    17     8     9   ar
    18     9    13    1
    19    13    14    1
    20    14    15    1
    21    15    16    1
    22    16    19    1
    23    19    20   ar
    24    20    21   ar
    25    21    22   ar
    26    22    23    1
    27    22    24   ar
    28    24    25    1
    29    24    26   ar
    30    16    17    1
    31    17    18    1
    32     9    10   ar
    33    10    11   ar
    34    11    12    1
    35     1    27    1
    36    27    28    2
    37    27    29   am
    38    29    31    1
    39    31    32   ar
    40    32    33   ar
    41    33    34   ar
    42    34    35   ar
    43    35    36   ar
    44    43    44   ar
    45    44    45   ar
    46    45    46   ar
    47    46    38   ar
    48    46    42   ar
    49    11     6   ar
    50    36    31   ar
    51    18    13    1
    52    26    19   ar
    53     2     5    1
    54    29    30    1
    55    45    47    1
@<TRIPOS>MOLECULE
*****
 50 55 0 0 0
SMALL
GASTEIGER

@<TRIPOS>ATOM
      1 C         -61.1438  -46.8872  -27.0760 C.3     1  UNL1        0.1535
      2 N         -61.7698  -46.0821  -26.0200 N.am    1  UNL1       -0.2945
      3 C         -61.1738  -45.9350  -24.7207 C.2     1  UNL1        0.2483
      4 O         -60.2169  -46.6841  -24.3819 O.2     1  UNL1       -0.2701
      5 H         -62.7021  -45.6412  -26.1891 H       1  UNL1        0.1501
      6 C         -61.6894  -44.9374  -23.7561 C.ar    1  UNL1        0.0808
      7 C         -62.1107  -43.6798  -24.2173 C.ar    1  UNL1        0.0080
      8 C         -62.5979  -42.7218  -23.3251 C.ar    1  UNL1        0.0148
      9 C         -62.6838  -43.0028  -21.9508 C.ar    1  UNL1        0.0502
     10 C         -62.2832  -44.2693  -21.4923 C.ar    1  UNL1        0.0443
     11 C         -61.7930  -45.2300  -22.3828 C.ar    1  UNL1        0.1457
     12 F         -61.4668  -46.4568  -21.9024 F       1  UNL1       -0.2040
     13 N         -63.1936  -42.0156  -21.0280 N.pl3   1  UNL1       -0.3040
     14 C         -62.2485  -41.1329  -20.3218 C.3     1  UNL1        0.1122
     15 C         -62.9271  -40.4038  -19.1616 C.3     1  UNL1        0.1122
     16 N         -64.1722  -39.7891  -19.6348 N.pl3   1  UNL1       -0.3040
     17 C         -65.1237  -40.5835  -20.4260 C.3     1  UNL1        0.1122
     18 C         -64.6192  -42.0147  -20.6593 C.3     1  UNL1        0.1122
     19 C         -64.4309  -38.3909  -19.4092 C.ar    1  UNL1        0.0488
     20 C         -65.7248  -37.8716  -19.5726 C.ar    1  UNL1        0.0154
     21 C         -65.9716  -36.5123  -19.3634 C.ar    1  UNL1        0.0135
     22 C         -64.9307  -35.6542  -18.9938 C.ar    1  UNL1        0.0683
     23 CL        -65.2808  -33.9497  -18.7401 Cl      1  UNL1       -0.0814
     24 C         -63.6311  -36.1632  -18.8339 C.ar    1  UNL1        0.0694
     25 CL        -62.2922  -35.1179  -18.3794 Cl      1  UNL1       -0.0813
     26 C         -63.3865  -37.5256  -19.0430 C.ar    1  UNL1        0.0268
     27 C         -62.1550  -47.2709  -28.1314 C.2     1  UNL1        0.2443
     28 O         -62.4956  -48.4787  -28.2603 O.2     1  UNL1       -0.2730
     29 N         -62.8201  -46.2421  -28.8838 N.am    1  UNL1       -0.2825
     30 H         -62.6521  -45.2488  -28.6043 H       1  UNL1        0.1549
     31 C         -63.8696  -46.4958  -29.8307 C.ar    1  UNL1        0.0535
     32 C         -64.3514  -45.4444  -30.6219 C.ar    1  UNL1        0.0353
     33 C         -65.3608  -45.6899  -31.5557 C.ar    1  UNL1        0.1002
     34 N         -65.8604  -46.9453  -31.7055 N.ar    1  UNL1       -0.2422
     35 C         -65.3998  -47.9880  -30.9647 C.ar    1  UNL1        0.1002
     36 C         -64.3922  -47.7856  -30.0183 C.ar    1  UNL1        0.0353
     37 C         -59.9717  -46.1107  -27.7067 C.3     1  UNL1        0.0569
     38 C         -61.5683  -42.0726  -30.1048 C.ar    1  UNL1        0.0503
     39 C         -61.5445  -42.6435  -31.3977 C.ar    1  UNL1        0.0043
     40 C         -61.0662  -43.9540  -31.6033 C.ar    1  UNL1        0.0002
     41 C         -60.6119  -44.7242  -30.5226 C.ar    1  UNL1        0.0012
     42 C         -60.6504  -44.1519  -29.2530 C.ar    1  UNL1        0.0132
     43 C         -60.3517  -44.6898  -28.0171 C.ar    1  UNL1       -0.0017
     44 C         -60.6826  -43.7076  -27.0922 C.ar    1  UNL1        0.0681
     45 N         -61.1472  -42.6045  -27.7193 N.ar    1  UNL1       -0.3522
     46 C         -61.1170  -42.8758  -29.0401 C.ar    1  UNL1        0.0591
     47 H         -61.5159  -41.7518  -27.2467 H       1  UNL1        0.1660
     48 C         -61.1266  -39.5337  -29.7182 C.3     1  UNL1        0.0773
     49 C         -62.0584  -40.6871  -29.9270 C.2     1  UNL1        0.1749
     50 O         -63.2964  -40.4587  -29.9881 O.2     1  UNL1       -0.2913
@<TRIPOS>BOND
     1    48    49    1
     2    49    50    2
     3    49    38    1
     4    38    39   ar
     5    39    40   ar
     6    40    41   ar
     7    41    42   ar
     8    42    43   ar
     9    43    37    1
    10    37     1    1
    11     1     2    1
    12     2     3   am
    13     3     4    2
    14     3     6    1
    15     6     7   ar
    16     7     8   ar
    17     8     9   ar
    18     9    13    1
    19    13    14    1
    20    14    15    1
    21    15    16    1
    22    16    19    1
    23    19    20   ar
    24    20    21   ar
    25    21    22   ar
    26    22    23    1
    27    22    24   ar
    28    24    25    1
    29    24    26   ar
    30    16    17    1
    31    17    18    1
    32     9    10   ar
    33    10    11   ar
    34    11    12    1
    35     1    27    1
    36    27    28    2
    37    27    29   am
    38    29    31    1
    39    31    32   ar
    40    32    33   ar
    41    33    34   ar
    42    34    35   ar
    43    35    36   ar
    44    43    44   ar
    45    44    45   ar
    46    45    46   ar
    47    46    38   ar
    48    46    42   ar
    49    11     6   ar
    50    36    31   ar
    51    18    13    1
    52    26    19   ar
    53     2     5    1
    54    29    30    1
    55    45    47    1
@<TRIPOS>MOLECULE
*****
 50 55 0 0 0
SMALL
GASTEIGER

@<TRIPOS>ATOM
      1 C         -61.2591  -47.2723  -26.3892 C.3     1  UNL1        0.1535
      2 N         -61.9198  -46.3522  -25.4553 N.am    1  UNL1       -0.2945
      3 C         -61.4888  -46.2126  -24.0916 C.2     1  UNL1        0.2483
      4 O         -60.6816  -47.0488  -23.6008 O.2     1  UNL1       -0.2701
      5 H         -62.7622  -45.8168  -25.7649 H       1  UNL1        0.1501
      6 C         -62.0059  -45.1184  -23.2389 C.ar    1  UNL1        0.0808
      7 C         -62.4046  -45.3951  -21.9213 C.ar    1  UNL1        0.0080
      8 C         -62.8984  -44.3791  -21.0995 C.ar    1  UNL1        0.0148
      9 C         -62.9963  -43.0599  -21.5739 C.ar    1  UNL1        0.0502
     10 C         -62.5761  -42.7789  -22.8852 C.ar    1  UNL1        0.0443
     11 C         -62.0833  -43.7943  -23.7111 C.ar    1  UNL1        0.1457
     12 F         -61.6410  -43.4671  -24.9519 F       1  UNL1       -0.2040
     13 N         -63.5003  -42.0072  -20.7232 N.pl3   1  UNL1       -0.3040
     14 C         -62.5476  -41.1394  -20.0086 C.3     1  UNL1        0.1122
     15 C         -63.2448  -40.3249  -18.9184 C.3     1  UNL1        0.1122
     16 N         -64.4322  -39.6733  -19.4819 N.pl3   1  UNL1       -0.3040
     17 C         -65.3825  -40.4567  -20.2854 C.3     1  UNL1        0.1122
     18 C         -64.9405  -41.9200  -20.4290 C.3     1  UNL1        0.1122
     19 C         -64.6303  -38.2553  -19.3319 C.ar    1  UNL1        0.0488
     20 C         -65.8781  -37.6776  -19.6149 C.ar    1  UNL1        0.0154
     21 C         -66.0653  -36.2997  -19.4788 C.ar    1  UNL1        0.0135
     22 C         -65.0098  -35.4810  -19.0638 C.ar    1  UNL1        0.0683
     23 CL        -65.2844  -33.7514  -18.9049 Cl      1  UNL1       -0.0814
     24 C         -63.7556  -36.0489  -18.7843 C.ar    1  UNL1        0.0694
     25 CL        -62.3994  -35.0552  -18.2690 Cl      1  UNL1       -0.0813
     26 C         -63.5707  -37.4298  -18.9204 C.ar    1  UNL1        0.0268
     27 C         -62.0909  -47.4627  -27.6364 C.2     1  UNL1        0.2443
     28 O         -62.2073  -48.6136  -28.1398 O.2     1  UNL1       -0.2730
     29 N         -62.8515  -46.3595  -28.1571 N.am    1  UNL1       -0.2825
     30 H         -62.8813  -45.4796  -27.5932 H       1  UNL1        0.1549
     31 C         -63.7527  -46.4643  -29.2702 C.ar    1  UNL1        0.0535
     32 C         -64.0914  -45.3121  -29.9923 C.ar    1  UNL1        0.0353
     33 C         -64.9548  -45.4117  -31.0857 C.ar    1  UNL1        0.1002
     34 N         -65.4502  -46.6225  -31.4551 N.ar    1  UNL1       -0.2422
     35 C         -65.1249  -47.7596  -30.7847 C.ar    1  UNL1        0.1002
     36 C         -64.2659  -47.7041  -29.6842 C.ar    1  UNL1        0.0353
     37 C         -59.8576  -46.7423  -26.7493 C.3     1  UNL1        0.0569
     38 C         -59.9821  -44.2756  -31.0512 C.ar    1  UNL1        0.0503
     39 C         -60.7237  -43.1714  -30.5727 C.ar    1  UNL1        0.0043
     40 C         -61.2084  -43.1421  -29.2488 C.ar    1  UNL1        0.0002
     41 C         -60.9545  -44.2084  -28.3735 C.ar    1  UNL1        0.0012
     42 C         -60.2141  -45.2854  -28.8562 C.ar    1  UNL1        0.0132
     43 C         -59.7486  -46.4143  -28.2124 C.ar    1  UNL1       -0.0017
     44 C         -58.9709  -47.0844  -29.1483 C.ar    1  UNL1        0.0681
     45 N         -58.9657  -46.4176  -30.3234 N.ar    1  UNL1       -0.3522
     46 C         -59.7342  -45.3238  -30.1445 C.ar    1  UNL1        0.0591
     47 H         -58.4107  -46.6823  -31.1651 H       1  UNL1        0.1660
     48 C         -60.2571  -43.6011  -33.5532 C.3     1  UNL1        0.0773
     49 C         -59.5049  -44.2829  -32.4525 C.2     1  UNL1        0.1749
     50 O         -58.4129  -44.8484  -32.7288 O.2     1  UNL1       -0.2913
@<TRIPOS>BOND
     1    48    49    1
     2    49    50    2
     3    49    38    1
     4    38    39   ar
     5    39    40   ar
     6    40    41   ar
     7    41    42   ar
     8    42    43   ar
     9    43    37    1
    10    37     1    1
    11     1     2    1
    12     2     3   am
    13     3     4    2
    14     3     6    1
    15     6     7   ar
    16     7     8   ar
    17     8     9   ar
    18     9    13    1
    19    13    14    1
    20    14    15    1
    21    15    16    1
    22    16    19    1
    23    19    20   ar
    24    20    21   ar
    25    21    22   ar
    26    22    23    1
    27    22    24   ar
    28    24    25    1
    29    24    26   ar
    30    16    17    1
    31    17    18    1
    32     9    10   ar
    33    10    11   ar
    34    11    12    1
    35     1    27    1
    36    27    28    2
    37    27    29   am
    38    29    31    1
    39    31    32   ar
    40    32    33   ar
    41    33    34   ar
    42    34    35   ar
    43    35    36   ar
    44    43    44   ar
    45    44    45   ar
    46    45    46   ar
    47    46    38   ar
    48    46    42   ar
    49    11     6   ar
    50    36    31   ar
    51    18    13    1
    52    26    19   ar
    53     2     5    1
    54    29    30    1
    55    45    47    1
