@<TRIPOS>MOLECULE
*****
 49 54 0 0 0
SMALL
GASTEIGER

@<TRIPOS>ATOM
      1 O         -29.3191   51.1900  -12.0856 O.2     1  UNL1       -0.2701
      2 C         -28.5283   50.9414  -11.1378 C.2     1  UNL1        0.2483
      3 N         -27.1991   51.4914  -11.1486 N.am    1  UNL1       -0.2945
      4 H         -26.9141   52.0766  -11.9669 H       1  UNL1        0.1501
      5 C         -28.9725   50.0883  -10.0271 C.ar    1  UNL1        0.0808
      6 C         -28.3360   48.8600   -9.8123 C.ar    1  UNL1        0.0080
      7 C         -28.9416   47.8872   -9.0156 C.ar    1  UNL1        0.0148
      8 C         -30.1961   48.1259   -8.4282 C.ar    1  UNL1        0.0502
      9 C         -30.7811   49.3985   -8.5682 C.ar    1  UNL1        0.0443
     10 C         -30.1734   50.3739   -9.3632 C.ar    1  UNL1        0.1457
     11 F         -30.8138   51.5514   -9.5778 F       1  UNL1       -0.2040
     12 N         -30.9328   47.0319   -7.8406 N.pl3   1  UNL1       -0.3040
     13 C         -31.5193   47.2169   -6.4994 C.3     1  UNL1        0.1123
     14 C         -31.3812   45.9425   -5.6565 C.3     1  UNL1        0.1136
     15 N         -30.1391   45.2488   -6.0226 N.pl3   1  UNL1       -0.2897
     16 C         -29.9587   44.8158   -7.4170 C.3     1  UNL1        0.1136
     17 C         -30.8249   45.6619   -8.3653 C.3     1  UNL1        0.1123
     18 C         -29.0307   45.1580   -5.1101 C.ar    1  UNL1        0.1318
     19 C         -29.2218   44.7637   -3.7772 C.ar    1  UNL1        0.0343
     20 C         -28.1328   44.7332   -2.9060 C.ar    1  UNL1        0.0083
     21 C         -26.8592   45.1126   -3.3535 C.ar    1  UNL1        0.0906
     22 C         -26.7081   45.4848   -4.6989 C.ar    1  UNL1        0.1041
     23 N         -27.7851   45.5137   -5.5282 N.ar    1  UNL1       -0.2292
     24 C         -25.6683   45.0405   -2.4326 C.3     1  UNL1        0.4200
     25 F         -24.7467   44.1187   -2.8984 F       1  UNL1       -0.1658
     26 F         -26.0566   44.6602   -1.1597 F       1  UNL1       -0.1658
     27 F         -25.0680   46.2838   -2.3676 F       1  UNL1       -0.1658
     28 C         -26.1781   51.0952  -10.1692 C.3     1  UNL1        0.1535
     29 C         -24.8065   51.2147  -10.7788 C.2     1  UNL1        0.2443
     30 O         -24.5566   50.6317  -11.8690 O.2     1  UNL1       -0.2730
     31 N         -23.7943   51.9901  -10.1164 N.am    1  UNL1       -0.2825
     32 H         -23.9543   52.2709   -9.1225 H       1  UNL1        0.1549
     33 C         -22.5164   52.2858  -10.6969 C.ar    1  UNL1        0.0535
     34 C         -21.4794   51.3403  -10.6953 C.ar    1  UNL1        0.0353
     35 C         -20.2573   51.6606  -11.2919 C.ar    1  UNL1        0.1002
     36 N         -20.0811   52.8747  -11.8774 N.ar    1  UNL1       -0.2422
     37 C         -21.0745   53.8021  -11.9062 C.ar    1  UNL1        0.1002
     38 C         -22.3128   53.5199  -11.3258 C.ar    1  UNL1        0.0353
     39 C         -26.2903   51.9343   -8.8865 C.3     1  UNL1        0.0569
     40 C         -26.5118   51.0518   -7.6879 C.ar    1  UNL1       -0.0017
     41 C         -25.7905   49.9069   -7.3617 C.ar    1  UNL1        0.0681
     42 N         -26.3601   49.2720   -6.3120 N.ar    1  UNL1       -0.3523
     43 C         -27.4442   49.9957   -5.9830 C.ar    1  UNL1        0.0563
     44 C         -28.3846   49.7058   -4.9952 C.ar    1  UNL1        0.0170
     45 C         -29.4864   50.5701   -4.8616 C.ar    1  UNL1        0.0015
     46 C         -29.6225   51.6919   -5.7086 C.ar    1  UNL1        0.0001
     47 C         -28.6570   51.9612   -6.6952 C.ar    1  UNL1        0.0012
     48 C         -27.5735   51.0876   -6.8025 C.ar    1  UNL1        0.0131
     49 H         -26.0416   48.3789   -5.8746 H       1  UNL1        0.1660
@<TRIPOS>BOND
     1     1     2    2
     2     2     3   am
     3     3    28    1
     4    28    39    1
     5    39    40    1
     6    40    41   ar
     7    41    42   ar
     8    42    43   ar
     9    43    44   ar
    10    44    45   ar
    11    45    46   ar
    12    46    47   ar
    13    47    48   ar
    14    28    29    1
    15    29    30    2
    16    29    31   am
    17    31    33    1
    18    33    34   ar
    19    34    35   ar
    20    35    36   ar
    21    36    37   ar
    22    37    38   ar
    23     2     5    1
    24     5     6   ar
    25     6     7   ar
    26     7     8   ar
    27     8    12    1
    28    12    13    1
    29    13    14    1
    30    14    15    1
    31    15    18    1
    32    18    19   ar
    33    19    20   ar
    34    20    21   ar
    35    21    24    1
    36    24    25    1
    37    24    26    1
    38    24    27    1
    39    21    22   ar
    40    22    23   ar
    41    15    16    1
    42    16    17    1
    43     8     9   ar
    44     9    10   ar
    45    10    11    1
    46    48    40   ar
    47    38    33   ar
    48    10     5   ar
    49    48    43   ar
    50    17    12    1
    51    23    18   ar
    52     3     4    1
    53    42    49    1
    54    31    32    1
@<TRIPOS>MOLECULE
*****
 49 54 0 0 0
SMALL
GASTEIGER

@<TRIPOS>ATOM
      1 O         -29.6277   53.0803  -11.4239 O.2     1  UNL1       -0.2701
      2 C         -29.0192   52.0799  -10.9605 C.2     1  UNL1        0.2483
      3 N         -27.6827   52.2261  -10.4486 N.am    1  UNL1       -0.2945
      4 H         -27.2378   53.1712  -10.4941 H       1  UNL1        0.1501
      5 C         -29.6824   50.7690  -10.9482 C.ar    1  UNL1        0.0808
      6 C         -30.0051   50.1781   -9.7207 C.ar    1  UNL1        0.0080
      7 C         -30.3028   48.8161   -9.6557 C.ar    1  UNL1        0.0148
      8 C         -30.2749   48.0237  -10.8162 C.ar    1  UNL1        0.0502
      9 C         -30.0473   48.6454  -12.0585 C.ar    1  UNL1        0.0443
     10 C         -29.7523   50.0097  -12.1243 C.ar    1  UNL1        0.1457
     11 F         -29.4215   50.5623  -13.3192 F       1  UNL1       -0.2040
     12 N         -30.3131   46.5848  -10.7033 N.pl3   1  UNL1       -0.3040
     13 C         -31.5382   45.9511  -10.1792 C.3     1  UNL1        0.1123
     14 C         -31.1985   44.7719   -9.2584 C.3     1  UNL1        0.1136
     15 N         -29.9411   45.0519   -8.5524 N.pl3   1  UNL1       -0.2897
     16 C         -28.7254   45.2900   -9.3460 C.3     1  UNL1        0.1136
     17 C         -29.0859   45.7756  -10.7601 C.3     1  UNL1        0.1123
     18 C         -29.9110   45.2882   -7.1337 C.ar    1  UNL1        0.1318
     19 C         -30.2459   46.5428   -6.6023 C.ar    1  UNL1        0.0343
     20 C         -30.1592   46.7523   -5.2259 C.ar    1  UNL1        0.0083
     21 C         -29.7216   45.7226   -4.3808 C.ar    1  UNL1        0.0906
     22 C         -29.4120   44.4775   -4.9510 C.ar    1  UNL1        0.1041
     23 N         -29.4974   44.2983   -6.2960 N.ar    1  UNL1       -0.2292
     24 C         -29.6671   45.9247   -2.8882 C.3     1  UNL1        0.4200
     25 F         -29.5259   47.2673   -2.5826 F       1  UNL1       -0.1658
     26 F         -28.5958   45.2404   -2.3409 F       1  UNL1       -0.1658
     27 F         -30.8377   45.4550   -2.3229 F       1  UNL1       -0.1658
     28 C         -26.8598   51.0717  -10.0629 C.3     1  UNL1        0.1535
     29 C         -25.4820   51.2008  -10.6563 C.2     1  UNL1        0.2443
     30 O         -25.2303   50.6631  -11.7693 O.2     1  UNL1       -0.2730
     31 N         -24.4659   51.9338   -9.9529 N.am    1  UNL1       -0.2825
     32 H         -24.6306   52.1727   -8.9489 H       1  UNL1        0.1549
     33 C         -23.1798   52.2388  -10.5102 C.ar    1  UNL1        0.0535
     34 C         -22.1595   51.2765  -10.5571 C.ar    1  UNL1        0.0353
     35 C         -20.9288   51.6079  -11.1293 C.ar    1  UNL1        0.1002
     36 N         -20.7282   52.8497  -11.6449 N.ar    1  UNL1       -0.2422
     37 C         -21.7051   53.7947  -11.6261 C.ar    1  UNL1        0.1002
     38 C         -22.9513   53.5024  -11.0680 C.ar    1  UNL1        0.0353
     39 C         -26.7944   50.9281   -8.5342 C.3     1  UNL1        0.0569
     40 C         -26.5232   49.5007   -8.1424 C.ar    1  UNL1       -0.0017
     41 C         -26.3715   48.4218   -9.0087 C.ar    1  UNL1        0.0681
     42 N         -26.3018   47.2635   -8.3140 N.ar    1  UNL1       -0.3523
     43 C         -26.4251   47.5988   -7.0180 C.ar    1  UNL1        0.0563
     44 C         -26.4702   46.7360   -5.9235 C.ar    1  UNL1        0.0170
     45 C         -26.6720   47.2984   -4.6500 C.ar    1  UNL1        0.0015
     46 C         -26.8227   48.6946   -4.5003 C.ar    1  UNL1        0.0001
     47 C         -26.7706   49.5414   -5.6221 C.ar    1  UNL1        0.0012
     48 C         -26.5667   48.9549   -6.8724 C.ar    1  UNL1        0.0131
     49 H         -26.2107   46.3019   -8.7106 H       1  UNL1        0.1660
@<TRIPOS>BOND
     1     1     2    2
     2     2     3   am
     3     3    28    1
     4    28    39    1
     5    39    40    1
     6    40    41   ar
     7    41    42   ar
     8    42    43   ar
     9    43    44   ar
    10    44    45   ar
    11    45    46   ar
    12    46    47   ar
    13    47    48   ar
    14    28    29    1
    15    29    30    2
    16    29    31   am
    17    31    33    1
    18    33    34   ar
    19    34    35   ar
    20    35    36   ar
    21    36    37   ar
    22    37    38   ar
    23     2     5    1
    24     5     6   ar
    25     6     7   ar
    26     7     8   ar
    27     8    12    1
    28    12    13    1
    29    13    14    1
    30    14    15    1
    31    15    18    1
    32    18    19   ar
    33    19    20   ar
    34    20    21   ar
    35    21    24    1
    36    24    25    1
    37    24    26    1
    38    24    27    1
    39    21    22   ar
    40    22    23   ar
    41    15    16    1
    42    16    17    1
    43     8     9   ar
    44     9    10   ar
    45    10    11    1
    46    48    40   ar
    47    38    33   ar
    48    10     5   ar
    49    48    43   ar
    50    17    12    1
    51    23    18   ar
    52     3     4    1
    53    42    49    1
    54    31    32    1
@<TRIPOS>MOLECULE
*****
 49 54 0 0 0
SMALL
GASTEIGER

@<TRIPOS>ATOM
      1 O         -28.4141   51.7579   -6.7056 O.2     1  UNL1       -0.2701
      2 C         -27.7153   51.0041   -7.4329 C.2     1  UNL1        0.2483
      3 N         -28.1853   49.6844   -7.7598 N.am    1  UNL1       -0.2945
      4 H         -29.1011   49.3743   -7.3617 H       1  UNL1        0.1501
      5 C         -26.4221   51.4815   -7.9411 C.ar    1  UNL1        0.0808
      6 C         -26.3985   52.3604   -9.0306 C.ar    1  UNL1        0.0080
      7 C         -25.2183   52.5523   -9.7504 C.ar    1  UNL1        0.0148
      8 C         -24.0463   51.8623   -9.3956 C.ar    1  UNL1        0.0502
      9 C         -24.0542   51.0583   -8.2402 C.ar    1  UNL1        0.0443
     10 C         -25.2350   50.8685   -7.5174 C.ar    1  UNL1        0.1457
     11 F         -25.2454   49.9971   -6.4766 F       1  UNL1       -0.2040
     12 N         -22.9181   51.8543  -10.2966 N.pl3   1  UNL1       -0.3040
     13 C         -21.6343   51.3101   -9.8139 C.3     1  UNL1        0.1123
     14 C         -20.4537   52.1445  -10.3272 C.3     1  UNL1        0.1136
     15 N         -20.8646   53.5503  -10.4422 N.pl3   1  UNL1       -0.2897
     16 C         -21.9921   53.8847  -11.3259 C.3     1  UNL1        0.1136
     17 C         -22.9078   52.6649  -11.5241 C.3     1  UNL1        0.1123
     18 C         -20.3261   54.5650   -9.5762 C.ar    1  UNL1        0.1318
     19 C         -19.5705   54.2234   -8.4445 C.ar    1  UNL1        0.0343
     20 C         -19.1045   55.2302   -7.5989 C.ar    1  UNL1        0.0083
     21 C         -19.4053   56.5733   -7.8668 C.ar    1  UNL1        0.0906
     22 C         -20.1502   56.8733   -9.0186 C.ar    1  UNL1        0.1041
     23 N         -20.5998   55.8750   -9.8246 N.ar    1  UNL1       -0.2292
     24 C         -18.8692   57.6714   -6.9847 C.3     1  UNL1        0.4200
     25 F         -18.3705   58.7118   -7.7496 F       1  UNL1       -0.1658
     26 F         -17.8484   57.1973   -6.1793 F       1  UNL1       -0.1658
     27 F         -19.8892   58.1501   -6.1841 F       1  UNL1       -0.1658
     28 C         -27.3413   48.6997   -8.4502 C.3     1  UNL1        0.1535
     29 C         -27.2632   47.4319   -7.6414 C.2     1  UNL1        0.2443
     30 O         -26.9933   46.3421   -8.2163 O.2     1  UNL1       -0.2730
     31 N         -27.4958   47.4721   -6.2241 N.am    1  UNL1       -0.2825
     32 H         -27.9308   48.3302   -5.8160 H       1  UNL1        0.1549
     33 C         -27.2907   46.3491   -5.3555 C.ar    1  UNL1        0.0535
     34 C         -26.0389   46.0979   -4.7731 C.ar    1  UNL1        0.0353
     35 C         -25.8877   45.0062   -3.9145 C.ar    1  UNL1        0.1002
     36 N         -26.9489   44.2022   -3.6394 N.ar    1  UNL1       -0.2422
     37 C         -28.1754   44.4328   -4.1781 C.ar    1  UNL1        0.1002
     38 C         -28.3702   45.5164   -5.0372 C.ar    1  UNL1        0.0353
     39 C         -27.8658   48.4221   -9.8678 C.3     1  UNL1        0.0569
     40 C         -29.2253   49.0365  -10.0648 C.ar    1  UNL1       -0.0017
     41 C         -30.4499   48.4390   -9.7805 C.ar    1  UNL1        0.0681
     42 N         -31.4673   49.2085  -10.2298 N.ar    1  UNL1       -0.3523
     43 C         -30.8965   50.2783  -10.8105 C.ar    1  UNL1        0.0563
     44 C         -31.5405   51.3246  -11.4700 C.ar    1  UNL1        0.0170
     45 C         -30.7417   52.3167  -12.0671 C.ar    1  UNL1        0.0015
     46 C         -29.3334   52.2419  -11.9929 C.ar    1  UNL1        0.0001
     47 C         -28.7109   51.1759  -11.3189 C.ar    1  UNL1        0.0012
     48 C         -29.5292   50.2079  -10.7341 C.ar    1  UNL1        0.0131
     49 H         -32.4871   48.9921  -10.1710 H       1  UNL1        0.1660
@<TRIPOS>BOND
     1     1     2    2
     2     2     3   am
     3     3    28    1
     4    28    39    1
     5    39    40    1
     6    40    41   ar
     7    41    42   ar
     8    42    43   ar
     9    43    44   ar
    10    44    45   ar
    11    45    46   ar
    12    46    47   ar
    13    47    48   ar
    14    28    29    1
    15    29    30    2
    16    29    31   am
    17    31    33    1
    18    33    34   ar
    19    34    35   ar
    20    35    36   ar
    21    36    37   ar
    22    37    38   ar
    23     2     5    1
    24     5     6   ar
    25     6     7   ar
    26     7     8   ar
    27     8    12    1
    28    12    13    1
    29    13    14    1
    30    14    15    1
    31    15    18    1
    32    18    19   ar
    33    19    20   ar
    34    20    21   ar
    35    21    24    1
    36    24    25    1
    37    24    26    1
    38    24    27    1
    39    21    22   ar
    40    22    23   ar
    41    15    16    1
    42    16    17    1
    43     8     9   ar
    44     9    10   ar
    45    10    11    1
    46    48    40   ar
    47    38    33   ar
    48    10     5   ar
    49    48    43   ar
    50    17    12    1
    51    23    18   ar
    52     3     4    1
    53    42    49    1
    54    31    32    1
@<TRIPOS>MOLECULE
*****
 49 54 0 0 0
SMALL
GASTEIGER

@<TRIPOS>ATOM
      1 O         -27.0596   52.8040   -6.7953 O.2     1  UNL1       -0.2701
      2 C         -26.9081   51.6003   -7.1324 C.2     1  UNL1        0.2483
      3 N         -27.7510   50.5834   -6.5622 N.am    1  UNL1       -0.2945
      4 H         -28.4656   50.8738   -5.8564 H       1  UNL1        0.1501
      5 C         -25.8678   51.2453   -8.1073 C.ar    1  UNL1        0.0808
      6 C         -24.5271   51.2397   -7.7041 C.ar    1  UNL1        0.0080
      7 C         -23.5087   51.2563   -8.6582 C.ar    1  UNL1        0.0148
      8 C         -23.8163   51.2863  -10.0294 C.ar    1  UNL1        0.0502
      9 C         -25.1636   51.1913  -10.4260 C.ar    1  UNL1        0.0443
     10 C         -26.1834   51.1715   -9.4709 C.ar    1  UNL1        0.1457
     11 F         -27.4779   51.1979   -9.8788 F       1  UNL1       -0.2040
     12 N         -22.7792   51.5770  -10.9910 N.pl3   1  UNL1       -0.3040
     13 C         -21.4055   51.1201  -10.7060 C.3     1  UNL1        0.1123
     14 C         -20.3742   52.1719  -11.1349 C.3     1  UNL1        0.1136
     15 N         -20.9455   53.5138  -10.9592 N.pl3   1  UNL1       -0.2897
     16 C         -22.1775   53.8559  -11.6867 C.3     1  UNL1        0.1136
     17 C         -22.9678   52.5860  -12.0447 C.3     1  UNL1        0.1123
     18 C         -20.4464   54.4192   -9.9588 C.ar    1  UNL1        0.1318
     19 C         -19.7968   53.9414   -8.8106 C.ar    1  UNL1        0.0343
     20 C         -19.3684   54.8437   -7.8369 C.ar    1  UNL1        0.0083
     21 C         -19.6024   56.2172   -7.9946 C.ar    1  UNL1        0.0906
     22 C         -20.2410   56.6551   -9.1659 C.ar    1  UNL1        0.1041
     23 N         -20.6560   55.7568  -10.0983 N.ar    1  UNL1       -0.2292
     24 C         -19.1042   57.2041   -6.9703 C.3     1  UNL1        0.4200
     25 F         -18.4253   58.2429   -7.5836 F       1  UNL1       -0.1658
     26 F         -18.2424   56.5899   -6.0782 F       1  UNL1       -0.1658
     27 F         -20.1813   57.7192   -6.2739 F       1  UNL1       -0.1658
     28 C         -27.5071   49.1507   -6.7777 C.3     1  UNL1        0.1535
     29 C         -27.0797   48.5018   -5.4879 C.2     1  UNL1        0.2443
     30 O         -26.7008   49.2220   -4.5241 O.2     1  UNL1       -0.2730
     31 N         -27.1066   47.0706   -5.3638 N.am    1  UNL1       -0.2825
     32 H         -27.2066   46.4983   -6.2325 H       1  UNL1        0.1549
     33 C         -26.8678   46.3777   -4.1307 C.ar    1  UNL1        0.0535
     34 C         -25.5863   45.9182   -3.7899 C.ar    1  UNL1        0.0353
     35 C         -25.3924   45.2680   -2.5686 C.ar    1  UNL1        0.1002
     36 N         -26.4360   45.0931   -1.7153 N.ar    1  UNL1       -0.2422
     37 C         -27.6835   45.5425   -2.0146 C.ar    1  UNL1        0.1002
     38 C         -27.9188   46.2020   -3.2228 C.ar    1  UNL1        0.0353
     39 C         -28.7513   48.4616   -7.3599 C.3     1  UNL1        0.0569
     40 C         -28.3748   47.5485   -8.4953 C.ar    1  UNL1       -0.0017
     41 C         -27.0854   47.1641   -8.8521 C.ar    1  UNL1        0.0681
     42 N         -27.1027   46.4723  -10.0142 N.ar    1  UNL1       -0.3523
     43 C         -28.3888   46.4308  -10.4035 C.ar    1  UNL1        0.0563
     44 C         -28.8983   45.8728  -11.5755 C.ar    1  UNL1        0.0170
     45 C         -30.2781   45.9989  -11.8186 C.ar    1  UNL1        0.0015
     46 C         -31.1085   46.6722  -10.8959 C.ar    1  UNL1        0.0001
     47 C         -30.5674   47.2234   -9.7204 C.ar    1  UNL1        0.0012
     48 C         -29.1956   47.0804   -9.5050 C.ar    1  UNL1        0.0131
     49 H         -26.2771   46.0852  -10.5229 H       1  UNL1        0.1660
@<TRIPOS>BOND
     1     1     2    2
     2     2     3   am
     3     3    28    1
     4    28    39    1
     5    39    40    1
     6    40    41   ar
     7    41    42   ar
     8    42    43   ar
     9    43    44   ar
    10    44    45   ar
    11    45    46   ar
    12    46    47   ar
    13    47    48   ar
    14    28    29    1
    15    29    30    2
    16    29    31   am
    17    31    33    1
    18    33    34   ar
    19    34    35   ar
    20    35    36   ar
    21    36    37   ar
    22    37    38   ar
    23     2     5    1
    24     5     6   ar
    25     6     7   ar
    26     7     8   ar
    27     8    12    1
    28    12    13    1
    29    13    14    1
    30    14    15    1
    31    15    18    1
    32    18    19   ar
    33    19    20   ar
    34    20    21   ar
    35    21    24    1
    36    24    25    1
    37    24    26    1
    38    24    27    1
    39    21    22   ar
    40    22    23   ar
    41    15    16    1
    42    16    17    1
    43     8     9   ar
    44     9    10   ar
    45    10    11    1
    46    48    40   ar
    47    38    33   ar
    48    10     5   ar
    49    48    43   ar
    50    17    12    1
    51    23    18   ar
    52     3     4    1
    53    42    49    1
    54    31    32    1
@<TRIPOS>MOLECULE
*****
 49 54 0 0 0
SMALL
GASTEIGER

@<TRIPOS>ATOM
      1 O         -25.1992   46.3640   -7.6090 O.2     1  UNL1       -0.2701
      2 C         -26.1474   47.1764   -7.4462 C.2     1  UNL1        0.2483
      3 N         -26.3141   47.8414   -6.1815 N.am    1  UNL1       -0.2945
      4 H         -25.6436   47.6135   -5.4123 H       1  UNL1        0.1501
      5 C         -27.0778   47.4368   -8.5531 C.ar    1  UNL1        0.0808
      6 C         -26.8140   48.4934   -9.4330 C.ar    1  UNL1        0.0080
      7 C         -27.8251   48.9856  -10.2594 C.ar    1  UNL1        0.0148
      8 C         -29.1168   48.4333  -10.2126 C.ar    1  UNL1        0.0502
      9 C         -29.3459   47.3082   -9.3983 C.ar    1  UNL1        0.0443
     10 C         -28.3327   46.8130   -8.5731 C.ar    1  UNL1        0.1457
     11 F         -28.6110   45.8018   -7.7112 F       1  UNL1       -0.2040
     12 N         -30.2126   49.1158  -10.8594 N.pl3   1  UNL1       -0.3040
     13 C         -31.1355   48.3288  -11.6997 C.3     1  UNL1        0.1123
     14 C         -31.5383   49.1098  -12.9572 C.3     1  UNL1        0.1136
     15 N         -30.4190   49.9619  -13.3805 N.pl3   1  UNL1       -0.2897
     16 C         -29.9078   50.9719  -12.4409 C.3     1  UNL1        0.1136
     17 C         -30.2369   50.5807  -10.9903 C.3     1  UNL1        0.1123
     18 C         -29.6956   49.7049  -14.5972 C.ar    1  UNL1        0.1318
     19 C         -30.1377   48.7357  -15.5103 C.ar    1  UNL1        0.0343
     20 C         -29.3863   48.4772  -16.6568 C.ar    1  UNL1        0.0083
     21 C         -28.1872   49.1670  -16.8859 C.ar    1  UNL1        0.0906
     22 C         -27.7891   50.1404  -15.9557 C.ar    1  UNL1        0.1041
     23 N         -28.5339   50.3707  -14.8419 N.ar    1  UNL1       -0.2292
     24 C         -27.3912   48.9272  -18.1430 C.3     1  UNL1        0.4200
     25 F         -26.0979   48.5415  -17.8353 F       1  UNL1       -0.1658
     26 F         -27.3296   50.0778  -18.9098 F       1  UNL1       -0.1658
     27 F         -27.9961   47.9267  -18.8803 F       1  UNL1       -0.1658
     28 C         -27.4966   48.6574   -5.8741 C.3     1  UNL1        0.1535
     29 C         -28.2999   48.0072   -4.7790 C.2     1  UNL1        0.2443
     30 O         -29.2216   47.1998   -5.0783 O.2     1  UNL1       -0.2730
     31 N         -28.0118   48.3098   -3.4043 N.am    1  UNL1       -0.2825
     32 H         -27.4071   49.1358   -3.1934 H       1  UNL1        0.1549
     33 C         -28.6167   47.6248   -2.2987 C.ar    1  UNL1        0.0535
     34 C         -28.4090   46.2527   -2.0903 C.ar    1  UNL1        0.0353
     35 C         -28.9983   45.6287   -0.9879 C.ar    1  UNL1        0.1002
     36 N         -29.7572   46.3497   -0.1206 N.ar    1  UNL1       -0.2422
     37 C         -29.9610   47.6828   -0.2911 C.ar    1  UNL1        0.1002
     38 C         -29.3856   48.3456   -1.3772 C.ar    1  UNL1        0.0353
     39 C         -27.0927   50.0898   -5.4904 C.3     1  UNL1        0.0569
     40 C         -27.0817   50.9845   -6.7003 C.ar    1  UNL1       -0.0017
     41 C         -28.1811   51.6295   -7.2596 C.ar    1  UNL1        0.0681
     42 N         -27.8403   52.2171   -8.4291 N.ar    1  UNL1       -0.3523
     43 C         -26.5401   51.9349   -8.6224 C.ar    1  UNL1        0.0563
     44 C         -25.7564   52.2786   -9.7233 C.ar    1  UNL1        0.0170
     45 C         -24.4261   51.8222   -9.7524 C.ar    1  UNL1        0.0015
     46 C         -23.9145   51.0413   -8.6927 C.ar    1  UNL1        0.0001
     47 C         -24.7275   50.7116   -7.5934 C.ar    1  UNL1        0.0012
     48 C         -26.0422   51.1806   -7.5912 C.ar    1  UNL1        0.0131
     49 H         -28.4723   52.7476   -9.0690 H       1  UNL1        0.1660
@<TRIPOS>BOND
     1     1     2    2
     2     2     3   am
     3     3    28    1
     4    28    39    1
     5    39    40    1
     6    40    41   ar
     7    41    42   ar
     8    42    43   ar
     9    43    44   ar
    10    44    45   ar
    11    45    46   ar
    12    46    47   ar
    13    47    48   ar
    14    28    29    1
    15    29    30    2
    16    29    31   am
    17    31    33    1
    18    33    34   ar
    19    34    35   ar
    20    35    36   ar
    21    36    37   ar
    22    37    38   ar
    23     2     5    1
    24     5     6   ar
    25     6     7   ar
    26     7     8   ar
    27     8    12    1
    28    12    13    1
    29    13    14    1
    30    14    15    1
    31    15    18    1
    32    18    19   ar
    33    19    20   ar
    34    20    21   ar
    35    21    24    1
    36    24    25    1
    37    24    26    1
    38    24    27    1
    39    21    22   ar
    40    22    23   ar
    41    15    16    1
    42    16    17    1
    43     8     9   ar
    44     9    10   ar
    45    10    11    1
    46    48    40   ar
    47    38    33   ar
    48    10     5   ar
    49    48    43   ar
    50    17    12    1
    51    23    18   ar
    52     3     4    1
    53    42    49    1
    54    31    32    1
@<TRIPOS>MOLECULE
*****
 49 54 0 0 0
SMALL
GASTEIGER

@<TRIPOS>ATOM
      1 O         -26.9388   52.9576   -6.3059 O.2     1  UNL1       -0.2701
      2 C         -26.8668   51.7582   -6.6827 C.2     1  UNL1        0.2483
      3 N         -27.5988   50.7393   -5.9787 N.am    1  UNL1       -0.2945
      4 H         -28.1648   51.0242   -5.1470 H       1  UNL1        0.1501
      5 C         -26.0322   51.4104   -7.8407 C.ar    1  UNL1        0.0808
      6 C         -24.7411   50.9128   -7.6275 C.ar    1  UNL1        0.0080
      7 C         -23.8121   50.9063   -8.6690 C.ar    1  UNL1        0.0148
      8 C         -24.1586   51.4042   -9.9369 C.ar    1  UNL1        0.0502
      9 C         -25.4866   51.8095  -10.1684 C.ar    1  UNL1        0.0443
     10 C         -26.4179   51.8132   -9.1266 C.ar    1  UNL1        0.1457
     11 F         -27.6588   52.3181   -9.3450 F       1  UNL1       -0.2040
     12 N         -23.1279   51.6459  -10.9188 N.pl3   1  UNL1       -0.3040
     13 C         -21.7711   51.1273  -10.6588 C.3     1  UNL1        0.1123
     14 C         -20.7015   52.1304  -11.1098 C.3     1  UNL1        0.1136
     15 N         -21.2077   53.4973  -10.9264 N.pl3   1  UNL1       -0.2897
     16 C         -22.4365   53.8940  -11.6313 C.3     1  UNL1        0.1136
     17 C         -23.2904   52.6608  -11.9711 C.3     1  UNL1        0.1123
     18 C         -20.6489   54.3805   -9.9379 C.ar    1  UNL1        0.1318
     19 C         -20.0078   53.8754   -8.7967 C.ar    1  UNL1        0.0343
     20 C         -19.5201   54.7590   -7.8338 C.ar    1  UNL1        0.0083
     21 C         -19.6865   56.1419   -7.9952 C.ar    1  UNL1        0.0906
     22 C         -20.3190   56.6066   -9.1594 C.ar    1  UNL1        0.1041
     23 N         -20.7925   55.7265  -10.0812 N.ar    1  UNL1       -0.2292
     24 C         -19.1241   57.1067   -6.9830 C.3     1  UNL1        0.4200
     25 F         -18.4425   58.1332   -7.6139 F       1  UNL1       -0.1658
     26 F         -18.2451   56.4629   -6.1295 F       1  UNL1       -0.1658
     27 F         -20.1601   57.6431   -6.2418 F       1  UNL1       -0.1658
     28 C         -27.4157   49.3083   -6.2566 C.3     1  UNL1        0.1535
     29 C         -27.0765   48.5765   -4.9851 C.2     1  UNL1        0.2443
     30 O         -26.8732   49.2302   -3.9256 O.2     1  UNL1       -0.2730
     31 N         -26.9872   47.1424   -4.9870 N.am    1  UNL1       -0.2825
     32 H         -26.9384   46.6488   -5.9068 H       1  UNL1        0.1549
     33 C         -26.8243   46.3572   -3.7976 C.ar    1  UNL1        0.0535
     34 C         -25.5958   45.7552   -3.4850 C.ar    1  UNL1        0.0353
     35 C         -25.4733   45.0176   -2.3048 C.ar    1  UNL1        0.1002
     36 N         -26.5340   44.8949   -1.4635 N.ar    1  UNL1       -0.2422
     37 C         -27.7299   45.4810   -1.7354 C.ar    1  UNL1        0.1002
     38 C         -27.8928   46.2312   -2.9019 C.ar    1  UNL1        0.0353
     39 C         -28.6656   48.7123   -6.9232 C.3     1  UNL1        0.0569
     40 C         -28.5642   48.7975   -8.4222 C.ar    1  UNL1       -0.0017
     41 C         -27.5033   48.3499   -9.2042 C.ar    1  UNL1        0.0681
     42 N         -27.6703   48.7311  -10.4910 N.ar    1  UNL1       -0.3523
     43 C         -28.8182   49.4300  -10.5261 C.ar    1  UNL1        0.0563
     44 C         -29.3799   50.0758  -11.6269 C.ar    1  UNL1        0.0170
     45 C         -30.5622   50.8111  -11.4259 C.ar    1  UNL1        0.0015
     46 C         -31.1501   50.8840  -10.1439 C.ar    1  UNL1        0.0001
     47 C         -30.5626   50.2204   -9.0518 C.ar    1  UNL1        0.0012
     48 C         -29.3914   49.4967   -9.2822 C.ar    1  UNL1        0.0131
     49 H         -27.0172   48.5511  -11.2855 H       1  UNL1        0.1660
@<TRIPOS>BOND
     1     1     2    2
     2     2     3   am
     3     3    28    1
     4    28    39    1
     5    39    40    1
     6    40    41   ar
     7    41    42   ar
     8    42    43   ar
     9    43    44   ar
    10    44    45   ar
    11    45    46   ar
    12    46    47   ar
    13    47    48   ar
    14    28    29    1
    15    29    30    2
    16    29    31   am
    17    31    33    1
    18    33    34   ar
    19    34    35   ar
    20    35    36   ar
    21    36    37   ar
    22    37    38   ar
    23     2     5    1
    24     5     6   ar
    25     6     7   ar
    26     7     8   ar
    27     8    12    1
    28    12    13    1
    29    13    14    1
    30    14    15    1
    31    15    18    1
    32    18    19   ar
    33    19    20   ar
    34    20    21   ar
    35    21    24    1
    36    24    25    1
    37    24    26    1
    38    24    27    1
    39    21    22   ar
    40    22    23   ar
    41    15    16    1
    42    16    17    1
    43     8     9   ar
    44     9    10   ar
    45    10    11    1
    46    48    40   ar
    47    38    33   ar
    48    10     5   ar
    49    48    43   ar
    50    17    12    1
    51    23    18   ar
    52     3     4    1
    53    42    49    1
    54    31    32    1
@<TRIPOS>MOLECULE
*****
 49 54 0 0 0
SMALL
GASTEIGER

@<TRIPOS>ATOM
      1 O         -27.5705   53.0309   -8.7778 O.2     1  UNL1       -0.2701
      2 C         -27.1726   51.8367   -8.7432 C.2     1  UNL1        0.2483
      3 N         -28.0045   50.8194   -8.1577 N.am    1  UNL1       -0.2945
      4 H         -28.9242   51.1074   -7.7522 H       1  UNL1        0.1501
      5 C         -25.8579   51.4935   -9.3020 C.ar    1  UNL1        0.0808
      6 C         -24.7012   51.9264   -8.6425 C.ar    1  UNL1        0.0080
      7 C         -23.4748   51.9291   -9.3086 C.ar    1  UNL1        0.0148
      8 C         -23.3885   51.5061  -10.6462 C.ar    1  UNL1        0.0502
      9 C         -24.5365   50.9798  -11.2680 C.ar    1  UNL1        0.0443
     10 C         -25.7641   50.9739  -10.6003 C.ar    1  UNL1        0.1457
     11 F         -26.8791   50.5705  -11.2610 F       1  UNL1       -0.2040
     12 N         -22.1879   51.7664  -11.4048 N.pl3   1  UNL1       -0.3040
     13 C         -20.8974   51.2964  -10.8654 C.3     1  UNL1        0.1123
     14 C         -19.7882   52.3269  -11.1128 C.3     1  UNL1        0.1136
     15 N         -20.3603   53.6791  -11.0649 N.pl3   1  UNL1       -0.2897
     16 C         -21.4320   54.0246  -12.0115 C.3     1  UNL1        0.1136
     17 C         -22.1635   52.7591  -12.4900 C.3     1  UNL1        0.1123
     18 C         -20.0388   54.5952  -10.0032 C.ar    1  UNL1        0.1318
     19 C         -19.4711   54.1409   -8.8033 C.ar    1  UNL1        0.0343
     20 C         -19.2169   55.0490   -7.7754 C.ar    1  UNL1        0.0083
     21 C         -19.5442   56.4034   -7.9323 C.ar    1  UNL1        0.0906
     22 C         -20.0956   56.8194   -9.1548 C.ar    1  UNL1        0.1041
     23 N         -20.3409   55.9153  -10.1401 N.ar    1  UNL1       -0.2292
     24 C         -19.2327   57.4000   -6.8455 C.3     1  UNL1        0.4200
     25 F         -18.3551   56.8571   -5.9229 F       1  UNL1       -0.1658
     26 F         -20.3867   57.7731   -6.1786 F       1  UNL1       -0.1658
     27 F         -18.6556   58.5222   -7.4095 F       1  UNL1       -0.1658
     28 C         -27.5244   49.4501   -7.9273 C.3     1  UNL1        0.1535
     29 C         -26.7358   49.3902   -6.6459 C.2     1  UNL1        0.2443
     30 O         -25.5906   48.8615   -6.6435 O.2     1  UNL1       -0.2730
     31 N         -27.2915   49.9346   -5.4378 N.am    1  UNL1       -0.2825
     32 H         -28.3120   50.1590   -5.4173 H       1  UNL1        0.1549
     33 C         -26.5546   50.0611   -4.2136 C.ar    1  UNL1        0.0535
     34 C         -26.4685   48.9975   -3.3022 C.ar    1  UNL1        0.0353
     35 C         -25.7214   49.1548   -2.1321 C.ar    1  UNL1        0.1002
     36 N         -25.0758   50.3257   -1.8868 N.ar    1  UNL1       -0.2422
     37 C         -25.1303   51.3654   -2.7607 C.ar    1  UNL1        0.1002
     38 C         -25.8620   51.2475   -3.9443 C.ar    1  UNL1        0.0353
     39 C         -28.6934   48.4527   -7.9065 C.3     1  UNL1        0.0569
     40 C         -28.5284   47.4130   -8.9818 C.ar    1  UNL1       -0.0017
     41 C         -27.4182   46.5961   -9.1762 C.ar    1  UNL1        0.0681
     42 N         -27.5412   45.8969  -10.3274 N.ar    1  UNL1       -0.3523
     43 C         -28.7107   46.2771  -10.8706 C.ar    1  UNL1        0.0563
     44 C         -29.2456   45.8707  -12.0925 C.ar    1  UNL1        0.0170
     45 C         -30.4613   46.4472  -12.5031 C.ar    1  UNL1        0.0015
     46 C         -31.1080   47.4061  -11.6927 C.ar    1  UNL1        0.0001
     47 C         -30.5464   47.7956  -10.4635 C.ar    1  UNL1        0.0012
     48 C         -29.3409   47.2046  -10.0813 C.ar    1  UNL1        0.0131
     49 H         -26.8472   45.2281  -10.7291 H       1  UNL1        0.1660
@<TRIPOS>BOND
     1     1     2    2
     2     2     3   am
     3     3    28    1
     4    28    39    1
     5    39    40    1
     6    40    41   ar
     7    41    42   ar
     8    42    43   ar
     9    43    44   ar
    10    44    45   ar
    11    45    46   ar
    12    46    47   ar
    13    47    48   ar
    14    28    29    1
    15    29    30    2
    16    29    31   am
    17    31    33    1
    18    33    34   ar
    19    34    35   ar
    20    35    36   ar
    21    36    37   ar
    22    37    38   ar
    23     2     5    1
    24     5     6   ar
    25     6     7   ar
    26     7     8   ar
    27     8    12    1
    28    12    13    1
    29    13    14    1
    30    14    15    1
    31    15    18    1
    32    18    19   ar
    33    19    20   ar
    34    20    21   ar
    35    21    24    1
    36    24    25    1
    37    24    26    1
    38    24    27    1
    39    21    22   ar
    40    22    23   ar
    41    15    16    1
    42    16    17    1
    43     8     9   ar
    44     9    10   ar
    45    10    11    1
    46    48    40   ar
    47    38    33   ar
    48    10     5   ar
    49    48    43   ar
    50    17    12    1
    51    23    18   ar
    52     3     4    1
    53    42    49    1
    54    31    32    1
