@<TRIPOS>MOLECULE
*****
 45 50 0 0 0
SMALL
GASTEIGER

@<TRIPOS>ATOM
      1 C          61.3855   86.4795   11.3552 C.ar    1  UNL1        0.0702
      2 C          60.5025   86.7721   10.3044 C.ar    1  UNL1        0.0191
      3 C          59.5590   85.8266    9.8991 C.ar    1  UNL1        0.0356
      4 C          59.4831   84.5934   10.5655 C.ar    1  UNL1        0.1318
      5 N          60.3453   84.3361   11.5879 N.ar    1  UNL1       -0.2279
      6 C          61.2714   85.2417   11.9995 C.ar    1  UNL1        0.1149
      7 N          58.5426   83.5826   10.1575 N.pl3   1  UNL1       -0.2932
      8 C          58.6650   82.2260   10.7088 C.3     1  UNL1        0.0923
      9 C          57.8687   81.2084    9.8747 C.3     1  UNL1        0.0252
     10 C          57.9549   81.5218    8.3625 C.3     1  UNL1        0.0472
     11 C          57.4240   82.9493    8.0457 C.3     1  UNL1        0.0252
     12 C          57.4176   83.8885    9.2639 C.3     1  UNL1        0.0923
     13 C          59.3840   81.3312    7.8170 C.3     1  UNL1        0.2054
     14 O          59.8785   82.5600    7.2882 O.3     1  UNL1       -0.4755
     15 C          61.0017   83.2416    7.7791 C.ar    1  UNL1        0.1388
     16 C          61.3703   84.4406    7.1605 C.ar    1  UNL1        0.0369
     17 C          62.4816   85.1561    7.6089 C.ar    1  UNL1        0.0033
     18 C          63.2373   84.6797    8.6820 C.ar    1  UNL1        0.0066
     19 C          62.8862   83.4771    9.3205 C.ar    1  UNL1        0.0785
     20 C          61.7642   82.7621    8.8630 C.ar    1  UNL1        0.0433
     21 C          63.6844   82.9677   10.4581 C.2     1  UNL1        0.3381
     22 O          64.9289   82.8023   10.3418 O.2     1  UNL1       -0.2451
     23 O          63.0676   82.6651   11.6695 O.3     1  UNL1       -0.4771
     24 H          63.6049   82.3156   12.4540 H       1  UNL1        0.2954
     25 C          62.2006   88.8590   11.7120 C.2     1  UNL1        0.2839
     26 O          61.1365   89.3557   11.2556 O.2     1  UNL1       -0.2665
     27 N          62.3554   87.4329   11.8191 N.am    1  UNL1       -0.2766
     28 H          63.2518   87.0549   12.1983 H       1  UNL1        0.1553
     29 C          66.0709   90.6721   15.5388 C.3     1  UNL1        0.0311
     30 C          65.8465   91.2982   14.1848 C.ar    1  UNL1       -0.0191
     31 C          66.5859   92.4456   13.7631 C.ar    1  UNL1       -0.0038
     32 C          66.2692   93.0790   12.5367 C.ar    1  UNL1        0.0028
     33 C          65.2589   92.5791   11.7069 C.ar    1  UNL1        0.0375
     34 C          64.5875   91.4340   12.1102 C.ar    1  UNL1        0.1449
     35 O          63.6391   90.8174   11.4514 O.2     1  UNL1       -0.4492
     36 C          63.2664   89.7714   12.1591 C.ar    1  UNL1        0.1946
     37 C          64.0298   89.6843   13.3283 C.ar    1  UNL1        0.0199
     38 C          64.0304   88.5523   14.3147 C.3     1  UNL1        0.0345
     39 C          64.8697   90.7963   13.2958 C.ar    1  UNL1        0.0297
     40 C          67.7021   92.9995   14.5643 C.ar    1  UNL1       -0.0003
     41 C          67.4588   93.9802   15.5413 C.ar    1  UNL1       -0.0000
     42 C          68.5128   94.4896   16.3058 C.ar    1  UNL1       -0.0000
     43 C          69.8136   94.0189   16.1073 C.ar    1  UNL1       -0.0000
     44 C          70.0621   93.0354   15.1460 C.ar    1  UNL1       -0.0000
     45 C          69.0110   92.5233   14.3789 C.ar    1  UNL1       -0.0000
@<TRIPOS>BOND
     1    29    30    1
     2    30    31   ar
     3    31    40    1
     4    40    41   ar
     5    41    42   ar
     6    42    43   ar
     7    43    44   ar
     8    44    45   ar
     9    31    32   ar
    10    32    33   ar
    11    33    34   ar
    12    34    35   ar
    13    35    36   ar
    14    36    25    1
    15    25    26    2
    16    25    27   am
    17    27     1    1
    18     1     2   ar
    19     2     3   ar
    20     3     4   ar
    21     4     7    1
    22     7     8    1
    23     8     9    1
    24     9    10    1
    25    10    13    1
    26    13    14    1
    27    14    15    1
    28    15    16   ar
    29    16    17   ar
    30    17    18   ar
    31    18    19   ar
    32    19    21    1
    33    21    22    2
    34    21    23    1
    35    19    20   ar
    36    10    11    1
    37    11    12    1
    38     4     5   ar
    39     5     6   ar
    40    36    37   ar
    41    37    38    1
    42    37    39   ar
    43    39    30   ar
    44    45    40   ar
    45    39    34   ar
    46     6     1   ar
    47    12     7    1
    48    20    15   ar
    49    27    28    1
    50    23    24    1
@<TRIPOS>MOLECULE
*****
 45 50 0 0 0
SMALL
GASTEIGER

@<TRIPOS>ATOM
      1 C          61.7189   86.6155   10.2527 C.ar    1  UNL1        0.0702
      2 C          60.3701   86.5478   10.6344 C.ar    1  UNL1        0.0191
      3 C          59.5226   85.6073   10.0467 C.ar    1  UNL1        0.0356
      4 C          60.0341   84.7144    9.0918 C.ar    1  UNL1        0.1318
      5 N          61.3485   84.7940    8.7442 N.ar    1  UNL1       -0.2279
      6 C          62.1919   85.7014    9.3033 C.ar    1  UNL1        0.1149
      7 N          59.1846   83.7498    8.4434 N.pl3   1  UNL1       -0.2932
      8 C          57.7737   83.6545    8.8433 C.3     1  UNL1        0.0923
      9 C          57.1436   82.3358    8.3645 C.3     1  UNL1        0.0252
     10 C          58.1393   81.1574    8.4750 C.3     1  UNL1        0.0472
     11 C          59.4292   81.4222    7.6468 C.3     1  UNL1        0.0252
     12 C          59.6694   82.9102    7.3399 C.3     1  UNL1        0.0923
     13 C          58.4829   80.8315    9.9420 C.3     1  UNL1        0.2054
     14 O          59.8948   80.7095   10.1029 O.3     1  UNL1       -0.4755
     15 C          60.6927   81.6080   10.8261 C.ar    1  UNL1        0.1388
     16 C          60.0817   82.3897   11.8117 C.ar    1  UNL1        0.0369
     17 C          60.8306   83.3011   12.5577 C.ar    1  UNL1        0.0033
     18 C          62.2005   83.4407   12.3258 C.ar    1  UNL1        0.0066
     19 C          62.8374   82.6655   11.3408 C.ar    1  UNL1        0.0785
     20 C          62.0756   81.7485   10.5936 C.ar    1  UNL1        0.0433
     21 C          64.2892   82.8101   11.0908 C.2     1  UNL1        0.3381
     22 O          64.7561   82.6528    9.9303 O.2     1  UNL1       -0.2451
     23 O          65.1545   83.1214   12.1366 O.3     1  UNL1       -0.4771
     24 H          66.1497   83.2222   11.9761 H       1  UNL1        0.2954
     25 C          62.3667   88.9599   10.9861 C.2     1  UNL1        0.2839
     26 O          61.2540   89.4398   10.6416 O.2     1  UNL1       -0.2665
     27 N          62.6304   87.5524   10.8494 N.am    1  UNL1       -0.2766
     28 H          63.5647   87.1887   11.1412 H       1  UNL1        0.1553
     29 C          65.8338   90.6954   15.2143 C.3     1  UNL1        0.0311
     30 C          65.7355   91.3557   13.8615 C.ar    1  UNL1       -0.0191
     31 C          66.5019   92.5185   13.5429 C.ar    1  UNL1       -0.0038
     32 C          66.2993   93.1821   12.3084 C.ar    1  UNL1        0.0028
     33 C          65.3783   92.6980   11.3723 C.ar    1  UNL1        0.0375
     34 C          64.6812   91.5384   11.6792 C.ar    1  UNL1        0.1449
     35 O          63.8062   90.9335   10.9161 O.2     1  UNL1       -0.4492
     36 C          63.3763   89.8668   11.5573 C.ar    1  UNL1        0.1946
     37 C          64.0242   89.7536   12.7922 C.ar    1  UNL1        0.0199
     38 C          63.9397   88.5959   13.7446 C.3     1  UNL1        0.0345
     39 C          64.8534   90.8713   12.8697 C.ar    1  UNL1        0.0297
     40 C          67.5307   93.0580   14.4622 C.ar    1  UNL1       -0.0003
     41 C          67.1946   94.0422   15.4077 C.ar    1  UNL1       -0.0000
     42 C          68.1651   94.5380   16.2837 C.ar    1  UNL1       -0.0000
     43 C          69.4735   94.0502   16.2284 C.ar    1  UNL1       -0.0000
     44 C          69.8130   93.0632   15.2991 C.ar    1  UNL1       -0.0000
     45 C          68.8458   92.5646   14.4209 C.ar    1  UNL1       -0.0000
@<TRIPOS>BOND
     1    29    30    1
     2    30    31   ar
     3    31    40    1
     4    40    41   ar
     5    41    42   ar
     6    42    43   ar
     7    43    44   ar
     8    44    45   ar
     9    31    32   ar
    10    32    33   ar
    11    33    34   ar
    12    34    35   ar
    13    35    36   ar
    14    36    25    1
    15    25    26    2
    16    25    27   am
    17    27     1    1
    18     1     2   ar
    19     2     3   ar
    20     3     4   ar
    21     4     7    1
    22     7     8    1
    23     8     9    1
    24     9    10    1
    25    10    13    1
    26    13    14    1
    27    14    15    1
    28    15    16   ar
    29    16    17   ar
    30    17    18   ar
    31    18    19   ar
    32    19    21    1
    33    21    22    2
    34    21    23    1
    35    19    20   ar
    36    10    11    1
    37    11    12    1
    38     4     5   ar
    39     5     6   ar
    40    36    37   ar
    41    37    38    1
    42    37    39   ar
    43    39    30   ar
    44    45    40   ar
    45    39    34   ar
    46     6     1   ar
    47    12     7    1
    48    20    15   ar
    49    27    28    1
    50    23    24    1
@<TRIPOS>MOLECULE
*****
 45 50 0 0 0
SMALL
GASTEIGER

@<TRIPOS>ATOM
      1 C          61.7724   85.9981   11.5136 C.ar    1  UNL1        0.0702
      2 C          61.2725   85.9450   10.2034 C.ar    1  UNL1        0.0191
      3 C          60.3563   84.9554    9.8432 C.ar    1  UNL1        0.0356
      4 C          59.9201   84.0314   10.8058 C.ar    1  UNL1        0.1318
      5 N          60.4132   84.1086   12.0729 N.ar    1  UNL1       -0.2279
      6 C          61.3055   85.0636   12.4459 C.ar    1  UNL1        0.1149
      7 N          58.9981   82.9795   10.4647 N.pl3   1  UNL1       -0.2932
      8 C          58.3838   82.1888   11.5404 C.3     1  UNL1        0.0923
      9 C          57.7754   80.8841   10.9991 C.3     1  UNL1        0.0252
     10 C          58.6542   80.2664    9.8863 C.3     1  UNL1        0.0472
     11 C          58.8491   81.2541    8.7004 C.3     1  UNL1        0.0252
     12 C          58.5955   82.7242    9.0753 C.3     1  UNL1        0.0923
     13 C          60.0130   79.7821   10.4298 C.3     1  UNL1        0.2054
     14 O          61.0599   80.6368    9.9740 O.3     1  UNL1       -0.4755
     15 C          62.0528   81.1862   10.7981 C.ar    1  UNL1        0.1388
     16 C          63.0244   82.0019   10.2092 C.ar    1  UNL1        0.0369
     17 C          64.0358   82.5709   10.9847 C.ar    1  UNL1        0.0033
     18 C          64.0867   82.3299   12.3591 C.ar    1  UNL1        0.0066
     19 C          63.1208   81.5138   12.9741 C.ar    1  UNL1        0.0785
     20 C          62.1040   80.9446   12.1856 C.ar    1  UNL1        0.0433
     21 C          63.1707   81.2550   14.4306 C.2     1  UNL1        0.3381
     22 O          63.8609   80.3036   14.8869 O.2     1  UNL1       -0.2451
     23 O          62.4544   82.0606   15.3123 O.3     1  UNL1       -0.4771
     24 H          62.4816   81.8916   16.3108 H       1  UNL1        0.2954
     25 C          62.3629   88.4068   12.0641 C.2     1  UNL1        0.2839
     26 O          61.1803   88.8013   11.8821 O.2     1  UNL1       -0.2665
     27 N          62.6983   87.0142   11.9320 N.am    1  UNL1       -0.2766
     28 H          63.6888   86.7222   12.0861 H       1  UNL1        0.1553
     29 C          66.1977   90.6194   15.7124 C.3     1  UNL1        0.0311
     30 C          65.9118   91.1645   14.3351 C.ar    1  UNL1       -0.0191
     31 C          66.5764   92.3292   13.8424 C.ar    1  UNL1       -0.0038
     32 C          66.2004   92.8827   12.5943 C.ar    1  UNL1        0.0028
     33 C          65.2043   92.2870   11.8122 C.ar    1  UNL1        0.0375
     34 C          64.6070   91.1275   12.2849 C.ar    1  UNL1        0.1449
     35 O          63.6825   90.4271   11.6777 O.2     1  UNL1       -0.4492
     36 C          63.3837   89.3981   12.4430 C.ar    1  UNL1        0.1946
     37 C          64.1734   89.4115   13.5978 C.ar    1  UNL1        0.0199
     38 C          64.2575   88.3313   14.6372 C.3     1  UNL1        0.0345
     39 C          64.9479   90.5657   13.4932 C.ar    1  UNL1        0.0297
     40 C          67.6747   92.9833   14.5910 C.ar    1  UNL1       -0.0003
     41 C          67.3967   94.0082   15.5119 C.ar    1  UNL1       -0.0000
     42 C          68.4346   94.6128   16.2275 C.ar    1  UNL1       -0.0000
     43 C          69.7541   94.1941   16.0363 C.ar    1  UNL1       -0.0000
     44 C          70.0377   93.1676   15.1312 C.ar    1  UNL1       -0.0000
     45 C          69.0028   92.5604   14.4130 C.ar    1  UNL1       -0.0000
@<TRIPOS>BOND
     1    29    30    1
     2    30    31   ar
     3    31    40    1
     4    40    41   ar
     5    41    42   ar
     6    42    43   ar
     7    43    44   ar
     8    44    45   ar
     9    31    32   ar
    10    32    33   ar
    11    33    34   ar
    12    34    35   ar
    13    35    36   ar
    14    36    25    1
    15    25    26    2
    16    25    27   am
    17    27     1    1
    18     1     2   ar
    19     2     3   ar
    20     3     4   ar
    21     4     7    1
    22     7     8    1
    23     8     9    1
    24     9    10    1
    25    10    13    1
    26    13    14    1
    27    14    15    1
    28    15    16   ar
    29    16    17   ar
    30    17    18   ar
    31    18    19   ar
    32    19    21    1
    33    21    22    2
    34    21    23    1
    35    19    20   ar
    36    10    11    1
    37    11    12    1
    38     4     5   ar
    39     5     6   ar
    40    36    37   ar
    41    37    38    1
    42    37    39   ar
    43    39    30   ar
    44    45    40   ar
    45    39    34   ar
    46     6     1   ar
    47    12     7    1
    48    20    15   ar
    49    27    28    1
    50    23    24    1
@<TRIPOS>MOLECULE
*****
 45 50 0 0 0
SMALL
GASTEIGER

@<TRIPOS>ATOM
      1 C          61.6798   86.6431   10.0336 C.ar    1  UNL1        0.0702
      2 C          60.3165   86.9254    9.8574 C.ar    1  UNL1        0.0191
      3 C          59.4783   85.9833    9.2587 C.ar    1  UNL1        0.0356
      4 C          60.0026   84.7442    8.8585 C.ar    1  UNL1        0.1318
      5 N          61.3271   84.4904    9.0479 N.ar    1  UNL1       -0.2279
      6 C          62.1616   85.3923    9.6288 C.ar    1  UNL1        0.1149
      7 N          59.1755   83.7590    8.2120 N.pl3   1  UNL1       -0.2932
      8 C          57.7181   83.8187    8.3906 C.3     1  UNL1        0.0923
      9 C          57.0499   82.4925    7.9906 C.3     1  UNL1        0.0252
     10 C          57.9078   81.2754    8.4088 C.3     1  UNL1        0.0472
     11 C          59.3250   81.3312    7.7699 C.3     1  UNL1        0.0252
     12 C          59.7413   82.7410    7.3169 C.3     1  UNL1        0.0923
     13 C          57.9988   81.1361    9.9413 C.3     1  UNL1        0.2054
     14 O          59.2729   81.5809   10.4026 O.3     1  UNL1       -0.4755
     15 C          59.4650   82.6030   11.3435 C.ar    1  UNL1        0.1388
     16 C          60.7020   82.6818   11.9913 C.ar    1  UNL1        0.0369
     17 C          60.9432   83.6785   12.9380 C.ar    1  UNL1        0.0033
     18 C          59.9487   84.6086   13.2475 C.ar    1  UNL1        0.0066
     19 C          58.6973   84.5503   12.6091 C.ar    1  UNL1        0.0785
     20 C          58.4622   83.5429   11.6554 C.ar    1  UNL1        0.0433
     21 C          57.6397   85.5335   12.9341 C.2     1  UNL1        0.3381
     22 O          56.9075   86.0081   12.0240 O.2     1  UNL1       -0.2451
     23 O          57.4432   85.9449   14.2500 O.3     1  UNL1       -0.4771
     24 H          56.7224   86.6175   14.4828 H       1  UNL1        0.2954
     25 C          62.3552   88.9962   10.7121 C.2     1  UNL1        0.2839
     26 O          61.2984   89.4987   10.2454 O.2     1  UNL1       -0.2665
     27 N          62.5721   87.5750   10.6664 N.am    1  UNL1       -0.2766
     28 H          63.4608   87.1924   11.0590 H       1  UNL1        0.1553
     29 C          65.6793   90.6663   15.0793 C.3     1  UNL1        0.0311
     30 C          65.6279   91.3456   13.7333 C.ar    1  UNL1       -0.0191
     31 C          66.4063   92.5113   13.4572 C.ar    1  UNL1       -0.0038
     32 C          66.2466   93.1924   12.2259 C.ar    1  UNL1        0.0028
     33 C          65.3571   92.7231   11.2524 C.ar    1  UNL1        0.0375
     34 C          64.6485   91.5606   11.5193 C.ar    1  UNL1        0.1449
     35 O          63.7990   90.9680   10.7186 O.2     1  UNL1       -0.4492
     36 C          63.3461   89.8932   11.3299 C.ar    1  UNL1        0.1946
     37 C          63.9516   89.7617   12.5844 C.ar    1  UNL1        0.0199
     38 C          63.8333   88.5910   13.5170 C.3     1  UNL1        0.0345
     39 C          64.7792   90.8767   12.7055 C.ar    1  UNL1        0.0297
     40 C          67.4041   93.0360   14.4182 C.ar    1  UNL1       -0.0003
     41 C          67.0263   93.9719   15.3965 C.ar    1  UNL1       -0.0000
     42 C          67.9677   94.4535   16.3113 C.ar    1  UNL1       -0.0000
     43 C          69.2883   93.9992   16.2622 C.ar    1  UNL1       -0.0000
     44 C          69.6692   93.0598   15.3002 C.ar    1  UNL1       -0.0000
     45 C          68.7312   92.5757   14.3830 C.ar    1  UNL1       -0.0000
@<TRIPOS>BOND
     1    29    30    1
     2    30    31   ar
     3    31    40    1
     4    40    41   ar
     5    41    42   ar
     6    42    43   ar
     7    43    44   ar
     8    44    45   ar
     9    31    32   ar
    10    32    33   ar
    11    33    34   ar
    12    34    35   ar
    13    35    36   ar
    14    36    25    1
    15    25    26    2
    16    25    27   am
    17    27     1    1
    18     1     2   ar
    19     2     3   ar
    20     3     4   ar
    21     4     7    1
    22     7     8    1
    23     8     9    1
    24     9    10    1
    25    10    13    1
    26    13    14    1
    27    14    15    1
    28    15    16   ar
    29    16    17   ar
    30    17    18   ar
    31    18    19   ar
    32    19    21    1
    33    21    22    2
    34    21    23    1
    35    19    20   ar
    36    10    11    1
    37    11    12    1
    38     4     5   ar
    39     5     6   ar
    40    36    37   ar
    41    37    38    1
    42    37    39   ar
    43    39    30   ar
    44    45    40   ar
    45    39    34   ar
    46     6     1   ar
    47    12     7    1
    48    20    15   ar
    49    27    28    1
    50    23    24    1
@<TRIPOS>MOLECULE
*****
 45 50 0 0 0
SMALL
GASTEIGER

@<TRIPOS>ATOM
      1 C          63.6265   89.1691   13.8176 C.ar    1  UNL1        0.0702
      2 C          63.4650   90.4576   13.2854 C.ar    1  UNL1        0.0191
      3 C          64.2859   91.5010   13.7165 C.ar    1  UNL1        0.0356
      4 C          65.2891   91.2471   14.6651 C.ar    1  UNL1        0.1318
      5 N          65.4318   89.9865   15.1604 N.ar    1  UNL1       -0.2279
      6 C          64.6443   88.9556   14.7551 C.ar    1  UNL1        0.1149
      7 N          66.1361   92.3032   15.1547 N.pl3   1  UNL1       -0.2932
      8 C          66.3974   93.4676   14.2970 C.3     1  UNL1        0.0923
      9 C          67.6138   94.2672   14.7934 C.3     1  UNL1        0.0252
     10 C          68.7286   93.3351   15.3232 C.3     1  UNL1        0.0472
     11 C          68.2155   92.4370   16.4851 C.3     1  UNL1        0.0252
     12 C          66.6851   92.2858   16.5170 C.3     1  UNL1        0.0923
     13 C          69.3466   92.4816   14.1980 C.3     1  UNL1        0.2054
     14 O          68.3190   91.9095   13.3913 O.3     1  UNL1       -0.4755
     15 C          68.1209   92.1992   12.0334 C.ar    1  UNL1        0.1388
     16 C          68.8837   91.5029   11.0904 C.ar    1  UNL1        0.0369
     17 C          68.7268   91.7558    9.7268 C.ar    1  UNL1        0.0033
     18 C          67.8041   92.7089    9.2909 C.ar    1  UNL1        0.0066
     19 C          67.0252   93.4213   10.2198 C.ar    1  UNL1        0.0785
     20 C          67.1888   93.1600   11.5926 C.ar    1  UNL1        0.0433
     21 C          66.0462   94.4330    9.7628 C.2     1  UNL1        0.3381
     22 O          65.1797   94.8879   10.5578 O.2     1  UNL1       -0.2451
     23 O          66.0723   94.8924    8.4484 O.3     1  UNL1       -0.4771
     24 H          65.4065   95.5844    8.1257 H       1  UNL1        0.2954
     25 C          61.6606   87.5834   14.0903 C.2     1  UNL1        0.2839
     26 O          61.2450   88.1799   15.1192 O.2     1  UNL1       -0.2665
     27 N          62.8188   88.0624   13.3844 N.am    1  UNL1       -0.2766
     28 H          63.1383   87.5419   12.5375 H       1  UNL1        0.1553
     29 C          61.3659   82.1616   12.2385 C.3     1  UNL1        0.0311
     30 C          60.1744   83.0657   12.4353 C.ar    1  UNL1       -0.0191
     31 C          58.8490   82.6277   12.1314 C.ar    1  UNL1       -0.0038
     32 C          57.7672   83.5378   12.2151 C.ar    1  UNL1        0.0028
     33 C          57.9683   84.8609   12.6249 C.ar    1  UNL1        0.0375
     34 C          59.2550   85.2525   12.9649 C.ar    1  UNL1        0.1449
     35 O          59.6197   86.4354   13.3910 O.2     1  UNL1       -0.4492
     36 C          60.9173   86.4054   13.6129 C.ar    1  UNL1        0.1946
     37 C          61.4224   85.1286   13.3440 C.ar    1  UNL1        0.0199
     38 C          62.8129   84.6382   13.6273 C.3     1  UNL1        0.0345
     39 C          60.3272   84.3938   12.8927 C.ar    1  UNL1        0.0297
     40 C          58.5532   81.2296   11.7411 C.ar    1  UNL1       -0.0003
     41 C          58.0162   80.9427   10.4742 C.ar    1  UNL1       -0.0000
     42 C          57.7526   79.6204   10.1039 C.ar    1  UNL1       -0.0000
     43 C          58.0302   78.5761   10.9901 C.ar    1  UNL1       -0.0000
     44 C          58.5752   78.8520   12.2470 C.ar    1  UNL1       -0.0000
     45 C          58.8402   80.1729   12.6217 C.ar    1  UNL1       -0.0000
@<TRIPOS>BOND
     1    29    30    1
     2    30    31   ar
     3    31    40    1
     4    40    41   ar
     5    41    42   ar
     6    42    43   ar
     7    43    44   ar
     8    44    45   ar
     9    31    32   ar
    10    32    33   ar
    11    33    34   ar
    12    34    35   ar
    13    35    36   ar
    14    36    25    1
    15    25    26    2
    16    25    27   am
    17    27     1    1
    18     1     2   ar
    19     2     3   ar
    20     3     4   ar
    21     4     7    1
    22     7     8    1
    23     8     9    1
    24     9    10    1
    25    10    13    1
    26    13    14    1
    27    14    15    1
    28    15    16   ar
    29    16    17   ar
    30    17    18   ar
    31    18    19   ar
    32    19    21    1
    33    21    22    2
    34    21    23    1
    35    19    20   ar
    36    10    11    1
    37    11    12    1
    38     4     5   ar
    39     5     6   ar
    40    36    37   ar
    41    37    38    1
    42    37    39   ar
    43    39    30   ar
    44    45    40   ar
    45    39    34   ar
    46     6     1   ar
    47    12     7    1
    48    20    15   ar
    49    27    28    1
    50    23    24    1
