@<TRIPOS>MOLECULE
*****
 47 52 0 0 0
SMALL
GASTEIGER

@<TRIPOS>ATOM
      1 C         -65.2924  -53.8546  -23.2295 C.ar    1  UNL1        0.1318
      2 C         -64.0829  -53.4487  -22.6443 C.ar    1  UNL1        0.0356
      3 C         -63.3507  -52.4114  -23.2240 C.ar    1  UNL1        0.0191
      4 C         -63.8206  -51.7815  -24.3873 C.ar    1  UNL1        0.0702
      5 C         -65.0518  -52.1892  -24.9162 C.ar    1  UNL1        0.1149
      6 N         -65.7472  -53.2021  -24.3351 N.ar    1  UNL1       -0.2279
      7 C         -68.1479  -55.6200  -20.8895 C.3     1  UNL1        0.0472
      8 C         -68.2269  -56.1307  -22.3472 C.3     1  UNL1        0.0252
      9 C         -67.3509  -55.2881  -23.2893 C.3     1  UNL1        0.0923
     10 N         -66.0870  -54.9037  -22.6454 N.pl3   1  UNL1       -0.2932
     11 C         -65.6258  -55.6603  -21.4736 C.3     1  UNL1        0.0923
     12 C         -66.6852  -55.6296  -20.3592 C.3     1  UNL1        0.0252
     13 C         -68.7815  -54.2233  -20.7351 C.3     1  UNL1        0.2054
     14 O         -70.1947  -54.3372  -20.5809 O.3     1  UNL1       -0.4755
     15 C         -72.2541  -53.9894  -16.9083 C.ar    1  UNL1        0.0137
     16 C         -71.4234  -55.0972  -17.1473 C.ar    1  UNL1        0.0015
     17 C         -70.7337  -55.2275  -18.3526 C.ar    1  UNL1        0.0367
     18 C         -70.8690  -54.2534  -19.3540 C.ar    1  UNL1        0.1387
     19 C         -71.7084  -53.1580  -19.1332 C.ar    1  UNL1        0.0431
     20 C         -72.4161  -53.0126  -17.9266 C.ar    1  UNL1        0.0769
     21 C         -73.3200  -51.8461  -17.7745 C.2     1  UNL1        0.3379
     22 O         -74.2982  -51.6936  -18.5525 O.2     1  UNL1       -0.2451
     23 O         -73.0894  -50.8860  -16.7911 O.3     1  UNL1       -0.4771
     24 H         -72.3488  -50.9886  -16.1081 H       1  UNL1        0.2954
     25 C         -72.9551  -53.8922  -15.5758 C.3     1  UNL1        0.1689
     26 C         -72.1806  -53.1778  -13.5280 C.3     1  UNL1        0.1746
     27 O         -72.4321  -52.7931  -14.8609 O.3     1  UNL1       -0.3463
     28 N         -63.1093  -50.6912  -24.9984 N.am    1  UNL1       -0.2766
     29 C         -63.6510  -49.3709  -25.1652 C.2     1  UNL1        0.2839
     30 O         -64.6965  -49.0312  -24.5485 O.2     1  UNL1       -0.2665
     31 H         -62.1100  -50.8481  -25.2614 H       1  UNL1        0.1553
     32 C         -62.9567  -48.3982  -26.0302 C.ar    1  UNL1        0.1946
     33 O         -62.1071  -47.5007  -25.5629 O.2     1  UNL1       -0.4492
     34 C         -61.6656  -46.7977  -26.5770 C.ar    1  UNL1        0.1452
     35 C         -60.7537  -45.7485  -26.5431 C.ar    1  UNL1        0.0375
     36 C         -60.4145  -45.1292  -27.7586 C.ar    1  UNL1        0.0031
     37 C         -60.9885  -45.5650  -28.9834 C.ar    1  UNL1        0.0002
     38 C         -61.9135  -46.6367  -28.9737 C.ar    1  UNL1        0.0028
     39 C         -62.2274  -47.2281  -27.7490 C.ar    1  UNL1        0.0337
     40 C         -63.0717  -48.2711  -27.4191 C.ar    1  UNL1        0.0202
     41 C         -63.9222  -49.0862  -28.3462 C.3     1  UNL1        0.0345
     42 C         -60.6222  -44.9033  -30.2614 C.ar    1  UNL1        0.0000
     43 C         -59.3393  -45.0759  -30.8149 C.ar    1  UNL1        0.0000
     44 C         -58.9976  -44.4523  -32.0189 C.ar    1  UNL1        0.0000
     45 C         -59.9291  -43.6507  -32.6822 C.ar    1  UNL1        0.0000
     46 C         -61.2049  -43.4711  -32.1433 C.ar    1  UNL1        0.0000
     47 C         -61.5525  -44.0931  -30.9402 C.ar    1  UNL1        0.0000
@<TRIPOS>BOND
     1    26    27    1
     2    27    25    1
     3    25    15    1
     4    15    16   ar
     5    16    17   ar
     6    17    18   ar
     7    18    14    1
     8    14    13    1
     9    13     7    1
    10     7     8    1
    11     8     9    1
    12     9    10    1
    13    10     1    1
    14     1     2   ar
    15     2     3   ar
    16     3     4   ar
    17     4    28    1
    18    28    29   am
    19    29    30    2
    20    29    32    1
    21    32    33   ar
    22    33    34   ar
    23    34    35   ar
    24    35    36   ar
    25    36    37   ar
    26    37    42    1
    27    42    43   ar
    28    43    44   ar
    29    44    45   ar
    30    45    46   ar
    31    46    47   ar
    32    37    38   ar
    33    38    39   ar
    34    39    40   ar
    35    40    41    1
    36     4     5   ar
    37     5     6   ar
    38    10    11    1
    39    11    12    1
    40    18    19   ar
    41    19    20   ar
    42    20    21    1
    43    21    22    2
    44    21    23    1
    45    20    15   ar
    46    12     7    1
    47     6     1   ar
    48    40    32   ar
    49    39    34   ar
    50    47    42   ar
    51    28    31    1
    52    23    24    1
@<TRIPOS>MOLECULE
*****
 47 52 0 0 0
SMALL
GASTEIGER

@<TRIPOS>ATOM
      1 C         -65.1005  -54.0299  -23.2241 C.ar    1  UNL1        0.1318
      2 C         -63.9148  -53.5100  -22.6819 C.ar    1  UNL1        0.0356
      3 C         -63.3174  -52.3955  -23.2727 C.ar    1  UNL1        0.0191
      4 C         -63.8980  -51.8016  -24.4045 C.ar    1  UNL1        0.0702
      5 C         -65.1026  -52.3262  -24.8896 C.ar    1  UNL1        0.1149
      6 N         -65.6660  -53.4127  -24.2985 N.ar    1  UNL1       -0.2279
      7 C         -67.9726  -56.1517  -21.2255 C.3     1  UNL1        0.0472
      8 C         -67.5761  -56.8548  -22.5447 C.3     1  UNL1        0.0252
      9 C         -66.7074  -55.9460  -23.4302 C.3     1  UNL1        0.0923
     10 N         -65.7587  -55.1626  -22.6265 N.pl3   1  UNL1       -0.2932
     11 C         -65.4412  -55.6093  -21.2635 C.3     1  UNL1        0.0923
     12 C         -66.7204  -55.7082  -20.4156 C.3     1  UNL1        0.0252
     13 C         -68.9206  -54.9613  -21.4715 C.3     1  UNL1        0.2054
     14 O         -70.2413  -55.4292  -21.7373 O.3     1  UNL1       -0.4755
     15 C         -72.0942  -55.0942  -25.5193 C.ar    1  UNL1        0.0137
     16 C         -72.7210  -55.8167  -24.4901 C.ar    1  UNL1        0.0015
     17 C         -72.1256  -55.9358  -23.2344 C.ar    1  UNL1        0.0367
     18 C         -70.8794  -55.3410  -22.9831 C.ar    1  UNL1        0.1387
     19 C         -70.2390  -54.6370  -24.0067 C.ar    1  UNL1        0.0431
     20 C         -70.8214  -54.5112  -25.2806 C.ar    1  UNL1        0.0769
     21 C         -70.0687  -53.7839  -26.3320 C.2     1  UNL1        0.3379
     22 O         -69.0264  -54.2850  -26.8301 O.2     1  UNL1       -0.2451
     23 O         -70.4818  -52.5261  -26.7670 O.3     1  UNL1       -0.4771
     24 H         -71.3405  -52.1025  -26.4369 H       1  UNL1        0.2954
     25 C         -72.7990  -54.9808  -26.8486 C.3     1  UNL1        0.1689
     26 C         -73.7872  -53.5109  -28.3205 C.3     1  UNL1        0.1746
     27 O         -73.1382  -53.6292  -27.0746 O.3     1  UNL1       -0.3463
     28 N         -63.3280  -50.6362  -25.0249 N.am    1  UNL1       -0.2766
     29 C         -64.0052  -49.3741  -25.1397 C.2     1  UNL1        0.2839
     30 O         -65.0488  -49.1504  -24.4692 O.2     1  UNL1       -0.2665
     31 H         -62.3317  -50.6881  -25.3363 H       1  UNL1        0.1553
     32 C         -63.4525  -48.3233  -26.0154 C.ar    1  UNL1        0.1946
     33 O         -62.8707  -47.2328  -25.5484 O.2     1  UNL1       -0.4492
     34 C         -62.4894  -46.5095  -26.5727 C.ar    1  UNL1        0.1452
     35 C         -61.8352  -45.2830  -26.5428 C.ar    1  UNL1        0.0375
     36 C         -61.5143  -44.6760  -27.7693 C.ar    1  UNL1        0.0031
     37 C         -61.8503  -45.3000  -29.0011 C.ar    1  UNL1        0.0002
     38 C         -62.5170  -46.5488  -28.9871 C.ar    1  UNL1        0.0028
     39 C         -62.8203  -47.1225  -27.7514 C.ar    1  UNL1        0.0337
     40 C         -63.4480  -48.3067  -27.4147 C.ar    1  UNL1        0.0202
     41 C         -64.0010  -49.3442  -28.3448 C.3     1  UNL1        0.0345
     42 C         -61.5059  -44.6492  -30.2907 C.ar    1  UNL1        0.0000
     43 C         -60.2081  -44.7609  -30.8248 C.ar    1  UNL1        0.0000
     44 C         -59.8870  -44.1478  -32.0398 C.ar    1  UNL1        0.0000
     45 C         -60.8542  -43.4173  -32.7336 C.ar    1  UNL1        0.0000
     46 C         -62.1452  -43.2987  -32.2142 C.ar    1  UNL1        0.0000
     47 C         -62.4721  -43.9105  -31.0002 C.ar    1  UNL1        0.0000
@<TRIPOS>BOND
     1    26    27    1
     2    27    25    1
     3    25    15    1
     4    15    16   ar
     5    16    17   ar
     6    17    18   ar
     7    18    14    1
     8    14    13    1
     9    13     7    1
    10     7     8    1
    11     8     9    1
    12     9    10    1
    13    10     1    1
    14     1     2   ar
    15     2     3   ar
    16     3     4   ar
    17     4    28    1
    18    28    29   am
    19    29    30    2
    20    29    32    1
    21    32    33   ar
    22    33    34   ar
    23    34    35   ar
    24    35    36   ar
    25    36    37   ar
    26    37    42    1
    27    42    43   ar
    28    43    44   ar
    29    44    45   ar
    30    45    46   ar
    31    46    47   ar
    32    37    38   ar
    33    38    39   ar
    34    39    40   ar
    35    40    41    1
    36     4     5   ar
    37     5     6   ar
    38    10    11    1
    39    11    12    1
    40    18    19   ar
    41    19    20   ar
    42    20    21    1
    43    21    22    2
    44    21    23    1
    45    20    15   ar
    46    12     7    1
    47     6     1   ar
    48    40    32   ar
    49    39    34   ar
    50    47    42   ar
    51    28    31    1
    52    23    24    1
@<TRIPOS>MOLECULE
*****
 47 52 0 0 0
SMALL
GASTEIGER

@<TRIPOS>ATOM
      1 C         -65.1673  -53.9282  -23.2973 C.ar    1  UNL1        0.1318
      2 C         -64.0321  -53.4172  -22.6490 C.ar    1  UNL1        0.0356
      3 C         -63.3341  -52.3514  -23.2190 C.ar    1  UNL1        0.0191
      4 C         -63.7640  -51.7973  -24.4351 C.ar    1  UNL1        0.0702
      5 C         -64.9246  -52.3096  -25.0287 C.ar    1  UNL1        0.1149
      6 N         -65.5878  -53.3485  -24.4558 N.ar    1  UNL1       -0.2279
      7 C         -68.1937  -55.8196  -21.2949 C.3     1  UNL1        0.0472
      8 C         -67.9142  -56.4997  -22.6555 C.3     1  UNL1        0.0252
      9 C         -66.9781  -55.6495  -23.5304 C.3     1  UNL1        0.0923
     10 N         -65.9270  -55.0101  -22.7266 N.pl3   1  UNL1       -0.2932
     11 C         -65.6205  -55.5505  -21.3953 C.3     1  UNL1        0.0923
     12 C         -66.8778  -55.5506  -20.5096 C.3     1  UNL1        0.0252
     13 C         -69.0135  -54.5244  -21.4578 C.3     1  UNL1        0.2054
     14 O         -69.0711  -53.8181  -20.2201 O.3     1  UNL1       -0.4755
     15 C         -72.0266  -54.4200  -17.2617 C.ar    1  UNL1        0.0137
     16 C         -72.2822  -53.5670  -18.3486 C.ar    1  UNL1        0.0015
     17 C         -71.3195  -53.3583  -19.3361 C.ar    1  UNL1        0.0367
     18 C         -70.0705  -53.9929  -19.2518 C.ar    1  UNL1        0.1387
     19 C         -69.7998  -54.8277  -18.1640 C.ar    1  UNL1        0.0431
     20 C         -70.7559  -55.0456  -17.1560 C.ar    1  UNL1        0.0769
     21 C         -70.3880  -55.9123  -16.0096 C.2     1  UNL1        0.3379
     22 O         -70.7960  -57.1023  -15.9550 O.2     1  UNL1       -0.2451
     23 O         -69.6115  -55.4212  -14.9619 O.3     1  UNL1       -0.4771
     24 H         -69.2153  -54.4893  -14.9822 H       1  UNL1        0.2954
     25 C         -73.1161  -54.6244  -16.2381 C.3     1  UNL1        0.1689
     26 C         -74.4228  -56.5035  -15.9835 C.3     1  UNL1        0.1746
     27 O         -74.1475  -55.3977  -16.8135 O.3     1  UNL1       -0.3463
     28 N         -63.0883  -50.6813  -25.0400 N.am    1  UNL1       -0.2766
     29 C         -63.6797  -49.3840  -25.2184 C.2     1  UNL1        0.2839
     30 O         -64.7463  -49.0845  -24.6171 O.2     1  UNL1       -0.2665
     31 H         -62.0800  -50.7989  -25.2887 H       1  UNL1        0.1553
     32 C         -63.0128  -48.3867  -26.0769 C.ar    1  UNL1        0.1946
     33 O         -62.2145  -47.4482  -25.5998 O.2     1  UNL1       -0.4492
     34 C         -61.7847  -46.7329  -26.6103 C.ar    1  UNL1        0.1452
     35 C         -60.9223  -45.6431  -26.5664 C.ar    1  UNL1        0.0375
     36 C         -60.5869  -45.0175  -27.7797 C.ar    1  UNL1        0.0031
     37 C         -61.1154  -45.4874  -29.0123 C.ar    1  UNL1        0.0002
     38 C         -61.9908  -46.6000  -29.0127 C.ar    1  UNL1        0.0028
     39 C         -62.3025  -47.1965  -27.7899 C.ar    1  UNL1        0.0337
     40 C         -63.1051  -48.2746  -27.4688 C.ar    1  UNL1        0.0202
     41 C         -63.8987  -49.1340  -28.4063 C.3     1  UNL1        0.0345
     42 C         -60.7536  -44.8186  -30.2878 C.ar    1  UNL1        0.0000
     43 C         -59.4783  -45.0018  -30.8555 C.ar    1  UNL1        0.0000
     44 C         -59.1408  -44.3714  -32.0572 C.ar    1  UNL1        0.0000
     45 C         -60.0689  -43.5525  -32.7041 C.ar    1  UNL1        0.0000
     46 C         -61.3371  -43.3624  -32.1509 C.ar    1  UNL1        0.0000
     47 C         -61.6804  -43.9910  -30.9501 C.ar    1  UNL1        0.0000
@<TRIPOS>BOND
     1    26    27    1
     2    27    25    1
     3    25    15    1
     4    15    16   ar
     5    16    17   ar
     6    17    18   ar
     7    18    14    1
     8    14    13    1
     9    13     7    1
    10     7     8    1
    11     8     9    1
    12     9    10    1
    13    10     1    1
    14     1     2   ar
    15     2     3   ar
    16     3     4   ar
    17     4    28    1
    18    28    29   am
    19    29    30    2
    20    29    32    1
    21    32    33   ar
    22    33    34   ar
    23    34    35   ar
    24    35    36   ar
    25    36    37   ar
    26    37    42    1
    27    42    43   ar
    28    43    44   ar
    29    44    45   ar
    30    45    46   ar
    31    46    47   ar
    32    37    38   ar
    33    38    39   ar
    34    39    40   ar
    35    40    41    1
    36     4     5   ar
    37     5     6   ar
    38    10    11    1
    39    11    12    1
    40    18    19   ar
    41    19    20   ar
    42    20    21    1
    43    21    22    2
    44    21    23    1
    45    20    15   ar
    46    12     7    1
    47     6     1   ar
    48    40    32   ar
    49    39    34   ar
    50    47    42   ar
    51    28    31    1
    52    23    24    1
@<TRIPOS>MOLECULE
*****
 47 52 0 0 0
SMALL
GASTEIGER

@<TRIPOS>ATOM
      1 C         -60.7530  -47.0057  -22.5830 C.ar    1  UNL1        0.1318
      2 C         -59.8686  -46.0516  -23.1101 C.ar    1  UNL1        0.0356
      3 C         -60.1475  -44.6929  -22.9540 C.ar    1  UNL1        0.0191
      4 C         -61.3076  -44.2848  -22.2772 C.ar    1  UNL1        0.0702
      5 C         -62.1426  -45.2679  -21.7313 C.ar    1  UNL1        0.1149
      6 N         -61.8514  -46.5852  -21.8962 N.ar    1  UNL1       -0.2279
      7 C         -61.4265  -50.9566  -23.4089 C.3     1  UNL1        0.0472
      8 C         -60.1019  -50.4718  -24.0431 C.3     1  UNL1        0.0252
      9 C         -59.9693  -48.9414  -23.9741 C.3     1  UNL1        0.0923
     10 N         -60.4852  -48.4154  -22.7025 N.pl3   1  UNL1       -0.2932
     11 C         -60.6297  -49.3281  -21.5605 C.3     1  UNL1        0.0923
     12 C         -61.5470  -50.5077  -21.9241 C.3     1  UNL1        0.0252
     13 C         -62.6535  -50.5025  -24.2239 C.3     1  UNL1        0.2054
     14 O         -62.7788  -49.0826  -24.1771 O.3     1  UNL1       -0.4755
     15 C         -63.4703  -46.7127  -27.6056 C.ar    1  UNL1        0.0137
     16 C         -63.1001  -46.1059  -26.3936 C.ar    1  UNL1        0.0015
     17 C         -62.8652  -46.8724  -25.2522 C.ar    1  UNL1        0.0367
     18 C         -63.0066  -48.2681  -25.2959 C.ar    1  UNL1        0.1387
     19 C         -63.3937  -48.8790  -26.4918 C.ar    1  UNL1        0.0431
     20 C         -63.6403  -48.1221  -27.6511 C.ar    1  UNL1        0.0769
     21 C         -64.0862  -48.8312  -28.8755 C.2     1  UNL1        0.3379
     22 O         -63.9030  -50.0712  -28.9948 O.2     1  UNL1       -0.2451
     23 O         -64.6876  -48.1384  -29.9245 O.3     1  UNL1       -0.4771
     24 H         -64.9047  -47.1515  -29.8574 H       1  UNL1        0.2954
     25 C         -63.6875  -45.8328  -28.8118 C.3     1  UNL1        0.1689
     26 C         -65.2468  -44.5720  -29.9443 C.3     1  UNL1        0.1746
     27 O         -65.0518  -45.4771  -28.8811 O.3     1  UNL1       -0.3463
     28 N         -61.6156  -42.8951  -22.0720 N.am    1  UNL1       -0.2766
     29 C         -61.2400  -42.1530  -20.9004 C.2     1  UNL1        0.2839
     30 O         -60.3914  -42.6235  -20.0959 O.2     1  UNL1       -0.2665
     31 H         -62.0669  -42.3750  -22.8582 H       1  UNL1        0.1553
     32 C         -61.8209  -40.8180  -20.6615 C.ar    1  UNL1        0.1946
     33 O         -61.3002  -39.7097  -21.1577 O.2     1  UNL1       -0.4492
     34 C         -62.0458  -38.7048  -20.7680 C.ar    1  UNL1        0.1452
     35 C         -61.8659  -37.3574  -21.0604 C.ar    1  UNL1        0.0375
     36 C         -62.7926  -36.4389  -20.5375 C.ar    1  UNL1        0.0031
     37 C         -63.8795  -36.8780  -19.7341 C.ar    1  UNL1        0.0002
     38 C         -64.0261  -38.2591  -19.4597 C.ar    1  UNL1        0.0028
     39 C         -63.0875  -39.1427  -19.9949 C.ar    1  UNL1        0.0337
     40 C         -62.9634  -40.5165  -19.9118 C.ar    1  UNL1        0.0202
     41 C         -63.8571  -41.4719  -19.1797 C.3     1  UNL1        0.0345
     42 C         -64.8525  -35.8984  -19.1874 C.ar    1  UNL1        0.0000
     43 C         -64.5002  -35.0654  -18.1084 C.ar    1  UNL1        0.0000
     44 C         -65.4181  -34.1433  -17.5963 C.ar    1  UNL1        0.0000
     45 C         -66.6951  -34.0424  -18.1528 C.ar    1  UNL1        0.0000
     46 C         -67.0570  -34.8634  -19.2231 C.ar    1  UNL1        0.0000
     47 C         -66.1428  -35.7866  -19.7398 C.ar    1  UNL1        0.0000
@<TRIPOS>BOND
     1    26    27    1
     2    27    25    1
     3    25    15    1
     4    15    16   ar
     5    16    17   ar
     6    17    18   ar
     7    18    14    1
     8    14    13    1
     9    13     7    1
    10     7     8    1
    11     8     9    1
    12     9    10    1
    13    10     1    1
    14     1     2   ar
    15     2     3   ar
    16     3     4   ar
    17     4    28    1
    18    28    29   am
    19    29    30    2
    20    29    32    1
    21    32    33   ar
    22    33    34   ar
    23    34    35   ar
    24    35    36   ar
    25    36    37   ar
    26    37    42    1
    27    42    43   ar
    28    43    44   ar
    29    44    45   ar
    30    45    46   ar
    31    46    47   ar
    32    37    38   ar
    33    38    39   ar
    34    39    40   ar
    35    40    41    1
    36     4     5   ar
    37     5     6   ar
    38    10    11    1
    39    11    12    1
    40    18    19   ar
    41    19    20   ar
    42    20    21    1
    43    21    22    2
    44    21    23    1
    45    20    15   ar
    46    12     7    1
    47     6     1   ar
    48    40    32   ar
    49    39    34   ar
    50    47    42   ar
    51    28    31    1
    52    23    24    1
