@<TRIPOS>MOLECULE
*****
 53 58 0 0 0
SMALL
GASTEIGER

@<TRIPOS>ATOM
      1 C         -63.6877  -52.5529  -23.3416 C.ar    1  UNL1        0.0811
      2 C         -64.5217  -51.9956  -24.3216 C.ar    1  UNL1        0.0080
      3 C         -64.2040  -50.7728  -24.9102 C.ar    1  UNL1        0.0150
      4 C         -63.0531  -50.0734  -24.5244 C.ar    1  UNL1        0.0564
      5 C         -62.2110  -50.6097  -23.5242 C.ar    1  UNL1        0.1162
      6 C         -62.5375  -51.8477  -22.9355 C.ar    1  UNL1        0.1518
      7 F         -61.7355  -52.3625  -21.9688 F       1  UNL1       -0.2038
      8 N         -62.7751  -48.7923  -25.1147 N.pl3   1  UNL1       -0.3038
      9 C         -63.3036  -47.5847  -24.4740 C.3     1  UNL1        0.1123
     10 C         -62.3592  -46.4023  -24.7032 C.3     1  UNL1        0.1136
     11 N         -61.9610  -46.3294  -26.1163 N.pl3   1  UNL1       -0.2897
     12 C         -61.4385  -47.5481  -26.7482 C.3     1  UNL1        0.1136
     13 C         -62.4021  -48.7132  -26.5291 C.3     1  UNL1        0.1123
     14 C         -61.8066  -45.0601  -26.7833 C.ar    1  UNL1        0.1318
     15 C         -60.6797  -44.7834  -27.5745 C.ar    1  UNL1        0.0343
     16 C         -60.5682  -43.5438  -28.2062 C.ar    1  UNL1        0.0083
     17 C         -61.5674  -42.5734  -28.0403 C.ar    1  UNL1        0.0906
     18 C         -62.6934  -42.9016  -27.2698 C.ar    1  UNL1        0.1041
     19 N         -62.7808  -44.1159  -26.6654 N.ar    1  UNL1       -0.2292
     20 C         -61.4835  -41.2505  -28.7580 C.3     1  UNL1        0.4200
     21 F         -61.5385  -41.4347  -30.1288 F       1  UNL1       -0.1658
     22 F         -60.2909  -40.6314  -28.4339 F       1  UNL1       -0.1658
     23 F         -62.5339  -40.4279  -28.3891 F       1  UNL1       -0.1658
     24 O         -63.1117  -54.6692  -22.4461 O.2     1  UNL1       -0.2701
     25 C         -64.0357  -53.8668  -22.7534 C.2     1  UNL1        0.2483
     26 N         -65.4041  -54.2161  -22.4881 N.am    1  UNL1       -0.2945
     27 H         -66.1082  -53.4453  -22.4793 H       1  UNL1        0.1501
     28 C         -65.7816  -55.5124  -21.9121 C.3     1  UNL1        0.1535
     29 C         -66.7284  -55.3216  -20.7546 C.2     1  UNL1        0.2443
     30 O         -66.4409  -55.8035  -19.6243 O.2     1  UNL1       -0.2730
     31 N         -67.9056  -54.5164  -20.9233 N.am    1  UNL1       -0.2825
     32 H         -67.9623  -53.9097  -21.7726 H       1  UNL1        0.1549
     33 C         -68.9485  -54.4005  -19.9410 C.ar    1  UNL1        0.0535
     34 C         -70.0963  -53.6536  -20.2395 C.ar    1  UNL1        0.0353
     35 C         -71.1221  -53.5554  -19.2965 C.ar    1  UNL1        0.1002
     36 N         -71.0140  -54.1954  -18.1022 N.ar    1  UNL1       -0.2422
     37 C         -69.9224  -54.9432  -17.7916 C.ar    1  UNL1        0.1002
     38 C         -68.8730  -55.0667  -18.7059 C.ar    1  UNL1        0.0353
     39 C         -66.3719  -56.4520  -22.9842 C.3     1  UNL1        0.0569
     40 C         -67.3464  -55.7732  -23.9092 C.ar    1  UNL1       -0.0017
     41 C         -67.0316  -55.0182  -25.0361 C.ar    1  UNL1        0.0681
     42 N         -68.1589  -54.6022  -25.6567 N.ar    1  UNL1       -0.3523
     43 C         -69.1825  -55.0874  -24.9330 C.ar    1  UNL1        0.0563
     44 C         -70.5446  -54.9318  -25.1866 C.ar    1  UNL1        0.0170
     45 C         -71.4524  -55.5369  -24.2983 C.ar    1  UNL1        0.0015
     46 C         -70.9839  -56.2731  -23.1877 C.ar    1  UNL1        0.0001
     47 C         -69.6037  -56.4111  -22.9554 C.ar    1  UNL1        0.0012
     48 C         -68.7272  -55.8053  -23.8565 C.ar    1  UNL1        0.0131
     49 H         -68.2175  -54.0271  -26.5263 H       1  UNL1        0.1660
     50 C         -60.9713  -49.9063  -23.1208 C.2     1  UNL1        0.3415
     51 O         -59.9086  -50.0822  -23.7734 O.2     1  UNL1       -0.2450
     52 O         -60.9561  -49.0428  -22.0278 O.3     1  UNL1       -0.4770
     53 H         -61.8027  -48.8032  -21.5266 H       1  UNL1        0.2954
@<TRIPOS>BOND
     1    24    25    2
     2    25    26   am
     3    26    28    1
     4    28    39    1
     5    39    40    1
     6    40    41   ar
     7    41    42   ar
     8    42    43   ar
     9    43    44   ar
    10    44    45   ar
    11    45    46   ar
    12    46    47   ar
    13    47    48   ar
    14    28    29    1
    15    29    30    2
    16    29    31   am
    17    31    33    1
    18    33    34   ar
    19    34    35   ar
    20    35    36   ar
    21    36    37   ar
    22    37    38   ar
    23    25     1    1
    24     1     2   ar
    25     2     3   ar
    26     3     4   ar
    27     4     8    1
    28     8     9    1
    29     9    10    1
    30    10    11    1
    31    11    14    1
    32    14    15   ar
    33    15    16   ar
    34    16    17   ar
    35    17    20    1
    36    20    21    1
    37    20    22    1
    38    20    23    1
    39    17    18   ar
    40    18    19   ar
    41    11    12    1
    42    12    13    1
    43     4     5   ar
    44     5    50    1
    45    50    51    2
    46    50    52    1
    47     5     6   ar
    48     6     7    1
    49    48    40   ar
    50    38    33   ar
    51     6     1   ar
    52    48    43   ar
    53    13     8    1
    54    19    14   ar
    55    26    27    1
    56    42    49    1
    57    31    32    1
    58    52    53    1
@<TRIPOS>MOLECULE
*****
 53 58 0 0 0
SMALL
GASTEIGER

@<TRIPOS>ATOM
      1 C         -62.0364  -45.1154  -24.6971 C.ar    1  UNL1        0.0811
      2 C         -62.3260  -43.8851  -25.3045 C.ar    1  UNL1        0.0080
      3 C         -62.5969  -42.7588  -24.5295 C.ar    1  UNL1        0.0150
      4 C         -62.5969  -42.8390  -23.1308 C.ar    1  UNL1        0.0564
      5 C         -62.3269  -44.0749  -22.5010 C.ar    1  UNL1        0.1162
      6 C         -62.0515  -45.2087  -23.2913 C.ar    1  UNL1        0.1518
      7 F         -61.7993  -46.3995  -22.6904 F       1  UNL1       -0.2038
      8 N         -62.9258  -41.6726  -22.3574 N.pl3   1  UNL1       -0.3038
      9 C         -64.3018  -41.1685  -22.3814 C.3     1  UNL1        0.1123
     10 C         -64.6543  -40.5159  -21.0426 C.3     1  UNL1        0.1136
     11 N         -63.5814  -39.6058  -20.6165 N.pl3   1  UNL1       -0.2897
     12 C         -62.2062  -40.1215  -20.6026 C.3     1  UNL1        0.1136
     13 C         -61.8625  -40.7500  -21.9520 C.3     1  UNL1        0.1123
     14 C         -63.8796  -38.3570  -19.9597 C.ar    1  UNL1        0.1318
     15 C         -65.0160  -38.2126  -19.1471 C.ar    1  UNL1        0.0343
     16 C         -65.2686  -36.9884  -18.5262 C.ar    1  UNL1        0.0083
     17 C         -64.4020  -35.9033  -18.7240 C.ar    1  UNL1        0.0906
     18 C         -63.2596  -36.0987  -19.5152 C.ar    1  UNL1        0.1041
     19 N         -63.0335  -37.3004  -20.1086 N.ar    1  UNL1       -0.2292
     20 C         -64.6359  -34.5918  -18.0184 C.3     1  UNL1        0.4200
     21 F         -63.5160  -33.7833  -18.1073 F       1  UNL1       -0.1658
     22 F         -64.9119  -34.8346  -16.6859 F       1  UNL1       -0.1658
     23 F         -65.7035  -33.9169  -18.5848 F       1  UNL1       -0.1658
     24 O         -60.5261  -46.6630  -25.6648 O.2     1  UNL1       -0.2701
     25 C         -61.7251  -46.2888  -25.5455 C.2     1  UNL1        0.2483
     26 N         -62.7732  -47.0287  -26.1928 N.am    1  UNL1       -0.2945
     27 H         -63.7500  -46.8826  -25.8545 H       1  UNL1        0.1501
     28 C         -62.4967  -48.1917  -27.0447 C.3     1  UNL1        0.1535
     29 C         -62.4565  -49.4536  -26.2210 C.2     1  UNL1        0.2443
     30 O         -63.2064  -50.4227  -26.5226 O.2     1  UNL1       -0.2730
     31 N         -61.5014  -49.5779  -25.1556 N.am    1  UNL1       -0.2825
     32 H         -60.7197  -48.8848  -25.1197 H       1  UNL1        0.1549
     33 C         -61.4837  -50.6636  -24.2137 C.ar    1  UNL1        0.0535
     34 C         -60.2553  -51.1969  -23.8002 C.ar    1  UNL1        0.0353
     35 C         -60.2317  -52.2378  -22.8689 C.ar    1  UNL1        0.1002
     36 N         -61.3942  -52.7189  -22.3544 N.ar    1  UNL1       -0.2422
     37 C         -62.5997  -52.2090  -22.7209 C.ar    1  UNL1        0.1002
     38 C         -62.6682  -51.1681  -23.6505 C.ar    1  UNL1        0.0353
     39 C         -63.5146  -48.2954  -28.1997 C.3     1  UNL1        0.0569
     40 C         -63.7643  -46.9873  -28.9015 C.ar    1  UNL1       -0.0017
     41 C         -63.3217  -45.7310  -28.4958 C.ar    1  UNL1        0.0681
     42 N         -63.6881  -44.7879  -29.3932 N.ar    1  UNL1       -0.3523
     43 C         -64.3575  -45.4364  -30.3618 C.ar    1  UNL1        0.0563
     44 C         -64.9216  -44.8864  -31.5122 C.ar    1  UNL1        0.0170
     45 C         -65.5741  -45.7560  -32.4052 C.ar    1  UNL1        0.0015
     46 C         -65.6498  -47.1394  -32.1302 C.ar    1  UNL1        0.0001
     47 C         -65.0736  -47.6657  -30.9601 C.ar    1  UNL1        0.0012
     48 C         -64.4277  -46.7803  -30.0964 C.ar    1  UNL1        0.0131
     49 H         -63.4834  -43.7652  -29.3435 H       1  UNL1        0.1660
     50 C         -62.2890  -44.1798  -21.0239 C.2     1  UNL1        0.3415
     51 O         -61.3022  -43.7251  -20.3870 O.2     1  UNL1       -0.2450
     52 O         -63.3330  -44.7719  -20.3167 O.3     1  UNL1       -0.4770
     53 H         -64.1838  -45.0730  -20.7758 H       1  UNL1        0.2954
@<TRIPOS>BOND
     1    24    25    2
     2    25    26   am
     3    26    28    1
     4    28    39    1
     5    39    40    1
     6    40    41   ar
     7    41    42   ar
     8    42    43   ar
     9    43    44   ar
    10    44    45   ar
    11    45    46   ar
    12    46    47   ar
    13    47    48   ar
    14    28    29    1
    15    29    30    2
    16    29    31   am
    17    31    33    1
    18    33    34   ar
    19    34    35   ar
    20    35    36   ar
    21    36    37   ar
    22    37    38   ar
    23    25     1    1
    24     1     2   ar
    25     2     3   ar
    26     3     4   ar
    27     4     8    1
    28     8     9    1
    29     9    10    1
    30    10    11    1
    31    11    14    1
    32    14    15   ar
    33    15    16   ar
    34    16    17   ar
    35    17    20    1
    36    20    21    1
    37    20    22    1
    38    20    23    1
    39    17    18   ar
    40    18    19   ar
    41    11    12    1
    42    12    13    1
    43     4     5   ar
    44     5    50    1
    45    50    51    2
    46    50    52    1
    47     5     6   ar
    48     6     7    1
    49    48    40   ar
    50    38    33   ar
    51     6     1   ar
    52    48    43   ar
    53    13     8    1
    54    19    14   ar
    55    26    27    1
    56    42    49    1
    57    31    32    1
    58    52    53    1
@<TRIPOS>MOLECULE
*****
 53 58 0 0 0
SMALL
GASTEIGER

@<TRIPOS>ATOM
      1 C         -62.2549  -44.7444  -25.2437 C.ar    1  UNL1        0.0811
      2 C         -62.6386  -43.4983  -25.7599 C.ar    1  UNL1        0.0080
      3 C         -62.8683  -42.4190  -24.9084 C.ar    1  UNL1        0.0150
      4 C         -62.7321  -42.5635  -23.5216 C.ar    1  UNL1        0.0564
      5 C         -62.3657  -43.8169  -22.9814 C.ar    1  UNL1        0.1162
      6 C         -62.1327  -44.9027  -23.8490 C.ar    1  UNL1        0.1518
      7 F         -61.7881  -46.1104  -23.3337 F       1  UNL1       -0.2038
      8 N         -63.0210  -41.4461  -22.6642 N.pl3   1  UNL1       -0.3038
      9 C         -64.3670  -40.8665  -22.6810 C.3     1  UNL1        0.1123
     10 C         -64.7231  -40.3044  -21.3027 C.3     1  UNL1        0.1136
     11 N         -63.6162  -39.4919  -20.7778 N.pl3   1  UNL1       -0.2897
     12 C         -62.2713  -40.0823  -20.7720 C.3     1  UNL1        0.1136
     13 C         -61.9224  -40.6191  -22.1591 C.3     1  UNL1        0.1123
     14 C         -63.8665  -38.2850  -20.0291 C.ar    1  UNL1        0.1318
     15 C         -64.9588  -38.1832  -19.1521 C.ar    1  UNL1        0.0343
     16 C         -65.1658  -36.9989  -18.4432 C.ar    1  UNL1        0.0083
     17 C         -64.2979  -35.9105  -18.6161 C.ar    1  UNL1        0.0906
     18 C         -63.1992  -36.0646  -19.4754 C.ar    1  UNL1        0.1041
     19 N         -63.0170  -37.2280  -20.1541 N.ar    1  UNL1       -0.2292
     20 C         -64.4809  -34.6447  -17.8182 C.3     1  UNL1        0.4200
     21 F         -65.5623  -33.9217  -18.2913 F       1  UNL1       -0.1658
     22 F         -63.3404  -33.8710  -17.9239 F       1  UNL1       -0.1658
     23 F         -64.7058  -34.9373  -16.4841 F       1  UNL1       -0.1658
     24 O         -60.8586  -46.4228  -26.1632 O.2     1  UNL1       -0.2701
     25 C         -61.9906  -45.8658  -26.1742 C.2     1  UNL1        0.2483
     26 N         -63.0190  -46.3531  -27.0517 N.am    1  UNL1       -0.2945
     27 H         -64.0045  -46.0783  -26.8432 H       1  UNL1        0.1501
     28 C         -62.7865  -47.4581  -27.9895 C.3     1  UNL1        0.1535
     29 C         -62.9401  -48.7856  -27.2918 C.2     1  UNL1        0.2443
     30 O         -63.3225  -49.7957  -27.9445 O.2     1  UNL1       -0.2730
     31 N         -62.5637  -48.9120  -25.9116 N.am    1  UNL1       -0.2825
     32 H         -61.9930  -48.1440  -25.4908 H       1  UNL1        0.1549
     33 C         -62.8162  -50.0799  -25.1126 C.ar    1  UNL1        0.0535
     34 C         -61.8831  -50.4642  -24.1399 C.ar    1  UNL1        0.0353
     35 C         -62.1338  -51.5860  -23.3463 C.ar    1  UNL1        0.1002
     36 N         -63.2850  -52.2909  -23.5059 N.ar    1  UNL1       -0.2422
     37 C         -64.2178  -51.9314  -24.4269 C.ar    1  UNL1        0.1002
     38 C         -64.0060  -50.8165  -25.2420 C.ar    1  UNL1        0.0353
     39 C         -63.7079  -47.3506  -29.2225 C.3     1  UNL1        0.0569
     40 C         -64.1001  -45.9369  -29.5596 C.ar    1  UNL1       -0.0017
     41 C         -65.3645  -45.3710  -29.4179 C.ar    1  UNL1        0.0681
     42 N         -65.3407  -44.0656  -29.7706 N.ar    1  UNL1       -0.3523
     43 C         -64.0736  -43.8015  -30.1332 C.ar    1  UNL1        0.0563
     44 C         -63.5556  -42.5810  -30.5647 C.ar    1  UNL1        0.0170
     45 C         -62.1874  -42.5243  -30.8872 C.ar    1  UNL1        0.0015
     46 C         -61.3774  -43.6760  -30.7751 C.ar    1  UNL1        0.0001
     47 C         -61.9281  -44.8946  -30.3396 C.ar    1  UNL1        0.0012
     48 C         -63.2865  -44.9192  -30.0209 C.ar    1  UNL1        0.0131
     49 H         -66.1447  -43.3995  -29.7552 H       1  UNL1        0.1660
     50 C         -62.1836  -43.9883  -21.5214 C.2     1  UNL1        0.3415
     51 O         -61.0293  -43.9294  -21.0212 O.2     1  UNL1       -0.2450
     52 O         -63.2720  -44.2109  -20.6809 O.3     1  UNL1       -0.4770
     53 H         -64.2244  -44.1800  -21.0234 H       1  UNL1        0.2954
@<TRIPOS>BOND
     1    24    25    2
     2    25    26   am
     3    26    28    1
     4    28    39    1
     5    39    40    1
     6    40    41   ar
     7    41    42   ar
     8    42    43   ar
     9    43    44   ar
    10    44    45   ar
    11    45    46   ar
    12    46    47   ar
    13    47    48   ar
    14    28    29    1
    15    29    30    2
    16    29    31   am
    17    31    33    1
    18    33    34   ar
    19    34    35   ar
    20    35    36   ar
    21    36    37   ar
    22    37    38   ar
    23    25     1    1
    24     1     2   ar
    25     2     3   ar
    26     3     4   ar
    27     4     8    1
    28     8     9    1
    29     9    10    1
    30    10    11    1
    31    11    14    1
    32    14    15   ar
    33    15    16   ar
    34    16    17   ar
    35    17    20    1
    36    20    21    1
    37    20    22    1
    38    20    23    1
    39    17    18   ar
    40    18    19   ar
    41    11    12    1
    42    12    13    1
    43     4     5   ar
    44     5    50    1
    45    50    51    2
    46    50    52    1
    47     5     6   ar
    48     6     7    1
    49    48    40   ar
    50    38    33   ar
    51     6     1   ar
    52    48    43   ar
    53    13     8    1
    54    19    14   ar
    55    26    27    1
    56    42    49    1
    57    31    32    1
    58    52    53    1
@<TRIPOS>MOLECULE
*****
 53 58 0 0 0
SMALL
GASTEIGER

@<TRIPOS>ATOM
      1 C         -61.9488  -44.9473  -25.0652 C.ar    1  UNL1        0.0811
      2 C         -62.1506  -43.6681  -25.6030 C.ar    1  UNL1        0.0080
      3 C         -62.4359  -42.5868  -24.7711 C.ar    1  UNL1        0.0150
      4 C         -62.5384  -42.7614  -23.3848 C.ar    1  UNL1        0.0564
      5 C         -62.3579  -44.0469  -22.8264 C.ar    1  UNL1        0.1162
      6 C         -62.0672  -45.1348  -23.6738 C.ar    1  UNL1        0.1518
      7 F         -61.9008  -46.3727  -23.1422 F       1  UNL1       -0.2038
      8 N         -62.8800  -41.6376  -22.5557 N.pl3   1  UNL1       -0.3038
      9 C         -64.1791  -40.9853  -22.7425 C.3     1  UNL1        0.1123
     10 C         -64.6865  -40.4169  -21.4151 C.3     1  UNL1        0.1136
     11 N         -63.6185  -39.6709  -20.7341 N.pl3   1  UNL1       -0.2897
     12 C         -62.3197  -40.3338  -20.5585 C.3     1  UNL1        0.1136
     13 C         -61.8168  -40.8764  -21.8952 C.3     1  UNL1        0.1123
     14 C         -63.9027  -38.4588  -20.0060 C.ar    1  UNL1        0.1318
     15 C         -65.0047  -38.3688  -19.1399 C.ar    1  UNL1        0.0343
     16 C         -65.2447  -37.1790  -18.4509 C.ar    1  UNL1        0.0083
     17 C         -64.4003  -36.0738  -18.6331 C.ar    1  UNL1        0.0906
     18 C         -63.2909  -36.2157  -19.4806 C.ar    1  UNL1        0.1041
     19 N         -63.0764  -37.3847  -20.1400 N.ar    1  UNL1       -0.2292
     20 C         -64.6190  -34.8007  -17.8562 C.3     1  UNL1        0.4200
     21 F         -65.6755  -34.0807  -18.3866 F       1  UNL1       -0.1658
     22 F         -63.4736  -34.0293  -17.9145 F       1  UNL1       -0.1658
     23 F         -64.9075  -35.0809  -16.5316 F       1  UNL1       -0.1658
     24 O         -60.6450  -46.8233  -25.6921 O.2     1  UNL1       -0.2701
     25 C         -61.6196  -46.0722  -25.9706 C.2     1  UNL1        0.2483
     26 N         -62.4225  -46.3429  -27.1313 N.am    1  UNL1       -0.2945
     27 H         -63.3673  -45.9015  -27.1809 H       1  UNL1        0.1501
     28 C         -62.1186  -47.4456  -28.0512 C.3     1  UNL1        0.1535
     29 C         -63.3787  -47.9507  -28.7066 C.2     1  UNL1        0.2443
     30 O         -64.0296  -48.8903  -28.1719 O.2     1  UNL1       -0.2730
     31 N         -63.8782  -47.2992  -29.8851 N.am    1  UNL1       -0.2825
     32 H         -63.4799  -46.3644  -30.1300 H       1  UNL1        0.1549
     33 C         -64.9728  -47.7936  -30.6748 C.ar    1  UNL1        0.0535
     34 C         -65.2916  -47.1601  -31.8837 C.ar    1  UNL1        0.0353
     35 C         -66.3408  -47.6495  -32.6652 C.ar    1  UNL1        0.1002
     36 N         -67.0375  -48.7450  -32.2626 N.ar    1  UNL1       -0.2422
     37 C         -66.7393  -49.3926  -31.1055 C.ar    1  UNL1        0.1002
     38 C         -65.6982  -48.9353  -30.2935 C.ar    1  UNL1        0.0353
     39 C         -61.0592  -47.0308  -29.0934 C.3     1  UNL1        0.0569
     40 C         -60.8379  -45.5437  -29.1681 C.ar    1  UNL1       -0.0017
     41 C         -59.7796  -44.8337  -28.6071 C.ar    1  UNL1        0.0681
     42 N         -59.8746  -43.5205  -28.9158 N.ar    1  UNL1       -0.3523
     43 C         -60.9824  -43.3942  -29.6667 C.ar    1  UNL1        0.0563
     44 C         -61.4899  -42.2258  -30.2334 C.ar    1  UNL1        0.0170
     45 C         -62.6672  -42.3229  -30.9976 C.ar    1  UNL1        0.0015
     46 C         -63.3051  -43.5707  -31.1738 C.ar    1  UNL1        0.0001
     47 C         -62.7715  -44.7326  -30.5878 C.ar    1  UNL1        0.0012
     48 C         -61.5997  -44.6067  -29.8407 C.ar    1  UNL1        0.0131
     49 H         -59.2144  -42.7627  -28.6326 H       1  UNL1        0.1660
     50 C         -62.4290  -44.2530  -21.3613 C.2     1  UNL1        0.3415
     51 O         -63.5418  -44.4608  -20.8094 O.2     1  UNL1       -0.2450
     52 O         -61.2804  -44.2261  -20.5735 O.3     1  UNL1       -0.4770
     53 H         -60.3567  -44.1491  -20.9812 H       1  UNL1        0.2954
@<TRIPOS>BOND
     1    24    25    2
     2    25    26   am
     3    26    28    1
     4    28    39    1
     5    39    40    1
     6    40    41   ar
     7    41    42   ar
     8    42    43   ar
     9    43    44   ar
    10    44    45   ar
    11    45    46   ar
    12    46    47   ar
    13    47    48   ar
    14    28    29    1
    15    29    30    2
    16    29    31   am
    17    31    33    1
    18    33    34   ar
    19    34    35   ar
    20    35    36   ar
    21    36    37   ar
    22    37    38   ar
    23    25     1    1
    24     1     2   ar
    25     2     3   ar
    26     3     4   ar
    27     4     8    1
    28     8     9    1
    29     9    10    1
    30    10    11    1
    31    11    14    1
    32    14    15   ar
    33    15    16   ar
    34    16    17   ar
    35    17    20    1
    36    20    21    1
    37    20    22    1
    38    20    23    1
    39    17    18   ar
    40    18    19   ar
    41    11    12    1
    42    12    13    1
    43     4     5   ar
    44     5    50    1
    45    50    51    2
    46    50    52    1
    47     5     6   ar
    48     6     7    1
    49    48    40   ar
    50    38    33   ar
    51     6     1   ar
    52    48    43   ar
    53    13     8    1
    54    19    14   ar
    55    26    27    1
    56    42    49    1
    57    31    32    1
    58    52    53    1
@<TRIPOS>MOLECULE
*****
 53 58 0 0 0
SMALL
GASTEIGER

@<TRIPOS>ATOM
      1 C         -61.8954  -44.6386  -24.6924 C.ar    1  UNL1        0.0811
      2 C         -62.3038  -43.4409  -25.2967 C.ar    1  UNL1        0.0080
      3 C         -62.6622  -42.3413  -24.5190 C.ar    1  UNL1        0.0150
      4 C         -62.6328  -42.4172  -23.1204 C.ar    1  UNL1        0.0564
      5 C         -62.2432  -43.6221  -22.4933 C.ar    1  UNL1        0.1162
      6 C         -61.8798  -44.7289  -23.2864 C.ar    1  UNL1        0.1518
      7 F         -61.5123  -45.8906  -22.6880 F       1  UNL1       -0.2038
      8 N         -63.0527  -41.2827  -22.3434 N.pl3   1  UNL1       -0.3038
      9 C         -64.4254  -40.7903  -22.4889 C.3     1  UNL1        0.1123
     10 C         -64.9194  -40.1902  -21.1705 C.3     1  UNL1        0.1136
     11 N         -63.9065  -39.2869  -20.6058 N.pl3   1  UNL1       -0.2897
     12 C         -62.5334  -39.7906  -20.4708 C.3     1  UNL1        0.1136
     13 C         -62.0473  -40.3663  -21.7999 C.3     1  UNL1        0.1123
     14 C         -64.2849  -38.0656  -19.9386 C.ar    1  UNL1        0.1318
     15 C         -65.6102  -37.6013  -19.9623 C.ar    1  UNL1        0.0343
     16 C         -65.9375  -36.4160  -19.3021 C.ar    1  UNL1        0.0083
     17 C         -64.9467  -35.6835  -18.6315 C.ar    1  UNL1        0.0906
     18 C         -63.6419  -36.1993  -18.6024 C.ar    1  UNL1        0.1041
     19 N         -63.3471  -37.3566  -19.2515 N.ar    1  UNL1       -0.2292
     20 C         -65.2970  -34.4295  -17.8719 C.3     1  UNL1        0.4200
     21 F         -64.4292  -33.4020  -18.1995 F       1  UNL1       -0.1658
     22 F         -65.2081  -34.6791  -16.5153 F       1  UNL1       -0.1658
     23 F         -66.5850  -34.0209  -18.1723 F       1  UNL1       -0.1658
     24 O         -60.2876  -45.8943  -25.8967 O.2     1  UNL1       -0.2701
     25 C         -61.4937  -45.7818  -25.5440 C.2     1  UNL1        0.2483
     26 N         -62.4488  -46.7829  -25.9319 N.am    1  UNL1       -0.2945
     27 H         -63.3481  -46.8257  -25.4032 H       1  UNL1        0.1501
     28 C         -62.0834  -47.9238  -26.7802 C.3     1  UNL1        0.1535
     29 C         -62.1754  -49.2122  -26.0029 C.2     1  UNL1        0.2443
     30 O         -63.0191  -50.0880  -26.3396 O.2     1  UNL1       -0.2730
     31 N         -61.2421  -49.4718  -24.9425 N.am    1  UNL1       -0.2825
     32 H         -60.3939  -48.8639  -24.8813 H       1  UNL1        0.1549
     33 C         -61.3390  -50.5869  -24.0407 C.ar    1  UNL1        0.0535
     34 C         -60.1746  -51.2673  -23.6588 C.ar    1  UNL1        0.0353
     35 C         -60.2608  -52.3382  -22.7661 C.ar    1  UNL1        0.1002
     36 N         -61.4664  -52.7070  -22.2579 N.ar    1  UNL1       -0.2422
     37 C         -62.6102  -52.0543  -22.5939 C.ar    1  UNL1        0.1002
     38 C         -62.5687  -50.9784  -23.4845 C.ar    1  UNL1        0.0353
     39 C         -62.9414  -47.9672  -28.0619 C.3     1  UNL1        0.0569
     40 C         -63.2181  -46.6084  -28.6476 C.ar    1  UNL1       -0.0017
     41 C         -64.4597  -45.9860  -28.7480 C.ar    1  UNL1        0.0681
     42 N         -64.3276  -44.7503  -29.2815 N.ar    1  UNL1       -0.3523
     43 C         -63.0147  -44.5861  -29.5185 C.ar    1  UNL1        0.0563
     44 C         -62.3876  -43.4626  -30.0556 C.ar    1  UNL1        0.0170
     45 C         -60.9897  -43.5005  -30.2104 C.ar    1  UNL1        0.0015
     46 C         -60.2588  -44.6483  -29.8319 C.ar    1  UNL1        0.0001
     47 C         -60.9187  -45.7683  -29.2951 C.ar    1  UNL1        0.0012
     48 C         -62.3046  -45.6995  -29.1476 C.ar    1  UNL1        0.0131
     49 H         -65.0926  -44.0633  -29.4634 H       1  UNL1        0.1660
     50 C         -62.1725  -43.7190  -21.0169 C.2     1  UNL1        0.3415
     51 O         -63.1612  -44.1519  -20.3677 O.2     1  UNL1       -0.2450
     52 O         -61.0239  -43.3426  -20.3244 O.3     1  UNL1       -0.4770
     53 H         -60.1760  -43.0714  -20.8070 H       1  UNL1        0.2954
@<TRIPOS>BOND
     1    24    25    2
     2    25    26   am
     3    26    28    1
     4    28    39    1
     5    39    40    1
     6    40    41   ar
     7    41    42   ar
     8    42    43   ar
     9    43    44   ar
    10    44    45   ar
    11    45    46   ar
    12    46    47   ar
    13    47    48   ar
    14    28    29    1
    15    29    30    2
    16    29    31   am
    17    31    33    1
    18    33    34   ar
    19    34    35   ar
    20    35    36   ar
    21    36    37   ar
    22    37    38   ar
    23    25     1    1
    24     1     2   ar
    25     2     3   ar
    26     3     4   ar
    27     4     8    1
    28     8     9    1
    29     9    10    1
    30    10    11    1
    31    11    14    1
    32    14    15   ar
    33    15    16   ar
    34    16    17   ar
    35    17    20    1
    36    20    21    1
    37    20    22    1
    38    20    23    1
    39    17    18   ar
    40    18    19   ar
    41    11    12    1
    42    12    13    1
    43     4     5   ar
    44     5    50    1
    45    50    51    2
    46    50    52    1
    47     5     6   ar
    48     6     7    1
    49    48    40   ar
    50    38    33   ar
    51     6     1   ar
    52    48    43   ar
    53    13     8    1
    54    19    14   ar
    55    26    27    1
    56    42    49    1
    57    31    32    1
    58    52    53    1
@<TRIPOS>MOLECULE
*****
 53 58 0 0 0
SMALL
GASTEIGER

@<TRIPOS>ATOM
      1 C         -61.1963  -46.1031  -23.0248 C.ar    1  UNL1        0.0811
      2 C         -61.6654  -45.9566  -21.7114 C.ar    1  UNL1        0.0080
      3 C         -62.0828  -44.7121  -21.2429 C.ar    1  UNL1        0.0150
      4 C         -62.0292  -43.5837  -22.0715 C.ar    1  UNL1        0.0564
      5 C         -61.5407  -43.7079  -23.3917 C.ar    1  UNL1        0.1162
      6 C         -61.1229  -44.9700  -23.8591 C.ar    1  UNL1        0.1518
      7 F         -60.6457  -45.0921  -25.1240 F       1  UNL1       -0.2038
      8 N         -62.4220  -42.3040  -21.5470 N.pl3   1  UNL1       -0.3038
      9 C         -61.4592  -41.5353  -20.7532 C.3     1  UNL1        0.1123
     10 C         -61.6900  -40.0341  -20.9420 C.3     1  UNL1        0.1136
     11 N         -63.1190  -39.7140  -20.8136 N.pl3   1  UNL1       -0.2897
     12 C         -64.0739  -40.4957  -21.6100 C.3     1  UNL1        0.1136
     13 C         -63.8449  -41.9908  -21.3942 C.3     1  UNL1        0.1123
     14 C         -63.5566  -38.5013  -20.1674 C.ar    1  UNL1        0.1318
     15 C         -64.6855  -38.4857  -19.3321 C.ar    1  UNL1        0.0343
     16 C         -65.0757  -37.2924  -18.7224 C.ar    1  UNL1        0.0083
     17 C         -64.3548  -36.1115  -18.9537 C.ar    1  UNL1        0.0906
     18 C         -63.2131  -36.1767  -19.7672 C.ar    1  UNL1        0.1041
     19 N         -62.8515  -37.3506  -20.3491 N.ar    1  UNL1       -0.2292
     20 C         -64.7355  -34.8280  -18.2610 C.3     1  UNL1        0.4200
     21 F         -65.7660  -34.1964  -18.9356 F       1  UNL1       -0.1658
     22 F         -63.6387  -33.9875  -18.2249 F       1  UNL1       -0.1658
     23 F         -65.1550  -35.0785  -16.9659 F       1  UNL1       -0.1658
     24 O         -59.5670  -47.6651  -23.7443 O.2     1  UNL1       -0.2701
     25 C         -60.7855  -47.4428  -23.5042 C.2     1  UNL1        0.2483
     26 N         -61.7483  -48.4991  -23.6534 N.am    1  UNL1       -0.2945
     27 H         -62.6737  -48.3814  -23.1844 H       1  UNL1        0.1501
     28 C         -61.3739  -49.8352  -24.1322 C.3     1  UNL1        0.1535
     29 C         -62.1894  -50.8947  -23.4359 C.2     1  UNL1        0.2443
     30 O         -61.9748  -51.1516  -22.2193 O.2     1  UNL1       -0.2730
     31 N         -63.2647  -51.5398  -24.1362 N.am    1  UNL1       -0.2825
     32 H         -63.5918  -51.1075  -25.0299 H       1  UNL1        0.1549
     33 C         -63.9966  -52.6662  -23.6246 C.ar    1  UNL1        0.0535
     34 C         -65.3114  -52.8875  -24.0569 C.ar    1  UNL1        0.0353
     35 C         -66.0197  -53.9925  -23.5790 C.ar    1  UNL1        0.1002
     36 N         -65.4300  -54.8576  -22.7122 N.ar    1  UNL1       -0.2422
     37 C         -64.1501  -54.6808  -22.2902 C.ar    1  UNL1        0.1002
     38 C         -63.4066  -53.5877  -22.7428 C.ar    1  UNL1        0.0353
     39 C         -61.4972  -49.9358  -25.6670 C.3     1  UNL1        0.0569
     40 C         -62.3643  -48.8649  -26.2730 C.ar    1  UNL1       -0.0017
     41 C         -63.7476  -48.7542  -26.1576 C.ar    1  UNL1        0.0681
     42 N         -64.1873  -47.6416  -26.7884 N.ar    1  UNL1       -0.3523
     43 C         -63.0952  -47.0484  -27.3006 C.ar    1  UNL1        0.0563
     44 C         -63.0425  -45.8608  -28.0290 C.ar    1  UNL1        0.0170
     45 C         -61.7824  -45.4118  -28.4648 C.ar    1  UNL1        0.0015
     46 C         -60.6170  -46.1528  -28.1686 C.ar    1  UNL1        0.0001
     47 C         -60.7010  -47.3491  -27.4340 C.ar    1  UNL1        0.0012
     48 C         -61.9632  -47.7663  -27.0097 C.ar    1  UNL1        0.0131
     49 H         -65.1753  -47.3103  -26.8547 H       1  UNL1        0.1660
     50 C         -61.5038  -42.5374  -24.2988 C.2     1  UNL1        0.3415
     51 O         -60.3971  -42.0500  -24.6507 O.2     1  UNL1       -0.2450
     52 O         -62.6775  -41.9611  -24.7794 O.3     1  UNL1       -0.4770
     53 H         -63.5856  -42.3693  -24.5947 H       1  UNL1        0.2954
@<TRIPOS>BOND
     1    24    25    2
     2    25    26   am
     3    26    28    1
     4    28    39    1
     5    39    40    1
     6    40    41   ar
     7    41    42   ar
     8    42    43   ar
     9    43    44   ar
    10    44    45   ar
    11    45    46   ar
    12    46    47   ar
    13    47    48   ar
    14    28    29    1
    15    29    30    2
    16    29    31   am
    17    31    33    1
    18    33    34   ar
    19    34    35   ar
    20    35    36   ar
    21    36    37   ar
    22    37    38   ar
    23    25     1    1
    24     1     2   ar
    25     2     3   ar
    26     3     4   ar
    27     4     8    1
    28     8     9    1
    29     9    10    1
    30    10    11    1
    31    11    14    1
    32    14    15   ar
    33    15    16   ar
    34    16    17   ar
    35    17    20    1
    36    20    21    1
    37    20    22    1
    38    20    23    1
    39    17    18   ar
    40    18    19   ar
    41    11    12    1
    42    12    13    1
    43     4     5   ar
    44     5    50    1
    45    50    51    2
    46    50    52    1
    47     5     6   ar
    48     6     7    1
    49    48    40   ar
    50    38    33   ar
    51     6     1   ar
    52    48    43   ar
    53    13     8    1
    54    19    14   ar
    55    26    27    1
    56    42    49    1
    57    31    32    1
    58    52    53    1
@<TRIPOS>MOLECULE
*****
 53 58 0 0 0
SMALL
GASTEIGER

@<TRIPOS>ATOM
      1 C         -62.5574  -42.4591  -21.9831 C.ar    1  UNL1        0.0811
      2 C         -62.8558  -41.4701  -22.9314 C.ar    1  UNL1        0.0080
      3 C         -62.5796  -41.6770  -24.2817 C.ar    1  UNL1        0.0150
      4 C         -61.9876  -42.8710  -24.7136 C.ar    1  UNL1        0.0564
      5 C         -61.6613  -43.8712  -23.7701 C.ar    1  UNL1        0.1162
      6 C         -61.9460  -43.6558  -22.4068 C.ar    1  UNL1        0.1518
      7 F         -61.6271  -44.6108  -21.4964 F       1  UNL1       -0.2038
      8 N         -61.6710  -43.0381  -26.1060 N.pl3   1  UNL1       -0.3038
      9 C         -60.4113  -42.4921  -26.6190 C.3     1  UNL1        0.1123
     10 C         -59.8858  -43.3536  -27.7698 C.3     1  UNL1        0.1136
     11 N         -60.9636  -43.6473  -28.7252 N.pl3   1  UNL1       -0.2897
     12 C         -62.2230  -44.1885  -28.1976 C.3     1  UNL1        0.1136
     13 C         -62.7455  -43.3062  -27.0650 C.3     1  UNL1        0.1123
     14 C         -60.7120  -43.6864  -30.1447 C.ar    1  UNL1        0.1318
     15 C         -59.6432  -44.4263  -30.6765 C.ar    1  UNL1        0.0343
     16 C         -59.4341  -44.4413  -32.0564 C.ar    1  UNL1        0.0083
     17 C         -60.2761  -43.7099  -32.9071 C.ar    1  UNL1        0.0906
     18 C         -61.3529  -43.0116  -32.3393 C.ar    1  UNL1        0.1041
     19 N         -61.5376  -43.0128  -30.9927 N.ar    1  UNL1       -0.2292
     20 C         -60.0920  -43.7592  -34.4024 C.3     1  UNL1        0.4200
     21 F         -59.3197  -42.6948  -34.8343 F       1  UNL1       -0.1658
     22 F         -61.3291  -43.6966  -35.0158 F       1  UNL1       -0.1658
     23 F         -59.4609  -44.9326  -34.7777 F       1  UNL1       -0.1658
     24 O         -62.8011  -43.1781  -19.7391 O.2     1  UNL1       -0.2701
     25 C         -62.8875  -42.2229  -20.5588 C.2     1  UNL1        0.2483
     26 N         -63.2582  -40.9141  -20.0957 N.am    1  UNL1       -0.2945
     27 H         -63.0459  -40.1020  -20.7165 H       1  UNL1        0.1501
     28 C         -63.5971  -40.6493  -18.6922 C.3     1  UNL1        0.1535
     29 C         -63.6131  -39.1663  -18.4223 C.2     1  UNL1        0.2443
     30 O         -62.9333  -38.6957  -17.4690 O.2     1  UNL1       -0.2730
     31 N         -64.3288  -38.2896  -19.3066 N.am    1  UNL1       -0.2825
     32 H         -64.6354  -38.6736  -20.2293 H       1  UNL1        0.1549
     33 C         -64.5403  -36.8903  -19.0548 C.ar    1  UNL1        0.0535
     34 C         -63.5047  -36.1259  -18.5001 C.ar    1  UNL1        0.0353
     35 C         -63.6977  -34.7612  -18.2732 C.ar    1  UNL1        0.1002
     36 N         -64.8785  -34.1751  -18.6046 N.ar    1  UNL1       -0.2422
     37 C         -65.8941  -34.8858  -19.1622 C.ar    1  UNL1        0.1002
     38 C         -65.7431  -36.2535  -19.4049 C.ar    1  UNL1        0.0353
     39 C         -64.9333  -41.3154  -18.3027 C.3     1  UNL1        0.0569
     40 C         -65.6598  -41.9340  -19.4671 C.ar    1  UNL1       -0.0017
     41 C         -66.0023  -43.2758  -19.6124 C.ar    1  UNL1        0.0681
     42 N         -66.6930  -43.4660  -20.7595 N.ar    1  UNL1       -0.3523
     43 C         -66.7905  -42.2574  -21.3396 C.ar    1  UNL1        0.0563
     44 C         -67.4284  -41.9455  -22.5396 C.ar    1  UNL1        0.0170
     45 C         -67.4183  -40.6031  -22.9604 C.ar    1  UNL1        0.0015
     46 C         -66.7759  -39.6143  -22.1828 C.ar    1  UNL1        0.0001
     47 C         -66.1380  -39.9587  -20.9777 C.ar    1  UNL1        0.0012
     48 C         -66.1697  -41.2967  -20.5826 C.ar    1  UNL1        0.0131
     49 H         -67.0778  -44.3695  -21.1146 H       1  UNL1        0.1660
     50 C         -61.0645  -45.1557  -24.2039 C.2     1  UNL1        0.3415
     51 O         -59.8365  -45.2176  -24.4761 O.2     1  UNL1       -0.2450
     52 O         -61.8384  -46.3088  -24.3140 O.3     1  UNL1       -0.4770
     53 H         -62.8083  -46.3289  -24.0239 H       1  UNL1        0.2954
@<TRIPOS>BOND
     1    24    25    2
     2    25    26   am
     3    26    28    1
     4    28    39    1
     5    39    40    1
     6    40    41   ar
     7    41    42   ar
     8    42    43   ar
     9    43    44   ar
    10    44    45   ar
    11    45    46   ar
    12    46    47   ar
    13    47    48   ar
    14    28    29    1
    15    29    30    2
    16    29    31   am
    17    31    33    1
    18    33    34   ar
    19    34    35   ar
    20    35    36   ar
    21    36    37   ar
    22    37    38   ar
    23    25     1    1
    24     1     2   ar
    25     2     3   ar
    26     3     4   ar
    27     4     8    1
    28     8     9    1
    29     9    10    1
    30    10    11    1
    31    11    14    1
    32    14    15   ar
    33    15    16   ar
    34    16    17   ar
    35    17    20    1
    36    20    21    1
    37    20    22    1
    38    20    23    1
    39    17    18   ar
    40    18    19   ar
    41    11    12    1
    42    12    13    1
    43     4     5   ar
    44     5    50    1
    45    50    51    2
    46    50    52    1
    47     5     6   ar
    48     6     7    1
    49    48    40   ar
    50    38    33   ar
    51     6     1   ar
    52    48    43   ar
    53    13     8    1
    54    19    14   ar
    55    26    27    1
    56    42    49    1
    57    31    32    1
    58    52    53    1
@<TRIPOS>MOLECULE
*****
 53 58 0 0 0
SMALL
GASTEIGER

@<TRIPOS>ATOM
      1 C         -61.9910  -45.0375  -24.4873 C.ar    1  UNL1        0.0811
      2 C         -61.7782  -44.9970  -23.1019 C.ar    1  UNL1        0.0080
      3 C         -62.1478  -43.8759  -22.3608 C.ar    1  UNL1        0.0150
      4 C         -62.7266  -42.7653  -22.9887 C.ar    1  UNL1        0.0564
      5 C         -62.9306  -42.7797  -24.3870 C.ar    1  UNL1        0.1162
      6 C         -62.5566  -43.9179  -25.1291 C.ar    1  UNL1        0.1518
      7 F         -62.7436  -43.9327  -26.4735 F       1  UNL1       -0.2038
      8 N         -63.0547  -41.6044  -22.2067 N.pl3   1  UNL1       -0.3038
      9 C         -64.4192  -41.4560  -21.6927 C.3     1  UNL1        0.1123
     10 C         -64.4085  -40.7030  -20.3603 C.3     1  UNL1        0.1136
     11 N         -63.5601  -39.5061  -20.4535 N.pl3   1  UNL1       -0.2897
     12 C         -62.1968  -39.6675  -20.9758 C.3     1  UNL1        0.1136
     13 C         -62.2262  -40.4012  -22.3155 C.3     1  UNL1        0.1123
     14 C         -63.9286  -38.2774  -19.7944 C.ar    1  UNL1        0.1318
     15 C         -65.1218  -38.1716  -19.0613 C.ar    1  UNL1        0.0343
     16 C         -65.4419  -36.9660  -18.4353 C.ar    1  UNL1        0.0083
     17 C         -64.5855  -35.8609  -18.5495 C.ar    1  UNL1        0.0906
     18 C         -63.3867  -36.0180  -19.2620 C.ar    1  UNL1        0.1041
     19 N         -63.0955  -37.2023  -19.8620 N.ar    1  UNL1       -0.2292
     20 C         -64.8946  -34.5695  -17.8361 C.3     1  UNL1        0.4200
     21 F         -66.1270  -34.0772  -18.2297 F       1  UNL1       -0.1658
     22 F         -63.9196  -33.6376  -18.1385 F       1  UNL1       -0.1658
     23 F         -64.9236  -34.7640  -16.4659 F       1  UNL1       -0.1658
     24 O         -60.4399  -46.7040  -25.1425 O.2     1  UNL1       -0.2701
     25 C         -61.6137  -46.2528  -25.2449 C.2     1  UNL1        0.2483
     26 N         -62.5782  -46.9455  -26.0542 N.am    1  UNL1       -0.2945
     27 H         -63.5875  -46.7290  -25.8975 H       1  UNL1        0.1501
     28 C         -62.2338  -48.1484  -26.8217 C.3     1  UNL1        0.1535
     29 C         -62.3594  -49.3796  -25.9608 C.2     1  UNL1        0.2443
     30 O         -63.3471  -50.1505  -26.1106 O.2     1  UNL1       -0.2730
     31 N         -61.3091  -49.7143  -25.0402 N.am    1  UNL1       -0.2825
     32 H         -60.3936  -49.2210  -25.1463 H       1  UNL1        0.1549
     33 C         -61.3984  -50.7680  -24.0665 C.ar    1  UNL1        0.0535
     34 C         -60.2288  -51.4094  -23.6363 C.ar    1  UNL1        0.0353
     35 C         -60.3078  -52.4194  -22.6745 C.ar    1  UNL1        0.1002
     36 N         -61.5117  -52.7660  -22.1470 N.ar    1  UNL1       -0.2422
     37 C         -62.6607  -52.1488  -22.5295 C.ar    1  UNL1        0.1002
     38 C         -62.6263  -51.1343  -23.4896 C.ar    1  UNL1        0.0353
     39 C         -63.0851  -48.2585  -28.1038 C.3     1  UNL1        0.0569
     40 C         -63.2189  -46.9586  -28.8513 C.ar    1  UNL1       -0.0017
     41 C         -64.3917  -46.4195  -29.3735 C.ar    1  UNL1        0.0681
     42 N         -64.1482  -45.2145  -29.9373 N.ar    1  UNL1       -0.3523
     43 C         -62.8332  -44.9873  -29.7758 C.ar    1  UNL1        0.0563
     44 C         -62.1138  -43.8647  -30.1834 C.ar    1  UNL1        0.0170
     45 C         -60.7358  -43.8286  -29.9020 C.ar    1  UNL1        0.0015
     46 C         -60.1143  -44.9042  -29.2298 C.ar    1  UNL1        0.0001
     47 C         -60.8650  -46.0253  -28.8327 C.ar    1  UNL1        0.0012
     48 C         -62.2306  -46.0303  -29.1197 C.ar    1  UNL1        0.0131
     49 H         -64.8453  -44.5874  -30.3969 H       1  UNL1        0.1660
     50 C         -63.5700  -41.6319  -25.0709 C.2     1  UNL1        0.3415
     51 O         -63.0069  -41.0989  -26.0634 O.2     1  UNL1       -0.2450
     52 O         -64.7945  -41.1270  -24.6391 O.3     1  UNL1       -0.4770
     53 H         -65.3253  -41.5753  -23.9025 H       1  UNL1        0.2954
@<TRIPOS>BOND
     1    24    25    2
     2    25    26   am
     3    26    28    1
     4    28    39    1
     5    39    40    1
     6    40    41   ar
     7    41    42   ar
     8    42    43   ar
     9    43    44   ar
    10    44    45   ar
    11    45    46   ar
    12    46    47   ar
    13    47    48   ar
    14    28    29    1
    15    29    30    2
    16    29    31   am
    17    31    33    1
    18    33    34   ar
    19    34    35   ar
    20    35    36   ar
    21    36    37   ar
    22    37    38   ar
    23    25     1    1
    24     1     2   ar
    25     2     3   ar
    26     3     4   ar
    27     4     8    1
    28     8     9    1
    29     9    10    1
    30    10    11    1
    31    11    14    1
    32    14    15   ar
    33    15    16   ar
    34    16    17   ar
    35    17    20    1
    36    20    21    1
    37    20    22    1
    38    20    23    1
    39    17    18   ar
    40    18    19   ar
    41    11    12    1
    42    12    13    1
    43     4     5   ar
    44     5    50    1
    45    50    51    2
    46    50    52    1
    47     5     6   ar
    48     6     7    1
    49    48    40   ar
    50    38    33   ar
    51     6     1   ar
    52    48    43   ar
    53    13     8    1
    54    19    14   ar
    55    26    27    1
    56    42    49    1
    57    31    32    1
    58    52    53    1
@<TRIPOS>MOLECULE
*****
 53 58 0 0 0
SMALL
GASTEIGER

@<TRIPOS>ATOM
      1 C         -61.5501  -44.5379  -24.6807 C.ar    1  UNL1        0.0811
      2 C         -61.7225  -43.2645  -25.2420 C.ar    1  UNL1        0.0080
      3 C         -62.0921  -42.1829  -24.4446 C.ar    1  UNL1        0.0150
      4 C         -62.3100  -42.3514  -23.0710 C.ar    1  UNL1        0.0564
      5 C         -62.1606  -43.6312  -22.4908 C.ar    1  UNL1        0.1162
      6 C         -61.7842  -44.7195  -23.3032 C.ar    1  UNL1        0.1518
      7 F         -61.6471  -45.9521  -22.7512 F       1  UNL1       -0.2038
      8 N         -62.7361  -41.2280  -22.2813 N.pl3   1  UNL1       -0.3038
      9 C         -64.0783  -40.6787  -22.4928 C.3     1  UNL1        0.1123
     10 C         -64.6315  -40.1041  -21.1865 C.3     1  UNL1        0.1136
     11 N         -63.6236  -39.2596  -20.5293 N.pl3   1  UNL1       -0.2897
     12 C         -62.2808  -39.8199  -20.3286 C.3     1  UNL1        0.1136
     13 C         -61.7340  -40.3694  -21.6451 C.3     1  UNL1        0.1123
     14 C         -63.9984  -38.0475  -19.8436 C.ar    1  UNL1        0.1318
     15 C         -63.1678  -36.9151  -19.8560 C.ar    1  UNL1        0.0343
     16 C         -63.5671  -35.7597  -19.1825 C.ar    1  UNL1        0.0083
     17 C         -64.7832  -35.7332  -18.4839 C.ar    1  UNL1        0.0906
     18 C         -65.5999  -36.8737  -18.5247 C.ar    1  UNL1        0.1041
     19 N         -65.1907  -37.9870  -19.1885 N.ar    1  UNL1       -0.2292
     20 C         -65.2494  -34.4756  -17.7958 C.3     1  UNL1        0.4200
     21 F         -65.2592  -34.6459  -16.4222 F       1  UNL1       -0.1658
     22 F         -66.5287  -34.1711  -18.2214 F       1  UNL1       -0.1658
     23 F         -64.4101  -33.4162  -18.0949 F       1  UNL1       -0.1658
     24 O         -61.3637  -46.8466  -25.1782 O.2     1  UNL1       -0.2701
     25 C         -61.1300  -45.6630  -25.5474 C.2     1  UNL1        0.2483
     26 N         -60.5042  -45.4203  -26.8180 N.am    1  UNL1       -0.2945
     27 H         -60.5832  -44.4608  -27.2219 H       1  UNL1        0.1501
     28 C         -60.0707  -46.5135  -27.6965 C.3     1  UNL1        0.1535
     29 C         -61.2233  -47.4361  -28.0014 C.2     1  UNL1        0.2443
     30 O         -61.2081  -48.6215  -27.5690 O.2     1  UNL1       -0.2730
     31 N         -62.3707  -46.9333  -28.7038 N.am    1  UNL1       -0.2825
     32 H         -62.4713  -45.8966  -28.7922 H       1  UNL1        0.1549
     33 C         -63.4462  -47.7583  -29.1822 C.ar    1  UNL1        0.0535
     34 C         -63.6744  -49.0065  -28.5870 C.ar    1  UNL1        0.0353
     35 C         -64.7314  -49.8029  -29.0338 C.ar    1  UNL1        0.1002
     36 N         -65.5443  -49.3612  -30.0297 N.ar    1  UNL1       -0.2422
     37 C         -65.3606  -48.1473  -30.6128 C.ar    1  UNL1        0.1002
     38 C         -64.3144  -47.3198  -30.1965 C.ar    1  UNL1        0.0353
     39 C         -59.4161  -45.9719  -28.9844 C.3     1  UNL1        0.0569
     40 C         -60.3096  -45.0526  -29.7734 C.ar    1  UNL1       -0.0017
     41 C         -61.4535  -44.4084  -29.3092 C.ar    1  UNL1        0.0681
     42 N         -61.9781  -43.6213  -30.2758 N.ar    1  UNL1       -0.3523
     43 C         -61.1766  -43.7618  -31.3456 C.ar    1  UNL1        0.0563
     44 C         -61.3046  -43.1358  -32.5849 C.ar    1  UNL1        0.0170
     45 C         -60.3402  -43.4210  -33.5687 C.ar    1  UNL1        0.0015
     46 C         -59.2833  -44.3175  -33.2960 C.ar    1  UNL1        0.0001
     47 C         -59.1810  -44.9365  -32.0373 C.ar    1  UNL1        0.0012
     48 C         -60.1482  -44.6296  -31.0794 C.ar    1  UNL1        0.0131
     49 H         -62.8294  -43.0214  -30.1994 H       1  UNL1        0.1660
     50 C         -62.3534  -43.8303  -21.0357 C.2     1  UNL1        0.3415
     51 O         -61.4874  -43.4096  -20.2238 O.2     1  UNL1       -0.2450
     52 O         -63.4848  -44.4750  -20.5405 O.3     1  UNL1       -0.4770
     53 H         -64.2472  -44.7528  -21.1461 H       1  UNL1        0.2954
@<TRIPOS>BOND
     1    24    25    2
     2    25    26   am
     3    26    28    1
     4    28    39    1
     5    39    40    1
     6    40    41   ar
     7    41    42   ar
     8    42    43   ar
     9    43    44   ar
    10    44    45   ar
    11    45    46   ar
    12    46    47   ar
    13    47    48   ar
    14    28    29    1
    15    29    30    2
    16    29    31   am
    17    31    33    1
    18    33    34   ar
    19    34    35   ar
    20    35    36   ar
    21    36    37   ar
    22    37    38   ar
    23    25     1    1
    24     1     2   ar
    25     2     3   ar
    26     3     4   ar
    27     4     8    1
    28     8     9    1
    29     9    10    1
    30    10    11    1
    31    11    14    1
    32    14    15   ar
    33    15    16   ar
    34    16    17   ar
    35    17    20    1
    36    20    21    1
    37    20    22    1
    38    20    23    1
    39    17    18   ar
    40    18    19   ar
    41    11    12    1
    42    12    13    1
    43     4     5   ar
    44     5    50    1
    45    50    51    2
    46    50    52    1
    47     5     6   ar
    48     6     7    1
    49    48    40   ar
    50    38    33   ar
    51     6     1   ar
    52    48    43   ar
    53    13     8    1
    54    19    14   ar
    55    26    27    1
    56    42    49    1
    57    31    32    1
    58    52    53    1
