@<TRIPOS>MOLECULE
*****
 51 56 0 0 0
SMALL
GASTEIGER

@<TRIPOS>ATOM
      1 C          61.6823   81.1557    9.2080 C.3     1  UNL1        0.1535
      2 O          62.4719   81.5762   11.9297 O.2     1  UNL1       -0.2701
      3 C          62.1438   82.5910   11.2565 C.2     1  UNL1        0.2483
      4 N          61.5968   82.4274    9.9380 N.am    1  UNL1       -0.2945
      5 H          61.0959   83.2387    9.5107 H       1  UNL1        0.1501
      6 C          62.2957   83.9366   11.8548 C.ar    1  UNL1        0.0808
      7 C          61.8766   85.0676   11.1345 C.ar    1  UNL1        0.0080
      8 C          62.0130   86.3475   11.6782 C.ar    1  UNL1        0.0148
      9 C          62.5558   86.5211   12.9601 C.ar    1  UNL1        0.0502
     10 C          62.9647   85.3918   13.6870 C.ar    1  UNL1        0.0443
     11 C          62.8322   84.1093   13.1456 C.ar    1  UNL1        0.1457
     12 F          63.1885   83.0418   13.9041 F       1  UNL1       -0.2040
     13 N          62.7074   87.8412   13.5160 N.pl3   1  UNL1       -0.3040
     14 C          63.0921   88.9586   12.6380 C.3     1  UNL1        0.1122
     15 C          63.4439   90.2110   13.4491 C.3     1  UNL1        0.1122
     16 N          64.2623   89.8363   14.6112 N.pl3   1  UNL1       -0.3040
     17 C          63.8028   88.7651   15.5108 C.3     1  UNL1        0.1122
     18 C          62.5526   88.0700   14.9597 C.3     1  UNL1        0.1122
     19 C          65.5434   90.4545   14.8384 C.ar    1  UNL1        0.0488
     20 C          65.7537   91.2594   15.9701 C.ar    1  UNL1        0.0154
     21 C          66.9919   91.8704   16.1829 C.ar    1  UNL1        0.0135
     22 C          68.0346   91.6898   15.2685 C.ar    1  UNL1        0.0683
     23 CL         69.5785   92.4756   15.5704 Cl      1  UNL1       -0.0814
     24 C          67.8327   90.8919   14.1301 C.ar    1  UNL1        0.0694
     25 CL         69.1169   90.6390   12.9555 Cl      1  UNL1       -0.0813
     26 C          66.5908   90.2814   13.9183 C.ar    1  UNL1        0.0268
     27 C          61.0509   80.0337   10.0035 C.2     1  UNL1        0.2443
     28 O          61.5547   78.8781    9.9677 O.2     1  UNL1       -0.2730
     29 N          59.9001   80.3039   10.8233 N.am    1  UNL1       -0.2825
     30 H          59.3753   81.1891   10.6405 H       1  UNL1        0.1549
     31 C          59.3870   79.4292   11.8454 C.ar    1  UNL1        0.0535
     32 C          59.5510   79.7834   13.1923 C.ar    1  UNL1        0.0353
     33 C          59.0952   78.9260   14.1963 C.ar    1  UNL1        0.1002
     34 N          58.5093   77.7445   13.8696 N.ar    1  UNL1       -0.2422
     35 C          58.3506   77.3637   12.5749 C.ar    1  UNL1        0.1002
     36 C          58.7888   78.1934   11.5401 C.ar    1  UNL1        0.0353
     37 C          61.0098   81.2962    7.8280 C.3     1  UNL1        0.0570
     38 C          59.9584   82.3793    7.8205 C.ar    1  UNL1        0.0033
     39 CA         58.5737   82.2500    8.0115 C.ar    1  UNL1        0.1292
     40 N          57.9924   83.4719    8.0856 N.ar    1  UNL1       -0.3483
     41 C          58.9831   84.3677    7.9515 C.ar    1  UNL1        0.0564
     42 C          58.8719   85.7569    7.9951 C.ar    1  UNL1        0.0170
     43 C          60.0479   86.5160    7.8618 C.ar    1  UNL1        0.0015
     44 C          61.2946   85.8770    7.6901 C.ar    1  UNL1        0.0001
     45 C          61.3768   84.4735    7.6524 C.ar    1  UNL1        0.0012
     46 C          60.1931   83.7443    7.7874 C.ar    1  UNL1        0.0133
     47 H          56.9796   83.6813    8.2329 H       1  UNL1        0.1661
     48 C          57.8037   80.9977    8.1379 C.2     1  UNL1        0.3536
     49 O          57.5933   80.5080    9.2797 O.2     1  UNL1       -0.2435
     50 OXT        57.2924   80.3551    7.0163 O.3     1  UNL1       -0.4761
     51 HXT        56.7621   79.4966    7.1043 H       1  UNL1        0.2955
@<TRIPOS>BOND
     1     2     3    2
     2     3     4   am
     3     4     1    1
     4     1    37    1
     5    37    38    1
     6    38    39   ar
     7    39    48    1
     8    48    49    2
     9    48    50    1
    10    39    40   ar
    11    40    41   ar
    12    41    42   ar
    13    42    43   ar
    14    43    44   ar
    15    44    45   ar
    16    45    46   ar
    17     1    27    1
    18    27    28    2
    19    27    29   am
    20    29    31    1
    21    31    32   ar
    22    32    33   ar
    23    33    34   ar
    24    34    35   ar
    25    35    36   ar
    26     3     6    1
    27     6     7   ar
    28     7     8   ar
    29     8     9   ar
    30     9    13    1
    31    13    14    1
    32    14    15    1
    33    15    16    1
    34    16    19    1
    35    19    20   ar
    36    20    21   ar
    37    21    22   ar
    38    22    23    1
    39    22    24   ar
    40    24    25    1
    41    24    26   ar
    42    16    17    1
    43    17    18    1
    44     9    10   ar
    45    10    11   ar
    46    11    12    1
    47    46    38   ar
    48    36    31   ar
    49    11     6   ar
    50    46    41   ar
    51    18    13    1
    52    26    19   ar
    53     4     5    1
    54    50    51    1
    55    40    47    1
    56    29    30    1
@<TRIPOS>MOLECULE
*****
 51 56 0 0 0
SMALL
GASTEIGER

@<TRIPOS>ATOM
      1 C          60.8307   80.5254    9.3027 C.3     1  UNL1        0.1535
      2 O          62.1618   82.8261    8.2334 O.2     1  UNL1       -0.2701
      3 C          61.7800   82.8816    9.4342 C.2     1  UNL1        0.2483
      4 N          61.2438   81.7090   10.0683 N.am    1  UNL1       -0.2945
      5 H          61.1824   81.7001   11.1113 H       1  UNL1        0.1501
      6 C          61.9257   84.1508   10.1822 C.ar    1  UNL1        0.0808
      7 C          61.9698   85.3678    9.4819 C.ar    1  UNL1        0.0080
      8 C          62.1098   86.5776   10.1668 C.ar    1  UNL1        0.0148
      9 C          62.1917   86.5961   11.5672 C.ar    1  UNL1        0.0502
     10 C          62.1363   85.3824   12.2705 C.ar    1  UNL1        0.0443
     11 C          61.9986   84.1693   11.5887 C.ar    1  UNL1        0.1457
     12 F          61.8933   83.0246   12.3102 F       1  UNL1       -0.2040
     13 N          62.3480   87.8421   12.2728 N.pl3   1  UNL1       -0.3040
     14 C          62.8299   89.0303   11.5494 C.3     1  UNL1        0.1122
     15 C          63.1658   90.1736   12.5140 C.3     1  UNL1        0.1122
     16 N          63.8881   89.6440   13.6794 N.pl3   1  UNL1       -0.3040
     17 C          63.3317   88.5025   14.4244 C.3     1  UNL1        0.1122
     18 C          62.1006   87.9214   13.7196 C.3     1  UNL1        0.1122
     19 C          65.1701   90.1819   14.0566 C.ar    1  UNL1        0.0488
     20 C          65.3476   90.7810   15.3146 C.ar    1  UNL1        0.0154
     21 C          66.5872   91.3153   15.6746 C.ar    1  UNL1        0.0135
     22 C          67.6642   91.2626   14.7840 C.ar    1  UNL1        0.0683
     23 CL         69.2087   91.9462   15.2731 Cl      1  UNL1       -0.0814
     24 C          67.4956   90.6713   13.5209 C.ar    1  UNL1        0.0694
     25 CL         68.8234   90.5843   12.3712 Cl      1  UNL1       -0.0813
     26 C          66.2523   90.1373   13.1618 C.ar    1  UNL1        0.0268
     27 C          61.4717   79.2725    9.8592 C.2     1  UNL1        0.2443
     28 O          61.1248   78.8399   10.9919 O.2     1  UNL1       -0.2730
     29 N          62.4473   78.5645    9.0742 N.am    1  UNL1       -0.2825
     30 H          62.8803   79.0732    8.2702 H       1  UNL1        0.1549
     31 C          62.9085   77.2259    9.3360 C.ar    1  UNL1        0.0535
     32 C          64.0448   76.7519    8.6648 C.ar    1  UNL1        0.0353
     33 C          64.4808   75.4420    8.8770 C.ar    1  UNL1        0.1002
     34 N          63.7967   74.6238    9.7188 N.ar    1  UNL1       -0.2422
     35 C          62.6823   75.0466   10.3713 C.ar    1  UNL1        0.1002
     36 C          62.2144   76.3502   10.1903 C.ar    1  UNL1        0.0353
     37 C          59.2939   80.4056    9.3100 C.3     1  UNL1        0.0570
     38 C          58.6957   80.8982   10.6053 C.ar    1  UNL1        0.0033
     39 CA         58.4187   80.1661   11.7706 C.ar    1  UNL1        0.1292
     40 N          58.0285   80.9972   12.7673 N.ar    1  UNL1       -0.3483
     41 C          58.0601   82.2379   12.2557 C.ar    1  UNL1        0.0564
     42 C          57.7694   83.4288   12.9200 C.ar    1  UNL1        0.0170
     43 C          57.8944   84.6309   12.2015 C.ar    1  UNL1        0.0015
     44 C          58.3029   84.6161   10.8506 C.ar    1  UNL1        0.0001
     45 C          58.5920   83.3996   10.2068 C.ar    1  UNL1        0.0012
     46 C          58.4595   82.2207   10.9443 C.ar    1  UNL1        0.0133
     47 H          57.7689   80.7332   13.7442 H       1  UNL1        0.1661
     48 C          58.5314   78.7066   11.9550 C.2     1  UNL1        0.3536
     49 O          57.8757   77.9316   11.2085 O.2     1  UNL1       -0.2435
     50 OXT        59.3625   78.1702   12.9317 O.3     1  UNL1       -0.4761
     51 HXT        59.4408   77.1679   13.0561 H       1  UNL1        0.2955
@<TRIPOS>BOND
     1     2     3    2
     2     3     4   am
     3     4     1    1
     4     1    37    1
     5    37    38    1
     6    38    39   ar
     7    39    48    1
     8    48    49    2
     9    48    50    1
    10    39    40   ar
    11    40    41   ar
    12    41    42   ar
    13    42    43   ar
    14    43    44   ar
    15    44    45   ar
    16    45    46   ar
    17     1    27    1
    18    27    28    2
    19    27    29   am
    20    29    31    1
    21    31    32   ar
    22    32    33   ar
    23    33    34   ar
    24    34    35   ar
    25    35    36   ar
    26     3     6    1
    27     6     7   ar
    28     7     8   ar
    29     8     9   ar
    30     9    13    1
    31    13    14    1
    32    14    15    1
    33    15    16    1
    34    16    19    1
    35    19    20   ar
    36    20    21   ar
    37    21    22   ar
    38    22    23    1
    39    22    24   ar
    40    24    25    1
    41    24    26   ar
    42    16    17    1
    43    17    18    1
    44     9    10   ar
    45    10    11   ar
    46    11    12    1
    47    46    38   ar
    48    36    31   ar
    49    11     6   ar
    50    46    41   ar
    51    18    13    1
    52    26    19   ar
    53     4     5    1
    54    50    51    1
    55    40    47    1
    56    29    30    1
@<TRIPOS>MOLECULE
*****
 51 56 0 0 0
SMALL
GASTEIGER

@<TRIPOS>ATOM
      1 C          60.6082   80.3779    9.6067 C.3     1  UNL1        0.1535
      2 O          59.5919   81.4054    7.1330 O.2     1  UNL1       -0.2701
      3 C          60.0411   82.2380    7.9671 C.2     1  UNL1        0.2483
      4 N          60.6993   81.7732    9.1567 N.am    1  UNL1       -0.2945
      5 H          61.2851   82.4538    9.6909 H       1  UNL1        0.1501
      6 C          59.9130   83.6857    7.6856 C.ar    1  UNL1        0.0808
      7 C          58.6500   84.2969    7.7541 C.ar    1  UNL1        0.0080
      8 C          58.5050   85.6611    7.4895 C.ar    1  UNL1        0.0148
      9 C          59.6227   86.4454    7.1673 C.ar    1  UNL1        0.0502
     10 C          60.8879   85.8397    7.1094 C.ar    1  UNL1        0.0443
     11 C          61.0370   84.4742    7.3712 C.ar    1  UNL1        0.1457
     12 F          62.2849   83.9408    7.3587 F       1  UNL1       -0.2040
     13 N          59.4718   87.8493    6.8828 N.pl3   1  UNL1       -0.3040
     14 C          58.3722   88.2996    6.0136 C.3     1  UNL1        0.1122
     15 C          58.5299   89.7761    5.6326 C.3     1  UNL1        0.1122
     16 N          59.9332   90.0548    5.2952 N.pl3   1  UNL1       -0.3040
     17 C          60.9997   89.6581    6.2295 C.3     1  UNL1        0.1122
     18 C          60.4443   88.8270    7.3918 C.3     1  UNL1        0.1122
     19 C          60.2815   90.6451    4.0282 C.ar    1  UNL1        0.0488
     20 C          59.2802   91.1260    3.1686 C.ar    1  UNL1        0.0154
     21 C          59.6174   91.6856    1.9337 C.ar    1  UNL1        0.0135
     22 C          60.9563   91.7693    1.5386 C.ar    1  UNL1        0.0683
     23 CL         61.3412   92.4797   -0.0232 Cl      1  UNL1       -0.0814
     24 C          61.9651   91.2855    2.3882 C.ar    1  UNL1        0.0694
     25 CL         63.6608   91.3715    1.9300 Cl      1  UNL1       -0.0813
     26 C          61.6250   90.7243    3.6248 C.ar    1  UNL1        0.0268
     27 C          61.4312   80.1600   10.8580 C.2     1  UNL1        0.2443
     28 O          62.0251   79.0617   11.0354 O.2     1  UNL1       -0.2730
     29 N          61.5582   81.2228   11.8192 N.am    1  UNL1       -0.2825
     30 H          60.8709   82.0082   11.7629 H       1  UNL1        0.1549
     31 C          62.5289   81.2676   12.8816 C.ar    1  UNL1        0.0535
     32 C          62.3283   80.4785   14.0233 C.ar    1  UNL1        0.0353
     33 C          63.2394   80.5415   15.0800 C.ar    1  UNL1        0.1002
     34 N          64.3084   81.3771   15.0094 N.ar    1  UNL1       -0.2422
     35 C          64.5225   82.1674   13.9249 C.ar    1  UNL1        0.1002
     36 C          63.6377   82.1322   12.8446 C.ar    1  UNL1        0.0353
     37 C          59.1335   79.9988    9.8467 C.3     1  UNL1        0.0570
     38 C          58.6280   80.5108   11.1736 C.ar    1  UNL1        0.0033
     39 CA         58.5397   79.8250   12.3952 C.ar    1  UNL1        0.1292
     40 N          58.1788   80.6746   13.3874 N.ar    1  UNL1       -0.3483
     41 C          58.0441   81.8822   12.8170 C.ar    1  UNL1        0.0564
     42 C          57.7148   83.0795   13.4513 C.ar    1  UNL1        0.0170
     43 C          57.6551   84.2451   12.6672 C.ar    1  UNL1        0.0015
     44 C          57.9232   84.1889   11.2827 C.ar    1  UNL1        0.0001
     45 C          58.2553   82.9672   10.6702 C.ar    1  UNL1        0.0012
     46 C          58.3075   81.8251   11.4727 C.ar    1  UNL1        0.0133
     47 H          58.0456   80.4451   14.3978 H       1  UNL1        0.1661
     48 C          58.8040   78.3934   12.6356 C.2     1  UNL1        0.3536
     49 O          59.4244   78.0398   13.6738 O.2     1  UNL1       -0.2435
     50 OXT        58.3659   77.4241   11.7407 O.3     1  UNL1       -0.4761
     51 HXT        58.5459   76.4414   11.9077 H       1  UNL1        0.2955
@<TRIPOS>BOND
     1     2     3    2
     2     3     4   am
     3     4     1    1
     4     1    37    1
     5    37    38    1
     6    38    39   ar
     7    39    48    1
     8    48    49    2
     9    48    50    1
    10    39    40   ar
    11    40    41   ar
    12    41    42   ar
    13    42    43   ar
    14    43    44   ar
    15    44    45   ar
    16    45    46   ar
    17     1    27    1
    18    27    28    2
    19    27    29   am
    20    29    31    1
    21    31    32   ar
    22    32    33   ar
    23    33    34   ar
    24    34    35   ar
    25    35    36   ar
    26     3     6    1
    27     6     7   ar
    28     7     8   ar
    29     8     9   ar
    30     9    13    1
    31    13    14    1
    32    14    15    1
    33    15    16    1
    34    16    19    1
    35    19    20   ar
    36    20    21   ar
    37    21    22   ar
    38    22    23    1
    39    22    24   ar
    40    24    25    1
    41    24    26   ar
    42    16    17    1
    43    17    18    1
    44     9    10   ar
    45    10    11   ar
    46    11    12    1
    47    46    38   ar
    48    36    31   ar
    49    11     6   ar
    50    46    41   ar
    51    18    13    1
    52    26    19   ar
    53     4     5    1
    54    50    51    1
    55    40    47    1
    56    29    30    1
@<TRIPOS>MOLECULE
*****
 51 56 0 0 0
SMALL
GASTEIGER

@<TRIPOS>ATOM
      1 C          60.7925   81.2536    9.1993 C.3     1  UNL1        0.1535
      2 O          59.6064   83.6747    8.2298 O.2     1  UNL1       -0.2701
      3 C          60.6671   83.7770    8.9044 C.2     1  UNL1        0.2483
      4 N          61.3869   82.5940    9.2877 N.am    1  UNL1       -0.2945
      5 H          62.3759   82.7033    9.6066 H       1  UNL1        0.1501
      6 C          61.1722   85.1225    9.2595 C.ar    1  UNL1        0.0808
      7 C          61.8802   85.3036   10.4594 C.ar    1  UNL1        0.0080
      8 C          62.3635   86.5650   10.8163 C.ar    1  UNL1        0.0148
      9 C          62.1633   87.6677    9.9724 C.ar    1  UNL1        0.0502
     10 C          61.4663   87.4875    8.7672 C.ar    1  UNL1        0.0443
     11 C          60.9789   86.2272    8.4074 C.ar    1  UNL1        0.1457
     12 F          60.3594   86.0861    7.2081 F       1  UNL1       -0.2040
     13 N          62.6511   88.9705   10.3456 N.pl3   1  UNL1       -0.3040
     14 C          63.8052   89.5446    9.6344 C.3     1  UNL1        0.1122
     15 C          64.3224   90.8062   10.3352 C.3     1  UNL1        0.1122
     16 N          64.3517   90.5902   11.7888 N.pl3   1  UNL1       -0.3040
     17 C          63.1495   90.0886   12.4751 C.3     1  UNL1        0.1122
     18 C          62.0553   89.7001   11.4741 C.3     1  UNL1        0.1122
     19 C          65.5650   90.7936   12.5382 C.ar    1  UNL1        0.0488
     20 C          66.8134   90.7470   11.8962 C.ar    1  UNL1        0.0154
     21 C          67.9907   90.9302   12.6256 C.ar    1  UNL1        0.0135
     22 C          67.9386   91.1583   14.0044 C.ar    1  UNL1        0.0683
     23 CL         69.4420   91.3837   14.8883 Cl      1  UNL1       -0.0814
     24 C          66.6955   91.2004   14.6573 C.ar    1  UNL1        0.0694
     25 CL         66.5853   91.4844   16.3893 Cl      1  UNL1       -0.0813
     26 C          65.5170   91.0156   13.9246 C.ar    1  UNL1        0.0268
     27 C          61.2225   80.3948   10.3688 C.2     1  UNL1        0.2443
     28 O          61.5098   79.1808   10.1840 O.2     1  UNL1       -0.2730
     29 N          61.3344   80.9809   11.6778 N.am    1  UNL1       -0.2825
     30 H          60.8632   81.9003   11.8361 H       1  UNL1        0.1549
     31 C          62.0056   80.3792   12.8005 C.ar    1  UNL1        0.0535
     32 C          61.3579   79.3640   13.5191 C.ar    1  UNL1        0.0353
     33 C          61.9786   78.7988   14.6353 C.ar    1  UNL1        0.1002
     34 N          63.1994   79.2423   15.0340 N.ar    1  UNL1       -0.2422
     35 C          63.8464   80.2359   14.3701 C.ar    1  UNL1        0.1002
     36 C          63.2626   80.8257   13.2465 C.ar    1  UNL1        0.0353
     37 C          59.2563   81.3638    9.1346 C.3     1  UNL1        0.0570
     38 C          58.6361   81.4163   10.5097 C.ar    1  UNL1        0.0033
     39 CA         58.2698   80.3462   11.3412 C.ar    1  UNL1        0.1292
     40 N          57.8889   80.8045   12.5583 N.ar    1  UNL1       -0.3483
     41 C          58.0136   82.1403   12.5124 C.ar    1  UNL1        0.0564
     42 C          57.7664   83.0437   13.5453 C.ar    1  UNL1        0.0170
     43 C          57.9905   84.4087   13.2938 C.ar    1  UNL1        0.0015
     44 C          58.4517   84.8356   12.0300 C.ar    1  UNL1        0.0001
     45 C          58.6950   83.9012   11.0073 C.ar    1  UNL1        0.0012
     46 C          58.4641   82.5518   11.2847 C.ar    1  UNL1        0.0133
     47 H          57.5750   80.2364   13.3769 H       1  UNL1        0.1661
     48 C          58.2894   78.9093   11.0067 C.2     1  UNL1        0.3536
     49 O          57.3356   78.4085   10.3529 O.2     1  UNL1       -0.2435
     50 OXT        59.3525   78.0994   11.3890 O.3     1  UNL1       -0.4761
     51 HXT        59.3660   77.1134   11.1569 H       1  UNL1        0.2955
@<TRIPOS>BOND
     1     2     3    2
     2     3     4   am
     3     4     1    1
     4     1    37    1
     5    37    38    1
     6    38    39   ar
     7    39    48    1
     8    48    49    2
     9    48    50    1
    10    39    40   ar
    11    40    41   ar
    12    41    42   ar
    13    42    43   ar
    14    43    44   ar
    15    44    45   ar
    16    45    46   ar
    17     1    27    1
    18    27    28    2
    19    27    29   am
    20    29    31    1
    21    31    32   ar
    22    32    33   ar
    23    33    34   ar
    24    34    35   ar
    25    35    36   ar
    26     3     6    1
    27     6     7   ar
    28     7     8   ar
    29     8     9   ar
    30     9    13    1
    31    13    14    1
    32    14    15    1
    33    15    16    1
    34    16    19    1
    35    19    20   ar
    36    20    21   ar
    37    21    22   ar
    38    22    23    1
    39    22    24   ar
    40    24    25    1
    41    24    26   ar
    42    16    17    1
    43    17    18    1
    44     9    10   ar
    45    10    11   ar
    46    11    12    1
    47    46    38   ar
    48    36    31   ar
    49    11     6   ar
    50    46    41   ar
    51    18    13    1
    52    26    19   ar
    53     4     5    1
    54    50    51    1
    55    40    47    1
    56    29    30    1
@<TRIPOS>MOLECULE
*****
 51 56 0 0 0
SMALL
GASTEIGER

@<TRIPOS>ATOM
      1 C          60.2275   83.2410   11.3261 C.3     1  UNL1        0.1535
      2 O          60.8264   83.5278    8.5392 O.2     1  UNL1       -0.2701
      3 C          60.3974   84.5451    9.1489 C.2     1  UNL1        0.2483
      4 N          60.2237   84.5031   10.5745 N.am    1  UNL1       -0.2945
      5 H          60.1256   85.4102   11.0837 H       1  UNL1        0.1501
      6 C          60.1138   85.7809    8.3848 C.ar    1  UNL1        0.0808
      7 C          58.9330   85.8743    7.6295 C.ar    1  UNL1        0.0080
      8 C          58.6461   87.0298    6.8982 C.ar    1  UNL1        0.0148
      9 C          59.5264   88.1220    6.9208 C.ar    1  UNL1        0.0502
     10 C          60.7016   88.0361    7.6839 C.ar    1  UNL1        0.0443
     11 C          60.9935   86.8806    8.4153 C.ar    1  UNL1        0.1457
     12 F          62.1123   86.8608    9.1834 F       1  UNL1       -0.2040
     13 N          59.2368   89.3087    6.1576 N.pl3   1  UNL1       -0.3040
     14 C          58.1365   89.2921    5.1795 C.3     1  UNL1        0.1122
     15 C          58.1500   90.5491    4.3020 C.3     1  UNL1        0.1122
     16 N          59.5287   90.8560    3.8952 N.pl3   1  UNL1       -0.3040
     17 C          60.5872   90.9413    4.9151 C.3     1  UNL1        0.1122
     18 C          60.0720   90.5106    6.2932 C.3     1  UNL1        0.1122
     19 C          59.8695   91.0018    2.5033 C.ar    1  UNL1        0.0488
     20 C          61.2112   90.9508    2.0906 C.ar    1  UNL1        0.0154
     21 C          61.5426   91.1063    0.7425 C.ar    1  UNL1        0.0135
     22 C          60.5414   91.3185   -0.2107 C.ar    1  UNL1        0.0683
     23 CL         60.9979   91.5103   -1.8980 Cl      1  UNL1       -0.0814
     24 C          59.1970   91.3776    0.1923 C.ar    1  UNL1        0.0694
     25 CL         57.9073   91.6426   -0.9735 Cl      1  UNL1       -0.0813
     26 C          58.8671   91.2224    1.5440 C.ar    1  UNL1        0.0268
     27 C          61.1232   83.3401   12.5420 C.2     1  UNL1        0.2443
     28 O          60.9968   82.5111   13.4839 O.2     1  UNL1       -0.2730
     29 N          62.1368   84.3593   12.5968 N.am    1  UNL1       -0.2825
     30 H          62.0519   85.1599   11.9303 H       1  UNL1        0.1549
     31 C          63.2343   84.3873   13.5285 C.ar    1  UNL1        0.0535
     32 C          63.4134   85.5179   14.3384 C.ar    1  UNL1        0.0353
     33 C          64.4968   85.5776   15.2179 C.ar    1  UNL1        0.1002
     34 N          65.3841   84.5504   15.2772 N.ar    1  UNL1       -0.2422
     35 C          65.2489   83.4483   14.4939 C.ar    1  UNL1        0.1002
     36 C          64.1775   83.3466   13.6034 C.ar    1  UNL1        0.0353
     37 C          58.7882   82.8683   11.7334 C.3     1  UNL1        0.0570
     38 C          58.3717   81.5303   11.1722 C.ar    1  UNL1        0.0033
     39 CA         57.9741   81.2212    9.8619 C.ar    1  UNL1        0.1292
     40 N          57.8281   79.8817    9.7176 N.ar    1  UNL1       -0.3483
     41 C          58.1314   79.3406   10.9081 C.ar    1  UNL1        0.0564
     42 C          58.1542   77.9851   11.2341 C.ar    1  UNL1        0.0170
     43 C          58.5315   77.6286   12.5408 C.ar    1  UNL1        0.0015
     44 C          58.8741   78.6233   13.4816 C.ar    1  UNL1        0.0001
     45 C          58.8446   79.9831   13.1238 C.ar    1  UNL1        0.0012
     46 C          58.4662   80.3088   11.8192 C.ar    1  UNL1        0.0133
     47 H          57.5505   79.3664    8.8523 H       1  UNL1        0.1661
     48 C          57.7471   82.1666    8.7521 C.2     1  UNL1        0.3536
     49 O          56.8269   83.0228    8.8411 O.2     1  UNL1       -0.2435
     50 OXT        58.5431   82.1381    7.6128 O.3     1  UNL1       -0.4761
     51 HXT        58.3878   82.7890    6.8524 H       1  UNL1        0.2955
@<TRIPOS>BOND
     1     2     3    2
     2     3     4   am
     3     4     1    1
     4     1    37    1
     5    37    38    1
     6    38    39   ar
     7    39    48    1
     8    48    49    2
     9    48    50    1
    10    39    40   ar
    11    40    41   ar
    12    41    42   ar
    13    42    43   ar
    14    43    44   ar
    15    44    45   ar
    16    45    46   ar
    17     1    27    1
    18    27    28    2
    19    27    29   am
    20    29    31    1
    21    31    32   ar
    22    32    33   ar
    23    33    34   ar
    24    34    35   ar
    25    35    36   ar
    26     3     6    1
    27     6     7   ar
    28     7     8   ar
    29     8     9   ar
    30     9    13    1
    31    13    14    1
    32    14    15    1
    33    15    16    1
    34    16    19    1
    35    19    20   ar
    36    20    21   ar
    37    21    22   ar
    38    22    23    1
    39    22    24   ar
    40    24    25    1
    41    24    26   ar
    42    16    17    1
    43    17    18    1
    44     9    10   ar
    45    10    11   ar
    46    11    12    1
    47    46    38   ar
    48    36    31   ar
    49    11     6   ar
    50    46    41   ar
    51    18    13    1
    52    26    19   ar
    53     4     5    1
    54    50    51    1
    55    40    47    1
    56    29    30    1
@<TRIPOS>MOLECULE
*****
 51 56 0 0 0
SMALL
GASTEIGER

@<TRIPOS>ATOM
      1 C          64.3844   89.5275   14.9353 C.3     1  UNL1        0.1535
      2 O          63.2435   87.4296   16.5180 O.2     1  UNL1       -0.2701
      3 C          63.4548   87.1879   15.2983 C.2     1  UNL1        0.2483
      4 N          64.1611   88.1449   14.4923 N.am    1  UNL1       -0.2945
      5 H          64.5515   87.8232   13.5780 H       1  UNL1        0.1501
      6 C          63.0004   85.9004   14.7261 C.ar    1  UNL1        0.0808
      7 C          63.9442   84.9070   14.4163 C.ar    1  UNL1        0.0080
      8 C          63.5385   83.6855   13.8728 C.ar    1  UNL1        0.0148
      9 C          62.1789   83.4260   13.6437 C.ar    1  UNL1        0.0502
     10 C          61.2323   84.4124   13.9631 C.ar    1  UNL1        0.0443
     11 C          61.6344   85.6371   14.5050 C.ar    1  UNL1        0.1457
     12 F          60.6826   86.5406   14.8508 F       1  UNL1       -0.2040
     13 N          61.7614   82.1715   13.0724 N.pl3   1  UNL1       -0.3040
     14 C          62.4985   81.6149   11.9259 C.3     1  UNL1        0.1122
     15 C          61.7581   80.4213   11.3117 C.3     1  UNL1        0.1122
     16 N          60.3216   80.7199   11.2238 N.pl3   1  UNL1       -0.3040
     17 C          59.6031   81.2003   12.4157 C.3     1  UNL1        0.1122
     18 C          60.5666   81.4785   13.5752 C.3     1  UNL1        0.1122
     19 C          59.6250   80.6180    9.9670 C.ar    1  UNL1        0.0488
     20 C          58.4311   79.8839    9.8733 C.ar    1  UNL1        0.0154
     21 C          57.7633   79.7734    8.6513 C.ar    1  UNL1        0.0135
     22 C          58.2789   80.3899    7.5067 C.ar    1  UNL1        0.0683
     23 CL         57.4099   80.2277    5.9866 Cl      1  UNL1       -0.0814
     24 C          59.4755   81.1211    7.5882 C.ar    1  UNL1        0.0694
     25 CL         60.1582   81.9116    6.1735 Cl      1  UNL1       -0.0813
     26 C          60.1437   81.2298    8.8136 C.ar    1  UNL1        0.0268
     27 C          65.8637   89.8399   15.0029 C.2     1  UNL1        0.2443
     28 O          66.7036   88.9922   14.5950 O.2     1  UNL1       -0.2730
     29 N          66.2982   91.1180   15.5000 N.am    1  UNL1       -0.2825
     30 H          65.6083   91.6830   16.0453 H       1  UNL1        0.1549
     31 C          67.6228   91.6607   15.3450 C.ar    1  UNL1        0.0535
     32 C          68.5468   90.9849   14.5352 C.ar    1  UNL1        0.0353
     33 C          69.8480   91.4763   14.4073 C.ar    1  UNL1        0.1002
     34 N          70.2226   92.5967   15.0784 N.ar    1  UNL1       -0.2422
     35 C          69.3568   93.2653   15.8845 C.ar    1  UNL1        0.1002
     36 C          68.0451   92.8099   16.0373 C.ar    1  UNL1        0.0353
     37 C          63.6595   90.5054   13.9895 C.3     1  UNL1        0.0570
     38 C          63.8265   90.1171   12.5404 C.ar    1  UNL1        0.0033
     39 CA         64.8672   90.4576   11.6620 C.ar    1  UNL1        0.1292
     40 N          64.7333   89.7883   10.4913 N.ar    1  UNL1       -0.3483
     41 C          63.6335   89.0288   10.6167 C.ar    1  UNL1        0.0564
     42 C          63.1136   88.1405    9.6761 C.ar    1  UNL1        0.0170
     43 C          61.9600   87.4153   10.0228 C.ar    1  UNL1        0.0015
     44 C          61.3588   87.5918   11.2874 C.ar    1  UNL1        0.0001
     45 C          61.9068   88.4933   12.2174 C.ar    1  UNL1        0.0012
     46 C          63.0531   89.2005   11.8468 C.ar    1  UNL1        0.0133
     47 H          65.3643   89.8375    9.6602 H       1  UNL1        0.1661
     48 C          65.9833   91.3878   11.9192 C.2     1  UNL1        0.3536
     49 O          67.0790   91.2280   11.3179 O.2     1  UNL1       -0.2435
     50 OXT        65.8411   92.4492   12.8055 O.3     1  UNL1       -0.4761
     51 HXT        66.6072   93.0886   12.9798 H       1  UNL1        0.2955
@<TRIPOS>BOND
     1     2     3    2
     2     3     4   am
     3     4     1    1
     4     1    37    1
     5    37    38    1
     6    38    39   ar
     7    39    48    1
     8    48    49    2
     9    48    50    1
    10    39    40   ar
    11    40    41   ar
    12    41    42   ar
    13    42    43   ar
    14    43    44   ar
    15    44    45   ar
    16    45    46   ar
    17     1    27    1
    18    27    28    2
    19    27    29   am
    20    29    31    1
    21    31    32   ar
    22    32    33   ar
    23    33    34   ar
    24    34    35   ar
    25    35    36   ar
    26     3     6    1
    27     6     7   ar
    28     7     8   ar
    29     8     9   ar
    30     9    13    1
    31    13    14    1
    32    14    15    1
    33    15    16    1
    34    16    19    1
    35    19    20   ar
    36    20    21   ar
    37    21    22   ar
    38    22    23    1
    39    22    24   ar
    40    24    25    1
    41    24    26   ar
    42    16    17    1
    43    17    18    1
    44     9    10   ar
    45    10    11   ar
    46    11    12    1
    47    46    38   ar
    48    36    31   ar
    49    11     6   ar
    50    46    41   ar
    51    18    13    1
    52    26    19   ar
    53     4     5    1
    54    50    51    1
    55    40    47    1
    56    29    30    1
@<TRIPOS>MOLECULE
*****
 51 56 0 0 0
SMALL
GASTEIGER

@<TRIPOS>ATOM
      1 C          59.9606   83.7064   11.5296 C.3     1  UNL1        0.1535
      2 O          61.3736   84.3252    9.1153 O.2     1  UNL1       -0.2701
      3 C          60.4595   85.1173    9.4727 C.2     1  UNL1        0.2483
      4 N          59.8205   84.9420   10.7476 N.am    1  UNL1       -0.2945
      5 H          59.2682   85.7407   11.1334 H       1  UNL1        0.1501
      6 C          60.0854   86.2398    8.5830 C.ar    1  UNL1        0.0808
      7 C          58.9659   86.1164    7.7434 C.ar    1  UNL1        0.0080
      8 C          58.5960   87.1617    6.8933 C.ar    1  UNL1        0.0148
      9 C          59.3284   88.3582    6.8777 C.ar    1  UNL1        0.0502
     10 C          60.4409   88.4888    7.7240 C.ar    1  UNL1        0.0443
     11 C          60.8158   87.4442    8.5746 C.ar    1  UNL1        0.1457
     12 F          61.8638   87.6331    9.4160 F       1  UNL1       -0.2040
     13 N          58.9545   89.4314    5.9929 N.pl3   1  UNL1       -0.3040
     14 C          58.0885   89.1500    4.8360 C.3     1  UNL1        0.1122
     15 C          58.0130   90.3530    3.8887 C.3     1  UNL1        0.1122
     16 N          59.3521   90.9343    3.7167 N.pl3   1  UNL1       -0.3040
     17 C          60.1560   91.2752    4.9021 C.3     1  UNL1        0.1122
     18 C          59.4856   90.7876    6.1916 C.3     1  UNL1        0.1122
     19 C          59.9158   91.1061    2.4023 C.ar    1  UNL1        0.0488
     20 C          61.3078   91.1801    2.2297 C.ar    1  UNL1        0.0154
     21 C          61.8537   91.3609    0.9566 C.ar    1  UNL1        0.0135
     22 C          61.0191   91.4742   -0.1599 C.ar    1  UNL1        0.0683
     23 CL         61.7435   91.7015   -1.7459 Cl      1  UNL1       -0.0814
     24 C          59.6253   91.4080    0.0025 C.ar    1  UNL1        0.0694
     25 CL         58.5402   91.5459   -1.3744 Cl      1  UNL1       -0.0813
     26 C          59.0803   91.2276    1.2794 C.ar    1  UNL1        0.0268
     27 C          60.7983   83.9437   12.7675 C.2     1  UNL1        0.2443
     28 O          61.6929   83.1148   13.0883 O.2     1  UNL1       -0.2730
     29 N          60.5903   85.1333   13.5491 N.am    1  UNL1       -0.2825
     30 H          59.6994   85.6589   13.3992 H       1  UNL1        0.1549
     31 C          61.4919   85.6322   14.5547 C.ar    1  UNL1        0.0535
     32 C          62.7414   86.1338   14.1629 C.ar    1  UNL1        0.0353
     33 C          63.6434   86.5836   15.1298 C.ar    1  UNL1        0.1002
     34 N          63.3181   86.5204   16.4474 N.ar    1  UNL1       -0.2422
     35 C          62.1227   86.0243   16.8614 C.ar    1  UNL1        0.1002
     36 C          61.1903   85.5674   15.9270 C.ar    1  UNL1        0.0353
     37 C          58.5682   83.1620   11.9050 C.3     1  UNL1        0.0570
     38 C          58.2826   81.8370   11.2407 C.ar    1  UNL1        0.0033
     39 CA         58.0108   81.5820    9.8873 C.ar    1  UNL1        0.1292
     40 N          57.9612   80.2469    9.6603 N.ar    1  UNL1       -0.3483
     41 C          58.2023   79.6560   10.8413 C.ar    1  UNL1        0.0564
     42 C          58.2842   78.2875   11.0955 C.ar    1  UNL1        0.0170
     43 C          58.5780   77.8782   12.4081 C.ar    1  UNL1        0.0015
     44 C          58.7814   78.8347   13.4258 C.ar    1  UNL1        0.0001
     45 C          58.6950   80.2090   13.1396 C.ar    1  UNL1        0.0012
     46 C          58.4019   80.5875   11.8273 C.ar    1  UNL1        0.0133
     47 H          57.7863   79.7675    8.7488 H       1  UNL1        0.1661
     48 C          57.8138   82.5755    8.8144 C.2     1  UNL1        0.3536
     49 O          56.7934   83.3147    8.8292 O.2     1  UNL1       -0.2435
     50 OXT        58.7451   82.7203    7.7926 O.3     1  UNL1       -0.4761
     51 HXT        58.6100   83.4042    7.0577 H       1  UNL1        0.2955
@<TRIPOS>BOND
     1     2     3    2
     2     3     4   am
     3     4     1    1
     4     1    37    1
     5    37    38    1
     6    38    39   ar
     7    39    48    1
     8    48    49    2
     9    48    50    1
    10    39    40   ar
    11    40    41   ar
    12    41    42   ar
    13    42    43   ar
    14    43    44   ar
    15    44    45   ar
    16    45    46   ar
    17     1    27    1
    18    27    28    2
    19    27    29   am
    20    29    31    1
    21    31    32   ar
    22    32    33   ar
    23    33    34   ar
    24    34    35   ar
    25    35    36   ar
    26     3     6    1
    27     6     7   ar
    28     7     8   ar
    29     8     9   ar
    30     9    13    1
    31    13    14    1
    32    14    15    1
    33    15    16    1
    34    16    19    1
    35    19    20   ar
    36    20    21   ar
    37    21    22   ar
    38    22    23    1
    39    22    24   ar
    40    24    25    1
    41    24    26   ar
    42    16    17    1
    43    17    18    1
    44     9    10   ar
    45    10    11   ar
    46    11    12    1
    47    46    38   ar
    48    36    31   ar
    49    11     6   ar
    50    46    41   ar
    51    18    13    1
    52    26    19   ar
    53     4     5    1
    54    50    51    1
    55    40    47    1
    56    29    30    1
@<TRIPOS>MOLECULE
*****
 51 56 0 0 0
SMALL
GASTEIGER

@<TRIPOS>ATOM
      1 C          61.5027   80.9425   10.6754 C.3     1  UNL1        0.1535
      2 O          60.5958   81.5438    8.0251 O.2     1  UNL1       -0.2701
      3 C          60.8346   82.5162    8.7921 C.2     1  UNL1        0.2483
      4 N          61.4332   82.2822   10.0771 N.am    1  UNL1       -0.2945
      5 H          61.8582   83.0961   10.5757 H       1  UNL1        0.1501
      6 C          60.5252   83.8903    8.3366 C.ar    1  UNL1        0.0808
      7 C          59.1930   84.2513    8.0750 C.ar    1  UNL1        0.0080
      8 C          58.8779   85.5416    7.6414 C.ar    1  UNL1        0.0148
      9 C          59.8869   86.5023    7.4767 C.ar    1  UNL1        0.0502
     10 C          61.2179   86.1479    7.7484 C.ar    1  UNL1        0.0443
     11 C          61.5378   84.8570    8.1803 C.ar    1  UNL1        0.1457
     12 F          62.8294   84.5730    8.4850 F       1  UNL1       -0.2040
     13 N          59.5638   87.8289    7.0183 N.pl3   1  UNL1       -0.3040
     14 C          58.5688   88.0047    5.9476 C.3     1  UNL1        0.1122
     15 C          58.5505   89.4487    5.4332 C.3     1  UNL1        0.1122
     16 N          59.9278   89.9401    5.2839 N.pl3   1  UNL1       -0.3040
     17 C          60.8712   89.8166    6.4075 C.3     1  UNL1        0.1122
     18 C          60.2679   89.0014    7.5571 C.3     1  UNL1        0.1122
     19 C          60.3858   90.4741    4.0268 C.ar    1  UNL1        0.0488
     20 C          61.7554   90.4848    3.7156 C.ar    1  UNL1        0.0154
     21 C          62.2006   91.0156    2.5025 C.ar    1  UNL1        0.0135
     22 C          61.2867   91.5459    1.5862 C.ar    1  UNL1        0.0683
     23 CL         61.8854   92.2055    0.0701 Cl      1  UNL1       -0.0814
     24 C          59.9153   91.5459    1.8904 C.ar    1  UNL1        0.0694
     25 CL         58.7328   92.2027    0.7667 Cl      1  UNL1       -0.0813
     26 C          59.4714   91.0143    3.1071 C.ar    1  UNL1        0.0268
     27 C          62.6227   80.8624   11.6901 C.2     1  UNL1        0.2443
     28 O          63.8166   81.0343   11.3222 O.2     1  UNL1       -0.2730
     29 N          62.3118   80.6257   13.0746 N.am    1  UNL1       -0.2825
     30 H          61.3617   80.2516   13.2981 H       1  UNL1        0.1549
     31 C          63.2218   80.8203   14.1733 C.ar    1  UNL1        0.0535
     32 C          63.2955   79.8460   15.1791 C.ar    1  UNL1        0.0353
     33 C          64.1432   80.0393   16.2723 C.ar    1  UNL1        0.1002
     34 N          64.8822   81.1753   16.3694 N.ar    1  UNL1       -0.2422
     35 C          64.8211   82.1463   15.4208 C.ar    1  UNL1        0.1002
     36 C          63.9890   81.9912   14.3096 C.ar    1  UNL1        0.0353
     37 C          60.1497   80.5853   11.3217 C.3     1  UNL1        0.0570
     38 C          59.1334   81.6879   11.1490 C.ar    1  UNL1        0.0033
     39 CA         58.0419   81.7361   10.2675 C.ar    1  UNL1        0.1292
     40 N          57.2781   82.8260   10.5227 N.ar    1  UNL1       -0.3483
     41 C          57.8625   83.4617   11.5505 C.ar    1  UNL1        0.0564
     42 C          57.4170   84.6206   12.1849 C.ar    1  UNL1        0.0170
     43 C          58.1678   85.1075   13.2695 C.ar    1  UNL1        0.0015
     44 C          59.3334   84.4328   13.6912 C.ar    1  UNL1        0.0001
     45 C          59.7577   83.2641   13.0337 C.ar    1  UNL1        0.0012
     46 C          58.9930   82.8027   11.9596 C.ar    1  UNL1        0.0133
     47 H          56.4012   83.1113   10.0319 H       1  UNL1        0.1661
     48 C          57.7082   80.7658    9.2072 C.2     1  UNL1        0.3536
     49 O          57.4850   79.5633    9.5105 O.2     1  UNL1       -0.2435
     50 OXT        57.6212   81.1602    7.8771 O.3     1  UNL1       -0.4761
     51 HXT        57.3899   80.4938    7.1501 H       1  UNL1        0.2955
@<TRIPOS>BOND
     1     2     3    2
     2     3     4   am
     3     4     1    1
     4     1    37    1
     5    37    38    1
     6    38    39   ar
     7    39    48    1
     8    48    49    2
     9    48    50    1
    10    39    40   ar
    11    40    41   ar
    12    41    42   ar
    13    42    43   ar
    14    43    44   ar
    15    44    45   ar
    16    45    46   ar
    17     1    27    1
    18    27    28    2
    19    27    29   am
    20    29    31    1
    21    31    32   ar
    22    32    33   ar
    23    33    34   ar
    24    34    35   ar
    25    35    36   ar
    26     3     6    1
    27     6     7   ar
    28     7     8   ar
    29     8     9   ar
    30     9    13    1
    31    13    14    1
    32    14    15    1
    33    15    16    1
    34    16    19    1
    35    19    20   ar
    36    20    21   ar
    37    21    22   ar
    38    22    23    1
    39    22    24   ar
    40    24    25    1
    41    24    26   ar
    42    16    17    1
    43    17    18    1
    44     9    10   ar
    45    10    11   ar
    46    11    12    1
    47    46    38   ar
    48    36    31   ar
    49    11     6   ar
    50    46    41   ar
    51    18    13    1
    52    26    19   ar
    53     4     5    1
    54    50    51    1
    55    40    47    1
    56    29    30    1
