@<TRIPOS>MOLECULE
*****
 47 52 0 0 0
SMALL
GASTEIGER

@<TRIPOS>ATOM
      1 C          -7.5957  -13.9987   27.7941 C.ar    1  UNL1        0.0702
      2 C          -7.0644  -12.9589   28.5721 C.ar    1  UNL1        0.0191
      3 C          -7.8584  -12.3197   29.5259 C.ar    1  UNL1        0.0356
      4 C          -9.1895  -12.7324   29.7152 C.ar    1  UNL1        0.1318
      5 N          -9.6723  -13.7577   28.9581 N.ar    1  UNL1       -0.2279
      6 C          -8.9186  -14.3935   28.0233 C.ar    1  UNL1        0.1149
      7 N         -10.0384  -12.1079   30.7065 N.pl3   1  UNL1       -0.2932
      8 C         -10.7755  -12.9214   31.6842 C.3     1  UNL1        0.0923
      9 C         -10.3289  -12.5613   33.1065 C.3     1  UNL1        0.0252
     10 C         -10.1757  -11.0286   33.3415 C.3     1  UNL1        0.0472
     11 C         -10.7291  -10.2015   32.1570 C.3     1  UNL1        0.0252
     12 C         -10.1087  -10.6408   30.8201 C.3     1  UNL1        0.0923
     13 C          -8.7198  -10.6211   33.6597 C.3     1  UNL1        0.2054
     14 O          -8.5207   -9.2210   33.4402 O.3     1  UNL1       -0.4755
     15 C          -7.8383   -8.6160   32.3689 C.ar    1  UNL1        0.1384
     16 C          -8.1480   -7.3323   31.8766 C.ar    1  UNL1        0.0433
     17 C          -7.4350   -6.7883   30.7944 C.ar    1  UNL1        0.0782
     18 C          -6.3841   -7.5274   30.2264 C.ar    1  UNL1        0.0024
     19 C          -6.0534   -8.8017   30.7137 C.ar    1  UNL1       -0.0193
     20 C          -6.7901   -9.3339   31.7856 C.ar    1  UNL1        0.0326
     21 C          -7.7620   -5.4419   30.2636 C.2     1  UNL1        0.3381
     22 O          -8.9061   -5.2191   29.7855 O.2     1  UNL1       -0.2451
     23 O          -6.8384   -4.3975   30.2925 O.3     1  UNL1       -0.4771
     24 H          -5.9427   -4.4759   30.7558 H       1  UNL1        0.2954
     25 C          -4.9188   -9.5857   30.0795 C.3     1  UNL1        0.0225
     26 C          -5.1438   -9.7625   28.5732 C.3     1  UNL1        0.0047
     27 C          -4.7274  -10.9404   30.7720 C.3     1  UNL1        0.0047
     28 C          -7.2135  -14.9374   25.4663 C.2     1  UNL1        0.2839
     29 O          -8.4149  -14.7619   25.1281 O.2     1  UNL1       -0.2665
     30 N          -6.8017  -14.7008   26.8224 N.am    1  UNL1       -0.2766
     31 H          -5.9080  -15.1356   27.1465 H       1  UNL1        0.1553
     32 C          -4.5295  -16.5825   26.0686 C.3     1  UNL1        0.0345
     33 C          -5.0610  -16.1456   24.7367 C.ar    1  UNL1        0.0202
     34 C          -6.2334  -15.4266   24.4782 C.ar    1  UNL1        0.1946
     35 O          -6.3664  -15.2313   23.1782 O.2     1  UNL1       -0.4492
     36 C          -5.3406  -15.7861   22.5804 C.ar    1  UNL1        0.1452
     37 C          -5.0772  -15.8217   21.2156 C.ar    1  UNL1        0.0375
     38 C          -3.9107  -16.4773   20.7853 C.ar    1  UNL1        0.0031
     39 C          -3.0291  -17.0842   21.7202 C.ar    1  UNL1        0.0002
     40 C          -3.3341  -17.0246   23.1013 C.ar    1  UNL1        0.0028
     41 C          -4.5003  -16.3654   23.4930 C.ar    1  UNL1        0.0337
     42 C          -1.7996  -17.7741   21.2538 C.ar    1  UNL1        0.0000
     43 C          -0.9177  -17.1384   20.3591 C.ar    1  UNL1        0.0000
     44 C           0.2394  -17.7904   19.9217 C.ar    1  UNL1        0.0000
     45 C           0.5296  -19.0803   20.3712 C.ar    1  UNL1        0.0000
     46 C          -0.3368  -19.7215   21.2591 C.ar    1  UNL1        0.0000
     47 C          -1.4958  -19.0747   21.6992 C.ar    1  UNL1        0.0000
@<TRIPOS>BOND
     1    32    33    1
     2    33    34   ar
     3    34    28    1
     4    28    29    2
     5    28    30   am
     6    30     1    1
     7     1     2   ar
     8     2     3   ar
     9     3     4   ar
    10     4     7    1
    11     7     8    1
    12     8     9    1
    13     9    10    1
    14    10    13    1
    15    13    14    1
    16    14    15    1
    17    15    16   ar
    18    16    17   ar
    19    17    21    1
    20    21    22    2
    21    21    23    1
    22    17    18   ar
    23    18    19   ar
    24    19    25    1
    25    25    26    1
    26    25    27    1
    27    19    20   ar
    28    10    11    1
    29    11    12    1
    30     4     5   ar
    31     5     6   ar
    32    34    35   ar
    33    35    36   ar
    34    36    37   ar
    35    37    38   ar
    36    38    39   ar
    37    39    42    1
    38    42    43   ar
    39    43    44   ar
    40    44    45   ar
    41    45    46   ar
    42    46    47   ar
    43    39    40   ar
    44    40    41   ar
    45    41    33   ar
    46     6     1   ar
    47    41    36   ar
    48    12     7    1
    49    47    42   ar
    50    20    15   ar
    51    30    31    1
    52    23    24    1
@<TRIPOS>MOLECULE
*****
 47 52 0 0 0
SMALL
GASTEIGER

@<TRIPOS>ATOM
      1 C          -7.6275  -13.9525   27.9106 C.ar    1  UNL1        0.0702
      2 C          -7.1535  -12.8954   28.7021 C.ar    1  UNL1        0.0191
      3 C          -7.9915  -12.2910   29.6408 C.ar    1  UNL1        0.0356
      4 C          -9.3091  -12.7560   29.8013 C.ar    1  UNL1        0.1318
      5 N          -9.7355  -13.7968   29.0316 N.ar    1  UNL1       -0.2279
      6 C          -8.9384  -14.3995   28.1112 C.ar    1  UNL1        0.1149
      7 N         -10.2021  -12.1686   30.7763 N.pl3   1  UNL1       -0.2932
      8 C         -11.1345  -13.0077   31.5427 C.3     1  UNL1        0.0923
      9 C         -10.8294  -12.8938   33.0414 C.3     1  UNL1        0.0252
     10 C         -10.5456  -11.4350   33.5096 C.3     1  UNL1        0.0472
     11 C         -10.8602  -10.3991   32.4046 C.3     1  UNL1        0.0252
     12 C         -10.1309  -10.7313   31.0919 C.3     1  UNL1        0.0923
     13 C          -9.1047  -11.2520   34.0362 C.3     1  UNL1        0.2054
     14 O          -8.6543   -9.9081   33.8381 O.3     1  UNL1       -0.4755
     15 C          -7.7088   -9.4570   32.8992 C.ar    1  UNL1        0.1384
     16 C          -6.7249  -10.2880   32.3269 C.ar    1  UNL1        0.0433
     17 C          -5.8007   -9.7725   31.4018 C.ar    1  UNL1        0.0782
     18 C          -5.8884   -8.4215   31.0272 C.ar    1  UNL1        0.0024
     19 C          -6.8710   -7.5833   31.5771 C.ar    1  UNL1       -0.0193
     20 C          -7.7745   -8.1149   32.5130 C.ar    1  UNL1        0.0326
     21 C          -4.7554  -10.6385   30.8029 C.2     1  UNL1        0.3381
     22 O          -4.2869  -11.6025   31.4651 O.2     1  UNL1       -0.2451
     23 O          -4.2808  -10.4279   29.5087 O.3     1  UNL1       -0.4771
     24 H          -4.6859   -9.7419   28.8855 H       1  UNL1        0.2954
     25 C          -6.9423   -6.1245   31.1634 C.3     1  UNL1        0.0225
     26 C          -8.3612   -5.7435   30.7247 C.3     1  UNL1        0.0047
     27 C          -5.9212   -5.8106   30.0634 C.3     1  UNL1        0.0047
     28 C          -7.2258  -15.0406   25.6521 C.2     1  UNL1        0.2839
     29 O          -8.4555  -15.0749   25.3776 O.2     1  UNL1       -0.2665
     30 N          -6.7866  -14.6197   26.9538 N.am    1  UNL1       -0.2766
     31 H          -5.8223  -14.8870   27.2561 H       1  UNL1        0.1553
     32 C          -4.5974  -16.7985   26.1759 C.3     1  UNL1        0.0345
     33 C          -5.0861  -16.2405   24.8731 C.ar    1  UNL1        0.0202
     34 C          -6.2343  -15.4726   24.6489 C.ar    1  UNL1        0.1946
     35 O          -6.3312  -15.1682   23.3669 O.2     1  UNL1       -0.4492
     36 C          -5.3048  -15.6987   22.7481 C.ar    1  UNL1        0.1452
     37 C          -5.0096  -15.6293   21.3911 C.ar    1  UNL1        0.0375
     38 C          -3.8491  -16.2775   20.9341 C.ar    1  UNL1        0.0031
     39 C          -3.0052  -16.9816   21.8351 C.ar    1  UNL1        0.0002
     40 C          -3.3419  -17.0272   23.2093 C.ar    1  UNL1        0.0028
     41 C          -4.5010  -16.3723   23.6282 C.ar    1  UNL1        0.0337
     42 C          -1.7818  -17.6627   21.3406 C.ar    1  UNL1        0.0000
     43 C          -1.4798  -18.9764   21.7475 C.ar    1  UNL1        0.0000
     44 C          -0.3272  -19.6153   21.2803 C.ar    1  UNL1        0.0000
     45 C           0.5347  -18.9533   20.4033 C.ar    1  UNL1        0.0000
     46 C           0.2462  -17.6504   19.9917 C.ar    1  UNL1        0.0000
     47 C          -0.9046  -17.0061   20.4565 C.ar    1  UNL1        0.0000
@<TRIPOS>BOND
     1    32    33    1
     2    33    34   ar
     3    34    28    1
     4    28    29    2
     5    28    30   am
     6    30     1    1
     7     1     2   ar
     8     2     3   ar
     9     3     4   ar
    10     4     7    1
    11     7     8    1
    12     8     9    1
    13     9    10    1
    14    10    13    1
    15    13    14    1
    16    14    15    1
    17    15    16   ar
    18    16    17   ar
    19    17    21    1
    20    21    22    2
    21    21    23    1
    22    17    18   ar
    23    18    19   ar
    24    19    25    1
    25    25    26    1
    26    25    27    1
    27    19    20   ar
    28    10    11    1
    29    11    12    1
    30     4     5   ar
    31     5     6   ar
    32    34    35   ar
    33    35    36   ar
    34    36    37   ar
    35    37    38   ar
    36    38    39   ar
    37    39    42    1
    38    42    43   ar
    39    43    44   ar
    40    44    45   ar
    41    45    46   ar
    42    46    47   ar
    43    39    40   ar
    44    40    41   ar
    45    41    33   ar
    46     6     1   ar
    47    41    36   ar
    48    12     7    1
    49    47    42   ar
    50    20    15   ar
    51    30    31    1
    52    23    24    1
@<TRIPOS>MOLECULE
*****
 47 52 0 0 0
SMALL
GASTEIGER

@<TRIPOS>ATOM
      1 C          -7.5716  -13.8610   28.0768 C.ar    1  UNL1        0.0702
      2 C          -7.0814  -12.8636   28.9334 C.ar    1  UNL1        0.0191
      3 C          -7.9229  -12.2744   29.8786 C.ar    1  UNL1        0.0356
      4 C          -9.2611  -12.6954   29.9798 C.ar    1  UNL1        0.1318
      5 N          -9.7038  -13.6793   29.1471 N.ar    1  UNL1       -0.2279
      6 C          -8.9035  -14.2662   28.2190 C.ar    1  UNL1        0.1149
      7 N         -10.1593  -12.1228   30.9588 N.pl3   1  UNL1       -0.2932
      8 C          -9.7347  -11.9458   32.3550 C.3     1  UNL1        0.0923
      9 C          -9.7764  -10.4593   32.7298 C.3     1  UNL1        0.0252
     10 C         -11.0492   -9.7230   32.2142 C.3     1  UNL1        0.0472
     11 C         -12.0953  -10.7063   31.6378 C.3     1  UNL1        0.0252
     12 C         -11.4838  -11.6163   30.5593 C.3     1  UNL1        0.0923
     13 C         -10.7180   -8.6149   31.1898 C.3     1  UNL1        0.2054
     14 O          -9.8030   -9.0917   30.1981 O.3     1  UNL1       -0.4755
     15 C          -8.4270   -8.8141   30.1058 C.ar    1  UNL1        0.1384
     16 C          -7.5957   -9.3348   29.0938 C.ar    1  UNL1        0.0433
     17 C          -6.2244   -9.0280   29.0642 C.ar    1  UNL1        0.0782
     18 C          -5.6943   -8.1671   30.0395 C.ar    1  UNL1        0.0024
     19 C          -6.5111   -7.6287   31.0462 C.ar    1  UNL1       -0.0193
     20 C          -7.8762   -7.9617   31.0674 C.ar    1  UNL1        0.0326
     21 C          -5.3406   -9.5807   28.0082 C.2     1  UNL1        0.3381
     22 O          -4.2321  -10.0896   28.3235 O.2     1  UNL1       -0.2451
     23 O          -5.7091   -9.5703   26.6633 O.3     1  UNL1       -0.4771
     24 H          -6.6253   -9.2754   26.3524 H       1  UNL1        0.2954
     25 C          -5.9153   -6.7065   32.0945 C.3     1  UNL1        0.0225
     26 C          -4.8893   -7.4457   32.9616 C.3     1  UNL1        0.0047
     27 C          -7.0105   -6.0689   32.9576 C.3     1  UNL1        0.0047
     28 C          -7.1989  -15.0410   25.8599 C.2     1  UNL1        0.2839
     29 O          -8.4341  -15.1901   25.6579 O.2     1  UNL1       -0.2665
     30 N          -6.7290  -14.5120   27.1104 N.am    1  UNL1       -0.2766
     31 H          -5.7312  -14.6829   27.3711 H       1  UNL1        0.1553
     32 C          -4.6181  -16.8975   26.2670 C.3     1  UNL1        0.0345
     33 C          -5.1011  -16.2593   24.9994 C.ar    1  UNL1        0.0202
     34 C          -6.2285  -15.4485   24.8262 C.ar    1  UNL1        0.1946
     35 O          -6.3272  -15.0756   23.5625 O.2     1  UNL1       -0.4492
     36 C          -5.3217  -15.6023   22.9073 C.ar    1  UNL1        0.1452
     37 C          -5.0358  -15.4712   21.5529 C.ar    1  UNL1        0.0375
     38 C          -3.8982  -16.1277   21.0520 C.ar    1  UNL1        0.0031
     39 C          -3.0675  -16.9010   21.9073 C.ar    1  UNL1        0.0002
     40 C          -3.3941  -17.0081   23.2805 C.ar    1  UNL1        0.0028
     41 C          -4.5304  -16.3431   23.7438 C.ar    1  UNL1        0.0337
     42 C          -1.8684  -17.5901   21.3666 C.ar    1  UNL1        0.0000
     43 C          -1.5761  -18.9161   21.7389 C.ar    1  UNL1        0.0000
     44 C          -0.4463  -19.5626   21.2281 C.ar    1  UNL1        0.0000
     45 C           0.4021  -18.8958   20.3417 C.ar    1  UNL1        0.0000
     46 C           0.1229  -17.5805   19.9642 C.ar    1  UNL1        0.0000
     47 C          -1.0050  -16.9287   20.4725 C.ar    1  UNL1        0.0000
@<TRIPOS>BOND
     1    32    33    1
     2    33    34   ar
     3    34    28    1
     4    28    29    2
     5    28    30   am
     6    30     1    1
     7     1     2   ar
     8     2     3   ar
     9     3     4   ar
    10     4     7    1
    11     7     8    1
    12     8     9    1
    13     9    10    1
    14    10    13    1
    15    13    14    1
    16    14    15    1
    17    15    16   ar
    18    16    17   ar
    19    17    21    1
    20    21    22    2
    21    21    23    1
    22    17    18   ar
    23    18    19   ar
    24    19    25    1
    25    25    26    1
    26    25    27    1
    27    19    20   ar
    28    10    11    1
    29    11    12    1
    30     4     5   ar
    31     5     6   ar
    32    34    35   ar
    33    35    36   ar
    34    36    37   ar
    35    37    38   ar
    36    38    39   ar
    37    39    42    1
    38    42    43   ar
    39    43    44   ar
    40    44    45   ar
    41    45    46   ar
    42    46    47   ar
    43    39    40   ar
    44    40    41   ar
    45    41    33   ar
    46     6     1   ar
    47    41    36   ar
    48    12     7    1
    49    47    42   ar
    50    20    15   ar
    51    30    31    1
    52    23    24    1
@<TRIPOS>MOLECULE
*****
 47 52 0 0 0
SMALL
GASTEIGER

@<TRIPOS>ATOM
      1 C          -5.2153  -11.6172   28.0033 C.ar    1  UNL1        0.0702
      2 C          -5.9602  -11.7488   29.1851 C.ar    1  UNL1        0.0191
      3 C          -5.9270  -10.7420   30.1515 C.ar    1  UNL1        0.0356
      4 C          -5.1556   -9.5871   29.9293 C.ar    1  UNL1        0.1318
      5 N          -4.4576   -9.4789   28.7637 N.ar    1  UNL1       -0.2279
      6 C          -4.4740  -10.4462   27.8097 C.ar    1  UNL1        0.1149
      7 N          -5.1101   -8.5134   30.8979 N.pl3   1  UNL1       -0.2932
      8 C          -5.1279   -7.1089   30.4640 C.3     1  UNL1        0.0923
      9 C          -6.3634   -6.4013   31.0338 C.3     1  UNL1        0.0252
     10 C          -6.6464   -6.7484   32.5263 C.3     1  UNL1        0.0472
     11 C          -5.4876   -7.5493   33.1658 C.3     1  UNL1        0.0252
     12 C          -5.1418   -8.8013   32.3424 C.3     1  UNL1        0.0923
     13 C          -7.9910   -7.4847   32.7182 C.3     1  UNL1        0.2054
     14 O          -7.8001   -8.7304   33.3963 O.3     1  UNL1       -0.4755
     15 C          -8.5178   -9.9245   33.2012 C.ar    1  UNL1        0.1384
     16 C          -8.7212  -10.8828   34.2143 C.ar    1  UNL1        0.0433
     17 C          -9.4388  -12.0625   33.9515 C.ar    1  UNL1        0.0782
     18 C          -9.9814  -12.2628   32.6714 C.ar    1  UNL1        0.0024
     19 C          -9.8000  -11.3119   31.6548 C.ar    1  UNL1       -0.0193
     20 C          -9.0650  -10.1472   31.9341 C.ar    1  UNL1        0.0326
     21 C          -9.6482  -13.0811   35.0099 C.2     1  UNL1        0.3381
     22 O          -8.8872  -13.1054   36.0137 O.2     1  UNL1       -0.2451
     23 O         -10.6830  -14.0130   34.9372 O.3     1  UNL1       -0.4771
     24 H         -11.3920  -13.9837   34.2163 H       1  UNL1        0.2954
     25 C         -10.3889  -11.5527   30.2766 C.3     1  UNL1        0.0225
     26 C          -9.6501  -12.6829   29.5500 C.3     1  UNL1        0.0047
     27 C         -10.3882  -10.2665   29.4418 C.3     1  UNL1        0.0047
     28 C          -6.0244  -13.8244   27.0443 C.2     1  UNL1        0.2839
     29 O          -6.5263  -14.1909   28.1408 O.2     1  UNL1       -0.2665
     30 N          -5.2464  -12.6185   26.9718 N.am    1  UNL1       -0.2766
     31 H          -4.6008  -12.4997   26.1584 H       1  UNL1        0.1553
     32 C          -8.6715  -15.4024   26.1636 C.3     1  UNL1        0.0345
     33 C          -7.3543  -15.3458   25.4499 C.ar    1  UNL1        0.0202
     34 C          -6.2004  -14.6559   25.8385 C.ar    1  UNL1        0.1946
     35 O          -5.2404  -14.8446   24.9506 O.2     1  UNL1       -0.4492
     36 C          -5.7120  -15.6217   24.0064 C.ar    1  UNL1        0.1452
     37 C          -5.0437  -16.0750   22.8745 C.ar    1  UNL1        0.0375
     38 C          -5.7444  -16.9052   21.9825 C.ar    1  UNL1        0.0031
     39 C          -7.0952  -17.2684   22.2336 C.ar    1  UNL1        0.0002
     40 C          -7.7385  -16.7855   23.3984 C.ar    1  UNL1        0.0028
     41 C          -7.0128  -15.9638   24.2621 C.ar    1  UNL1        0.0337
     42 C          -7.8253  -18.1460   21.2839 C.ar    1  UNL1        0.0000
     43 C          -7.1216  -18.9578   20.3738 C.ar    1  UNL1        0.0000
     44 C          -7.8117  -19.7833   19.4807 C.ar    1  UNL1        0.0000
     45 C          -9.2080  -19.8092   19.4859 C.ar    1  UNL1        0.0000
     46 C          -9.9176  -19.0092   20.3841 C.ar    1  UNL1        0.0000
     47 C          -9.2328  -18.1810   21.2788 C.ar    1  UNL1        0.0000
@<TRIPOS>BOND
     1    32    33    1
     2    33    34   ar
     3    34    28    1
     4    28    29    2
     5    28    30   am
     6    30     1    1
     7     1     2   ar
     8     2     3   ar
     9     3     4   ar
    10     4     7    1
    11     7     8    1
    12     8     9    1
    13     9    10    1
    14    10    13    1
    15    13    14    1
    16    14    15    1
    17    15    16   ar
    18    16    17   ar
    19    17    21    1
    20    21    22    2
    21    21    23    1
    22    17    18   ar
    23    18    19   ar
    24    19    25    1
    25    25    26    1
    26    25    27    1
    27    19    20   ar
    28    10    11    1
    29    11    12    1
    30     4     5   ar
    31     5     6   ar
    32    34    35   ar
    33    35    36   ar
    34    36    37   ar
    35    37    38   ar
    36    38    39   ar
    37    39    42    1
    38    42    43   ar
    39    43    44   ar
    40    44    45   ar
    41    45    46   ar
    42    46    47   ar
    43    39    40   ar
    44    40    41   ar
    45    41    33   ar
    46     6     1   ar
    47    41    36   ar
    48    12     7    1
    49    47    42   ar
    50    20    15   ar
    51    30    31    1
    52    23    24    1
@<TRIPOS>MOLECULE
*****
 47 52 0 0 0
SMALL
GASTEIGER

@<TRIPOS>ATOM
      1 C          -7.5148  -13.9173   27.9013 C.ar    1  UNL1        0.0702
      2 C          -7.0056  -12.8758   28.6918 C.ar    1  UNL1        0.0191
      3 C          -7.8174  -12.2551   29.6427 C.ar    1  UNL1        0.0356
      4 C          -9.1443  -12.6879   29.8165 C.ar    1  UNL1        0.1318
      5 N          -9.6054  -13.7142   29.0473 N.ar    1  UNL1       -0.2279
      6 C          -8.8341  -14.3325   28.1151 C.ar    1  UNL1        0.1149
      7 N         -10.0111  -12.0828   30.8042 N.pl3   1  UNL1       -0.2932
      8 C          -9.7165  -12.2066   32.2390 C.3     1  UNL1        0.0923
      9 C          -9.4988  -10.8169   32.8499 C.3     1  UNL1        0.0252
     10 C         -10.5321   -9.7556   32.3661 C.3     1  UNL1        0.0472
     11 C         -11.6846  -10.3948   31.5560 C.3     1  UNL1        0.0252
     12 C         -11.1539  -11.2491   30.3925 C.3     1  UNL1        0.0923
     13 C          -9.8731   -8.6088   31.5677 C.3     1  UNL1        0.2054
     14 O          -8.8512   -9.1104   30.7005 O.3     1  UNL1       -0.4755
     15 C          -7.4676   -8.8715   30.7880 C.ar    1  UNL1        0.1384
     16 C          -6.8494   -8.2904   31.9134 C.ar    1  UNL1        0.0433
     17 C          -5.4618   -8.0673   31.9337 C.ar    1  UNL1        0.0782
     18 C          -4.6891   -8.4609   30.8286 C.ar    1  UNL1        0.0024
     19 C          -5.2870   -9.0537   29.7053 C.ar    1  UNL1       -0.0193
     20 C          -6.6782   -9.2523   29.6988 C.ar    1  UNL1        0.0326
     21 C          -4.8050   -7.4465   33.1104 C.2     1  UNL1        0.3381
     22 O          -3.9785   -6.5104   32.9438 O.2     1  UNL1       -0.2451
     23 O          -5.0890   -7.8590   34.4119 O.3     1  UNL1       -0.4771
     24 H          -5.8168   -8.5287   34.6238 H       1  UNL1        0.2954
     25 C          -4.4334   -9.4641   28.5191 C.3     1  UNL1        0.0225
     26 C          -5.2863   -9.6301   27.2558 C.3     1  UNL1        0.0047
     27 C          -3.6417  -10.7418   28.8226 C.3     1  UNL1        0.0047
     28 C          -7.1431  -14.9395   25.6072 C.2     1  UNL1        0.2839
     29 O          -8.3669  -14.8805   25.3114 O.2     1  UNL1       -0.2665
     30 N          -6.7019  -14.6009   26.9320 N.am    1  UNL1       -0.2766
     31 H          -5.7633  -14.9439   27.2389 H       1  UNL1        0.1553
     32 C          -4.5542  -16.7549   26.1317 C.3     1  UNL1        0.0345
     33 C          -5.0325  -16.1899   24.8281 C.ar    1  UNL1        0.0202
     34 C          -6.1634  -15.3968   24.6035 C.ar    1  UNL1        0.1946
     35 O          -6.2558  -15.0941   23.3208 O.2     1  UNL1       -0.4492
     36 C          -5.2428  -15.6495   22.7018 C.ar    1  UNL1        0.1452
     37 C          -4.9485  -15.5910   21.3441 C.ar    1  UNL1        0.0375
     38 C          -3.8038  -16.2666   20.8871 C.ar    1  UNL1        0.0031
     39 C          -2.9744  -16.9869   21.7887 C.ar    1  UNL1        0.0002
     40 C          -3.3095  -17.0208   23.1636 C.ar    1  UNL1        0.0028
     41 C          -4.4528  -16.3386   23.5825 C.ar    1  UNL1        0.0337
     42 C          -1.7676  -17.6970   21.2942 C.ar    1  UNL1        0.0000
     43 C          -0.8637  -17.0540   20.4270 C.ar    1  UNL1        0.0000
     44 C           0.2719  -17.7250   19.9630 C.ar    1  UNL1        0.0000
     45 C           0.5188  -19.0414   20.3584 C.ar    1  UNL1        0.0000
     46 C          -0.3698  -19.6901   21.2186 C.ar    1  UNL1        0.0000
     47 C          -1.5075  -19.0243   21.6851 C.ar    1  UNL1        0.0000
@<TRIPOS>BOND
     1    32    33    1
     2    33    34   ar
     3    34    28    1
     4    28    29    2
     5    28    30   am
     6    30     1    1
     7     1     2   ar
     8     2     3   ar
     9     3     4   ar
    10     4     7    1
    11     7     8    1
    12     8     9    1
    13     9    10    1
    14    10    13    1
    15    13    14    1
    16    14    15    1
    17    15    16   ar
    18    16    17   ar
    19    17    21    1
    20    21    22    2
    21    21    23    1
    22    17    18   ar
    23    18    19   ar
    24    19    25    1
    25    25    26    1
    26    25    27    1
    27    19    20   ar
    28    10    11    1
    29    11    12    1
    30     4     5   ar
    31     5     6   ar
    32    34    35   ar
    33    35    36   ar
    34    36    37   ar
    35    37    38   ar
    36    38    39   ar
    37    39    42    1
    38    42    43   ar
    39    43    44   ar
    40    44    45   ar
    41    45    46   ar
    42    46    47   ar
    43    39    40   ar
    44    40    41   ar
    45    41    33   ar
    46     6     1   ar
    47    41    36   ar
    48    12     7    1
    49    47    42   ar
    50    20    15   ar
    51    30    31    1
    52    23    24    1
@<TRIPOS>MOLECULE
*****
 47 52 0 0 0
SMALL
GASTEIGER

@<TRIPOS>ATOM
      1 C          -6.5188  -15.3452   25.0261 C.ar    1  UNL1        0.0702
      2 C          -5.1503  -15.6488   24.9643 C.ar    1  UNL1        0.0191
      3 C          -4.6701  -16.5302   23.9942 C.ar    1  UNL1        0.0356
      4 C          -5.5614  -17.1015   23.0683 C.ar    1  UNL1        0.1318
      5 N          -6.8822  -16.7732   23.1410 N.ar    1  UNL1       -0.2279
      6 C          -7.3723  -15.9189   24.0769 C.ar    1  UNL1        0.1149
      7 N          -5.1000  -18.0045   22.0364 N.pl3   1  UNL1       -0.2932
      8 C          -4.8281  -19.4168   22.3406 C.3     1  UNL1        0.0923
      9 C          -5.7437  -20.3178   21.5028 C.3     1  UNL1        0.0252
     10 C          -5.8755  -19.8628   20.0183 C.3     1  UNL1        0.0472
     11 C          -4.8734  -18.7385   19.6646 C.3     1  UNL1        0.0252
     12 C          -4.9840  -17.5535   20.6387 C.3     1  UNL1        0.0923
     13 C          -7.3173  -19.4448   19.6531 C.3     1  UNL1        0.2054
     14 O          -8.2572  -19.9734   20.5940 O.3     1  UNL1       -0.4755
     15 C          -9.0132  -19.2541   21.5375 C.ar    1  UNL1        0.1384
     16 C          -9.0670  -19.5866   22.9060 C.ar    1  UNL1        0.0433
     17 C          -9.8517  -18.8335   23.7963 C.ar    1  UNL1        0.0782
     18 C         -10.5598  -17.7212   23.3120 C.ar    1  UNL1        0.0024
     19 C         -10.5062  -17.3679   21.9544 C.ar    1  UNL1       -0.0193
     20 C          -9.7289  -18.1444   21.0782 C.ar    1  UNL1        0.0326
     21 C          -9.9218  -19.1835   25.2365 C.2     1  UNL1        0.3381
     22 O          -9.6524  -18.3123   26.1057 O.2     1  UNL1       -0.2451
     23 O         -10.2973  -20.4563   25.6650 O.3     1  UNL1       -0.4771
     24 H         -10.6278  -21.1693   25.0282 H       1  UNL1        0.2954
     25 C         -11.2856  -16.1663   21.4516 C.3     1  UNL1        0.0225
     26 C         -12.5420  -15.9293   22.2980 C.3     1  UNL1        0.0047
     27 C         -11.6402  -16.3181   19.9676 C.3     1  UNL1        0.0047
     28 C          -6.9690  -14.6089   27.4138 C.2     1  UNL1        0.2839
     29 O          -6.6547  -15.7335   27.8882 O.2     1  UNL1       -0.2665
     30 N          -7.0475  -14.4200   25.9916 N.am    1  UNL1       -0.2766
     31 H          -7.5934  -13.6030   25.6348 H       1  UNL1        0.1553
     32 C          -5.1444  -12.0548   28.0623 C.3     1  UNL1        0.0345
     33 C          -6.5044  -12.3752   28.6054 C.ar    1  UNL1        0.0202
     34 C          -7.2976  -13.4923   28.3201 C.ar    1  UNL1        0.1946
     35 O          -8.4343  -13.4225   28.9900 O.2     1  UNL1       -0.4492
     36 C          -8.4191  -12.3181   29.6955 C.ar    1  UNL1        0.1452
     37 C          -9.4132  -11.8458   30.5452 C.ar    1  UNL1        0.0375
     38 C          -9.1904  -10.6266   31.2082 C.ar    1  UNL1        0.0031
     39 C          -7.9840   -9.9012   31.0135 C.ar    1  UNL1        0.0002
     40 C          -6.9971  -10.4177   30.1400 C.ar    1  UNL1        0.0028
     41 C          -7.2513  -11.6309   29.4985 C.ar    1  UNL1        0.0337
     42 C          -7.7599   -8.6140   31.7194 C.ar    1  UNL1        0.0000
     43 C          -8.5393   -7.4829   31.4101 C.ar    1  UNL1        0.0000
     44 C          -8.3263   -6.2722   32.0764 C.ar    1  UNL1        0.0000
     45 C          -7.3365   -6.1764   33.0570 C.ar    1  UNL1        0.0000
     46 C          -6.5571   -7.2912   33.3733 C.ar    1  UNL1        0.0000
     47 C          -6.7651   -8.5043   32.7096 C.ar    1  UNL1        0.0000
@<TRIPOS>BOND
     1    32    33    1
     2    33    34   ar
     3    34    28    1
     4    28    29    2
     5    28    30   am
     6    30     1    1
     7     1     2   ar
     8     2     3   ar
     9     3     4   ar
    10     4     7    1
    11     7     8    1
    12     8     9    1
    13     9    10    1
    14    10    13    1
    15    13    14    1
    16    14    15    1
    17    15    16   ar
    18    16    17   ar
    19    17    21    1
    20    21    22    2
    21    21    23    1
    22    17    18   ar
    23    18    19   ar
    24    19    25    1
    25    25    26    1
    26    25    27    1
    27    19    20   ar
    28    10    11    1
    29    11    12    1
    30     4     5   ar
    31     5     6   ar
    32    34    35   ar
    33    35    36   ar
    34    36    37   ar
    35    37    38   ar
    36    38    39   ar
    37    39    42    1
    38    42    43   ar
    39    43    44   ar
    40    44    45   ar
    41    45    46   ar
    42    46    47   ar
    43    39    40   ar
    44    40    41   ar
    45    41    33   ar
    46     6     1   ar
    47    41    36   ar
    48    12     7    1
    49    47    42   ar
    50    20    15   ar
    51    30    31    1
    52    23    24    1
@<TRIPOS>MOLECULE
*****
 47 52 0 0 0
SMALL
GASTEIGER

@<TRIPOS>ATOM
      1 C          -5.2078  -11.6750   27.9901 C.ar    1  UNL1        0.0702
      2 C          -5.7448  -11.8996   29.2668 C.ar    1  UNL1        0.0191
      3 C          -5.7457  -10.8775   30.2175 C.ar    1  UNL1        0.0356
      4 C          -5.2199   -9.6158   29.8859 C.ar    1  UNL1        0.1318
      5 N          -4.7224   -9.4217   28.6320 N.ar    1  UNL1       -0.2279
      6 C          -4.7099  -10.4017   27.6910 C.ar    1  UNL1        0.1149
      7 N          -5.2199   -8.5257   30.8371 N.pl3   1  UNL1       -0.2932
      8 C          -5.1869   -7.1292   30.3793 C.3     1  UNL1        0.0923
      9 C          -6.4450   -6.3929   30.8555 C.3     1  UNL1        0.0252
     10 C          -6.8297   -6.7089   32.3321 C.3     1  UNL1        0.0472
     11 C          -5.7279   -7.5155   33.0591 C.3     1  UNL1        0.0252
     12 C          -5.3497   -8.7872   32.2811 C.3     1  UNL1        0.0923
     13 C          -8.1956   -7.4213   32.4485 C.3     1  UNL1        0.2054
     14 O          -8.0611   -8.6798   33.1164 O.3     1  UNL1       -0.4755
     15 C          -8.7104   -9.8864   32.7976 C.ar    1  UNL1        0.1384
     16 C          -8.9148  -10.3330   31.4766 C.ar    1  UNL1        0.0433
     17 C          -9.5820  -11.5441   31.2245 C.ar    1  UNL1        0.0782
     18 C         -10.0168  -12.3246   32.3086 C.ar    1  UNL1        0.0024
     19 C          -9.8089  -11.9012   33.6307 C.ar    1  UNL1       -0.0193
     20 C          -9.1546  -10.6789   33.8603 C.ar    1  UNL1        0.0326
     21 C          -9.8103  -12.0159   29.8364 C.2     1  UNL1        0.3381
     22 O         -10.7488  -11.5238   29.1550 O.2     1  UNL1       -0.2451
     23 O          -8.9994  -12.9861   29.2484 O.3     1  UNL1       -0.4771
     24 H          -8.1676  -13.3453   29.6979 H       1  UNL1        0.2954
     25 C         -10.2940  -12.7571   34.7867 C.3     1  UNL1        0.0225
     26 C          -9.1258  -13.1949   35.6782 C.3     1  UNL1        0.0047
     27 C         -11.0885  -13.9682   34.2835 C.3     1  UNL1        0.0047
     28 C          -6.0643  -13.8514   27.0025 C.2     1  UNL1        0.2839
     29 O          -6.6716  -14.1676   28.0608 O.2     1  UNL1       -0.2665
     30 N          -5.2149  -12.6929   26.9745 N.am    1  UNL1       -0.2766
     31 H          -4.5012  -12.6265   26.2136 H       1  UNL1        0.1553
     32 C          -8.6902  -15.3932   26.0023 C.3     1  UNL1        0.0345
     33 C          -7.3366  -15.3693   25.3585 C.ar    1  UNL1        0.0202
     34 C          -6.1921  -14.6951   25.7991 C.ar    1  UNL1        0.1946
     35 O          -5.1905  -14.9123   24.9653 O.2     1  UNL1       -0.4492
     36 C          -5.6261  -15.6929   24.0069 C.ar    1  UNL1        0.1452
     37 C          -4.9078  -16.1726   22.9173 C.ar    1  UNL1        0.0375
     38 C          -5.5760  -17.0015   21.9996 C.ar    1  UNL1        0.0031
     39 C          -6.9445  -17.3374   22.1834 C.ar    1  UNL1        0.0002
     40 C          -7.6391  -16.8282   23.3068 C.ar    1  UNL1        0.0028
     41 C          -6.9447  -16.0084   24.1978 C.ar    1  UNL1        0.0337
     42 C          -7.6399  -18.2140   21.2070 C.ar    1  UNL1        0.0000
     43 C          -6.9051  -19.0615   20.3560 C.ar    1  UNL1        0.0000
     44 C          -7.5625  -19.8860   19.4376 C.ar    1  UNL1        0.0000
     45 C          -8.9567  -19.8752   19.3586 C.ar    1  UNL1        0.0000
     46 C          -9.6970  -19.0395   20.1976 C.ar    1  UNL1        0.0000
     47 C          -9.0449  -18.2121   21.1172 C.ar    1  UNL1        0.0000
@<TRIPOS>BOND
     1    32    33    1
     2    33    34   ar
     3    34    28    1
     4    28    29    2
     5    28    30   am
     6    30     1    1
     7     1     2   ar
     8     2     3   ar
     9     3     4   ar
    10     4     7    1
    11     7     8    1
    12     8     9    1
    13     9    10    1
    14    10    13    1
    15    13    14    1
    16    14    15    1
    17    15    16   ar
    18    16    17   ar
    19    17    21    1
    20    21    22    2
    21    21    23    1
    22    17    18   ar
    23    18    19   ar
    24    19    25    1
    25    25    26    1
    26    25    27    1
    27    19    20   ar
    28    10    11    1
    29    11    12    1
    30     4     5   ar
    31     5     6   ar
    32    34    35   ar
    33    35    36   ar
    34    36    37   ar
    35    37    38   ar
    36    38    39   ar
    37    39    42    1
    38    42    43   ar
    39    43    44   ar
    40    44    45   ar
    41    45    46   ar
    42    46    47   ar
    43    39    40   ar
    44    40    41   ar
    45    41    33   ar
    46     6     1   ar
    47    41    36   ar
    48    12     7    1
    49    47    42   ar
    50    20    15   ar
    51    30    31    1
    52    23    24    1
@<TRIPOS>MOLECULE
*****
 47 52 0 0 0
SMALL
GASTEIGER

@<TRIPOS>ATOM
      1 C          -5.2179  -11.7121   27.8965 C.ar    1  UNL1        0.0702
      2 C          -5.9951  -11.8296   29.0588 C.ar    1  UNL1        0.0191
      3 C          -5.9712  -10.8214   30.0239 C.ar    1  UNL1        0.0356
      4 C          -5.1762   -9.6791   29.8199 C.ar    1  UNL1        0.1318
      5 N          -4.4466   -9.5843   28.6727 N.ar    1  UNL1       -0.2279
      6 C          -4.4534  -10.5533   27.7202 C.ar    1  UNL1        0.1149
      7 N          -5.1390   -8.6042   30.7876 N.pl3   1  UNL1       -0.2932
      8 C          -5.6717   -7.2751   30.4548 C.3     1  UNL1        0.0923
      9 C          -6.8236   -6.9210   31.4033 C.3     1  UNL1        0.0252
     10 C          -6.5384   -7.2844   32.8915 C.3     1  UNL1        0.0472
     11 C          -5.0678   -7.7100   33.1136 C.3     1  UNL1        0.0252
     12 C          -4.6550   -8.8424   32.1585 C.3     1  UNL1        0.0923
     13 C          -7.5065   -8.3591   33.4344 C.3     1  UNL1        0.2054
     14 O          -8.0230   -9.1664   32.3716 O.3     1  UNL1       -0.4755
     15 C          -9.3707   -9.3246   32.0005 C.ar    1  UNL1        0.1384
     16 C         -10.2006   -8.2533   31.6133 C.ar    1  UNL1        0.0433
     17 C         -11.5438   -8.4769   31.2648 C.ar    1  UNL1        0.0782
     18 C         -12.0443   -9.7893   31.2752 C.ar    1  UNL1        0.0024
     19 C         -11.2274  -10.8694   31.6448 C.ar    1  UNL1       -0.0193
     20 C          -9.8921  -10.6218   32.0059 C.ar    1  UNL1        0.0326
     21 C         -12.4268   -7.3530   30.8663 C.2     1  UNL1        0.3381
     22 O         -13.4963   -7.1435   31.4982 O.2     1  UNL1       -0.2451
     23 O         -12.0989   -6.5001   29.8128 O.3     1  UNL1       -0.4771
     24 H         -11.2095   -6.5448   29.3332 H       1  UNL1        0.2954
     25 C         -11.7916  -12.2786   31.6562 C.3     1  UNL1        0.0225
     26 C         -13.3247  -12.2596   31.6729 C.3     1  UNL1        0.0047
     27 C         -11.2366  -13.0876   32.8346 C.3     1  UNL1        0.0047
     28 C          -5.9953  -13.9336   26.9442 C.2     1  UNL1        0.2839
     29 O          -6.4850  -14.3071   28.0439 O.2     1  UNL1       -0.2665
     30 N          -5.2380  -12.7150   26.8662 N.am    1  UNL1       -0.2766
     31 H          -4.5988  -12.5864   26.0491 H       1  UNL1        0.1553
     32 C          -8.6666  -15.4319   25.9997 C.3     1  UNL1        0.0345
     33 C          -7.3284  -15.4245   25.3240 C.ar    1  UNL1        0.0202
     34 C          -6.1640  -14.7693   25.7403 C.ar    1  UNL1        0.1946
     35 O          -5.1858  -14.9969   24.8819 O.2     1  UNL1       -0.4492
     36 C          -5.6555  -15.7663   23.9306 C.ar    1  UNL1        0.1452
     37 C          -4.9704  -16.2510   22.8219 C.ar    1  UNL1        0.0375
     38 C          -5.6722  -17.0655   21.9165 C.ar    1  UNL1        0.0031
     39 C          -7.0409  -17.3822   22.1313 C.ar    1  UNL1        0.0002
     40 C          -7.7010  -16.8686   23.2733 C.ar    1  UNL1        0.0028
     41 C          -6.9736  -16.0635   24.1513 C.ar    1  UNL1        0.0337
     42 C          -7.7720  -18.2437   21.1677 C.ar    1  UNL1        0.0000
     43 C          -9.1797  -18.2533   21.1413 C.ar    1  UNL1        0.0000
     44 C          -9.8656  -19.0654   20.2328 C.ar    1  UNL1        0.0000
     45 C          -9.1569  -19.8745   19.3420 C.ar    1  UNL1        0.0000
     46 C          -7.7605  -19.8736   19.3579 C.ar    1  UNL1        0.0000
     47 C          -7.0693  -19.0642   20.2648 C.ar    1  UNL1        0.0000
@<TRIPOS>BOND
     1    32    33    1
     2    33    34   ar
     3    34    28    1
     4    28    29    2
     5    28    30   am
     6    30     1    1
     7     1     2   ar
     8     2     3   ar
     9     3     4   ar
    10     4     7    1
    11     7     8    1
    12     8     9    1
    13     9    10    1
    14    10    13    1
    15    13    14    1
    16    14    15    1
    17    15    16   ar
    18    16    17   ar
    19    17    21    1
    20    21    22    2
    21    21    23    1
    22    17    18   ar
    23    18    19   ar
    24    19    25    1
    25    25    26    1
    26    25    27    1
    27    19    20   ar
    28    10    11    1
    29    11    12    1
    30     4     5   ar
    31     5     6   ar
    32    34    35   ar
    33    35    36   ar
    34    36    37   ar
    35    37    38   ar
    36    38    39   ar
    37    39    42    1
    38    42    43   ar
    39    43    44   ar
    40    44    45   ar
    41    45    46   ar
    42    46    47   ar
    43    39    40   ar
    44    40    41   ar
    45    41    33   ar
    46     6     1   ar
    47    41    36   ar
    48    12     7    1
    49    47    42   ar
    50    20    15   ar
    51    30    31    1
    52    23    24    1
@<TRIPOS>MOLECULE
*****
 47 52 0 0 0
SMALL
GASTEIGER

@<TRIPOS>ATOM
      1 C          -6.7071  -15.2980   24.9338 C.ar    1  UNL1        0.0702
      2 C          -7.5710  -15.9509   24.0415 C.ar    1  UNL1        0.0191
      3 C          -7.0608  -16.8419   23.0958 C.ar    1  UNL1        0.0356
      4 C          -5.6780  -17.0948   23.0505 C.ar    1  UNL1        0.1318
      5 N          -4.8657  -16.4603   23.9422 N.ar    1  UNL1       -0.2279
      6 C          -5.3396  -15.5885   24.8704 C.ar    1  UNL1        0.1149
      7 N          -5.1129  -18.0254   22.0977 N.pl3   1  UNL1       -0.2932
      8 C          -4.8360  -19.4173   22.4807 C.3     1  UNL1        0.0923
      9 C          -5.6589  -20.3733   21.6085 C.3     1  UNL1        0.0252
     10 C          -5.6775  -19.9800   20.1008 C.3     1  UNL1        0.0472
     11 C          -4.6747  -18.8453   19.7845 C.3     1  UNL1        0.0252
     12 C          -4.8916  -17.6264   20.6969 C.3     1  UNL1        0.0923
     13 C          -7.0930  -19.6133   19.6020 C.3     1  UNL1        0.2054
     14 O          -8.0775  -19.8993   20.6006 O.3     1  UNL1       -0.4755
     15 C          -9.0977  -19.0461   21.0590 C.ar    1  UNL1        0.1384
     16 C          -9.7328  -18.0872   20.2444 C.ar    1  UNL1        0.0433
     17 C         -10.7387  -17.2561   20.7669 C.ar    1  UNL1        0.0782
     18 C         -11.1292  -17.4135   22.1070 C.ar    1  UNL1        0.0024
     19 C         -10.5166  -18.3732   22.9283 C.ar    1  UNL1       -0.0193
     20 C          -9.5013  -19.1824   22.3906 C.ar    1  UNL1        0.0326
     21 C         -11.4047  -16.2371   19.9185 C.2     1  UNL1        0.3381
     22 O         -12.6487  -16.2978   19.7285 O.2     1  UNL1       -0.2451
     23 O         -10.6925  -15.1919   19.3313 O.3     1  UNL1       -0.4771
     24 H          -9.7148  -15.0222   19.5270 H       1  UNL1        0.2954
     25 C         -10.9493  -18.5206   24.3758 C.3     1  UNL1        0.0225
     26 C         -10.1938  -19.6634   25.0645 C.3     1  UNL1        0.0047
     27 C         -12.4661  -18.7180   24.4828 C.3     1  UNL1        0.0047
     28 C          -6.9902  -14.5758   27.3513 C.2     1  UNL1        0.2839
     29 O          -6.5830  -15.6822   27.7971 O.2     1  UNL1       -0.2665
     30 N          -7.1971  -14.3961   25.9409 N.am    1  UNL1       -0.2766
     31 H          -7.8100  -13.6078   25.6317 H       1  UNL1        0.1553
     32 C          -5.1538  -12.0262   27.9837 C.3     1  UNL1        0.0345
     33 C          -6.4969  -12.3581   28.5610 C.ar    1  UNL1        0.0202
     34 C          -7.2953  -13.4732   28.2826 C.ar    1  UNL1        0.1946
     35 O          -8.4124  -13.4162   28.9858 O.2     1  UNL1       -0.4492
     36 C          -8.3796  -12.3219   29.7063 C.ar    1  UNL1        0.1452
     37 C          -9.3500  -11.8646   30.5909 C.ar    1  UNL1        0.0375
     38 C          -9.1112  -10.6543   31.2647 C.ar    1  UNL1        0.0031
     39 C          -7.9126   -9.9228   31.0459 C.ar    1  UNL1        0.0002
     40 C          -6.9499  -10.4240   30.1370 C.ar    1  UNL1        0.0028
     41 C          -7.2197  -11.6287   29.4858 C.ar    1  UNL1        0.0337
     42 C          -7.6714   -8.6452   31.7634 C.ar    1  UNL1        0.0000
     43 C          -8.3882   -7.4837   31.4176 C.ar    1  UNL1        0.0000
     44 C          -8.1591   -6.2821   32.0950 C.ar    1  UNL1        0.0000
     45 C          -7.2156   -6.2257   33.1230 C.ar    1  UNL1        0.0000
     46 C          -6.4985   -7.3710   33.4758 C.ar    1  UNL1        0.0000
     47 C          -6.7226   -8.5751   32.8013 C.ar    1  UNL1        0.0000
@<TRIPOS>BOND
     1    32    33    1
     2    33    34   ar
     3    34    28    1
     4    28    29    2
     5    28    30   am
     6    30     1    1
     7     1     2   ar
     8     2     3   ar
     9     3     4   ar
    10     4     7    1
    11     7     8    1
    12     8     9    1
    13     9    10    1
    14    10    13    1
    15    13    14    1
    16    14    15    1
    17    15    16   ar
    18    16    17   ar
    19    17    21    1
    20    21    22    2
    21    21    23    1
    22    17    18   ar
    23    18    19   ar
    24    19    25    1
    25    25    26    1
    26    25    27    1
    27    19    20   ar
    28    10    11    1
    29    11    12    1
    30     4     5   ar
    31     5     6   ar
    32    34    35   ar
    33    35    36   ar
    34    36    37   ar
    35    37    38   ar
    36    38    39   ar
    37    39    42    1
    38    42    43   ar
    39    43    44   ar
    40    44    45   ar
    41    45    46   ar
    42    46    47   ar
    43    39    40   ar
    44    40    41   ar
    45    41    33   ar
    46     6     1   ar
    47    41    36   ar
    48    12     7    1
    49    47    42   ar
    50    20    15   ar
    51    30    31    1
    52    23    24    1
