@<TRIPOS>MOLECULE
*****
 46 51 0 0 0
SMALL
GASTEIGER

@<TRIPOS>ATOM
      1 C          60.8609   89.5829    9.2983 C.ar    1  UNL1        0.0702
      2 C          61.5315   88.4300    9.7207 C.ar    1  UNL1        0.0191
      3 C          61.4644   88.0238   11.0543 C.ar    1  UNL1        0.0356
      4 C          60.7323   88.7895   11.9806 C.ar    1  UNL1        0.1318
      5 N          60.1109   89.9225   11.5468 N.ar    1  UNL1       -0.2279
      6 C          60.1592   90.3350   10.2527 C.ar    1  UNL1        0.1149
      7 N          60.6293   88.3986   13.3713 N.pl3   1  UNL1       -0.2932
      8 C          59.7053   87.3299   13.7842 C.3     1  UNL1        0.0923
      9 C          60.4434   86.2450   14.5861 C.3     1  UNL1        0.0252
     10 C          61.5764   86.8045   15.4902 C.3     1  UNL1        0.0472
     11 C          61.4118   88.3144   15.7387 C.3     1  UNL1        0.0252
     12 C          61.4358   89.0740   14.4042 C.3     1  UNL1        0.0923
     13 C          61.6598   86.0439   16.8217 C.3     1  UNL1        0.2054
     14 O          62.7927   85.1774   16.8130 O.3     1  UNL1       -0.4755
     15 C          63.2669   84.5019   15.6791 C.ar    1  UNL1        0.1388
     16 C          64.3277   84.9943   14.8964 C.ar    1  UNL1        0.0369
     17 C          64.7626   84.2825   13.7766 C.ar    1  UNL1        0.0033
     18 C          64.1485   83.0781   13.4255 C.ar    1  UNL1        0.0066
     19 C          63.0878   82.5709   14.1948 C.ar    1  UNL1        0.0785
     20 C          62.6550   83.2938   15.3219 C.ar    1  UNL1        0.0433
     21 C          62.4386   81.2948   13.8212 C.2     1  UNL1        0.3381
     22 O          63.0834   80.4083   13.1982 O.2     1  UNL1       -0.2451
     23 O          61.1069   81.0607   14.1546 O.3     1  UNL1       -0.4771
     24 H          60.6528   80.1906   13.9036 H       1  UNL1        0.2954
     25 C          59.8394   90.0785    7.0274 C.2     1  UNL1        0.2839
     26 O          58.7429   89.5362    7.3309 O.2     1  UNL1       -0.2665
     27 N          60.9582   90.0009    7.9258 N.am    1  UNL1       -0.2766
     28 H          61.9122   90.1779    7.5371 H       1  UNL1        0.1553
     29 C          61.9203   92.0408    3.1228 C.ar    1  UNL1        0.1730
     30 C          61.4650   92.6874    1.9492 C.ar    1  UNL1        0.0401
     31 C          60.0773   92.8849    1.7168 C.ar    1  UNL1        0.0032
     32 C          59.1401   92.4301    2.6732 C.ar    1  UNL1        0.0030
     33 C          59.6196   91.7972    3.8195 C.ar    1  UNL1        0.0367
     34 C          58.9675   91.2523    4.9094 C.ar    1  UNL1        0.0203
     35 C          57.4901   91.2002    5.1585 C.3     1  UNL1        0.0345
     36 C          59.9897   90.7604    5.7279 C.ar    1  UNL1        0.1948
     37 O          61.1649   90.9934    5.1717 O.2     1  UNL1       -0.4462
     38 C          60.9591   91.6102    4.0332 C.ar    1  UNL1        0.1788
     39 C          59.6131   93.5632    0.4800 C.ar    1  UNL1        0.0001
     40 C          60.5242   94.2504   -0.3445 C.ar    1  UNL1        0.0000
     41 C          60.0841   94.8874   -1.5088 C.ar    1  UNL1        0.0000
     42 C          58.7338   94.8468   -1.8627 C.ar    1  UNL1        0.0000
     43 C          57.8201   94.1683   -1.0532 C.ar    1  UNL1        0.0000
     44 C          58.2546   93.5287    0.1118 C.ar    1  UNL1        0.0000
     45 C          63.9590   90.5997    3.1411 C.3     1  UNL1        0.2526
     46 O          63.2770   91.8217    3.4010 O.3     1  UNL1       -0.4684
@<TRIPOS>BOND
     1    45    46    1
     2    46    29    1
     3    29    30   ar
     4    30    31   ar
     5    31    39    1
     6    39    40   ar
     7    40    41   ar
     8    41    42   ar
     9    42    43   ar
    10    43    44   ar
    11    31    32   ar
    12    32    33   ar
    13    33    34   ar
    14    34    35    1
    15    34    36   ar
    16    36    25    1
    17    25    26    2
    18    25    27   am
    19    27     1    1
    20     1     2   ar
    21     2     3   ar
    22     3     4   ar
    23     4     7    1
    24     7     8    1
    25     8     9    1
    26     9    10    1
    27    10    13    1
    28    13    14    1
    29    14    15    1
    30    15    16   ar
    31    16    17   ar
    32    17    18   ar
    33    18    19   ar
    34    19    21    1
    35    21    22    2
    36    21    23    1
    37    19    20   ar
    38    10    11    1
    39    11    12    1
    40     4     5   ar
    41     5     6   ar
    42    36    37   ar
    43    37    38   ar
    44    38    29   ar
    45    44    39   ar
    46    38    33   ar
    47     6     1   ar
    48    12     7    1
    49    20    15   ar
    50    27    28    1
    51    23    24    1
@<TRIPOS>MOLECULE
*****
 46 51 0 0 0
SMALL
GASTEIGER

@<TRIPOS>ATOM
      1 C          61.8427   87.6353   10.0387 C.ar    1  UNL1        0.0702
      2 C          60.8969   87.9187    9.0475 C.ar    1  UNL1        0.0191
      3 C          60.0628   86.9115    8.5599 C.ar    1  UNL1        0.0356
      4 C          60.1878   85.6009    9.0570 C.ar    1  UNL1        0.1318
      5 N          61.1357   85.3478   10.0033 N.ar    1  UNL1       -0.2279
      6 C          61.9559   86.3133   10.4954 C.ar    1  UNL1        0.1149
      7 N          59.3361   84.5287    8.5854 N.pl3   1  UNL1       -0.2932
      8 C          59.8293   83.5589    7.5942 C.3     1  UNL1        0.0923
      9 C          59.6469   82.1175    8.0980 C.3     1  UNL1        0.0252
     10 C          58.3567   81.9127    8.9390 C.3     1  UNL1        0.0472
     11 C          57.3371   83.0404    8.6994 C.3     1  UNL1        0.0252
     12 C          57.9522   84.3962    9.0763 C.3     1  UNL1        0.0923
     13 C          57.7201   80.5421    8.6664 C.3     1  UNL1        0.2054
     14 O          57.3959   79.9057    9.9011 O.3     1  UNL1       -0.4755
     15 C          58.1470   80.0290   11.0790 C.ar    1  UNL1        0.1388
     16 C          58.3381   78.9549   11.9677 C.ar    1  UNL1        0.0369
     17 C          59.0956   79.1301   13.1276 C.ar    1  UNL1        0.0033
     18 C          59.6684   80.3714   13.4138 C.ar    1  UNL1        0.0066
     19 C          59.4883   81.4557   12.5384 C.ar    1  UNL1        0.0785
     20 C          58.7236   81.2715   11.3716 C.ar    1  UNL1        0.0433
     21 C          60.0958   82.7699   12.8435 C.2     1  UNL1        0.3381
     22 O          60.9179   82.8890   13.7920 O.2     1  UNL1       -0.2451
     23 O          59.7645   83.8896   12.0845 O.3     1  UNL1       -0.4771
     24 H          60.1745   84.7940   12.2849 H       1  UNL1        0.2954
     25 C          62.4830   89.4260   11.7207 C.2     1  UNL1        0.2839
     26 O          61.3636   89.3749   12.2976 O.2     1  UNL1       -0.2665
     27 N          62.7102   88.6787   10.5146 N.am    1  UNL1       -0.2766
     28 H          63.5073   88.9662    9.9026 H       1  UNL1        0.1553
     29 C          65.5361   93.1529   12.1854 C.ar    1  UNL1        0.1730
     30 C          66.5584   93.5179   13.0933 C.ar    1  UNL1        0.0401
     31 C          66.8877   92.6834   14.1952 C.ar    1  UNL1        0.0032
     32 C          66.1844   91.4713   14.3843 C.ar    1  UNL1        0.0030
     33 C          65.1829   91.1388   13.4727 C.ar    1  UNL1        0.0367
     34 C          64.3368   90.0490   13.3938 C.ar    1  UNL1        0.0203
     35 C          64.2745   88.8712   14.3194 C.3     1  UNL1        0.0345
     36 C          63.5519   90.2875   12.2607 C.ar    1  UNL1        0.1948
     37 O          63.9015   91.4323   11.7023 O.2     1  UNL1       -0.4462
     38 C          64.8722   91.9509   12.4149 C.ar    1  UNL1        0.1788
     39 C          67.9613   93.0797   15.1415 C.ar    1  UNL1        0.0001
     40 C          68.2118   94.4384   15.4117 C.ar    1  UNL1        0.0000
     41 C          69.2230   94.8083   16.3038 C.ar    1  UNL1        0.0000
     42 C          69.9941   93.8295   16.9344 C.ar    1  UNL1        0.0000
     43 C          69.7554   92.4782   16.6748 C.ar    1  UNL1        0.0000
     44 C          68.7449   92.1024   15.7843 C.ar    1  UNL1        0.0000
     45 C          66.0541   94.8351   10.4148 C.3     1  UNL1        0.2526
     46 O          65.1727   93.9388   11.0825 O.3     1  UNL1       -0.4684
@<TRIPOS>BOND
     1    45    46    1
     2    46    29    1
     3    29    30   ar
     4    30    31   ar
     5    31    39    1
     6    39    40   ar
     7    40    41   ar
     8    41    42   ar
     9    42    43   ar
    10    43    44   ar
    11    31    32   ar
    12    32    33   ar
    13    33    34   ar
    14    34    35    1
    15    34    36   ar
    16    36    25    1
    17    25    26    2
    18    25    27   am
    19    27     1    1
    20     1     2   ar
    21     2     3   ar
    22     3     4   ar
    23     4     7    1
    24     7     8    1
    25     8     9    1
    26     9    10    1
    27    10    13    1
    28    13    14    1
    29    14    15    1
    30    15    16   ar
    31    16    17   ar
    32    17    18   ar
    33    18    19   ar
    34    19    21    1
    35    21    22    2
    36    21    23    1
    37    19    20   ar
    38    10    11    1
    39    11    12    1
    40     4     5   ar
    41     5     6   ar
    42    36    37   ar
    43    37    38   ar
    44    38    29   ar
    45    44    39   ar
    46    38    33   ar
    47     6     1   ar
    48    12     7    1
    49    20    15   ar
    50    27    28    1
    51    23    24    1
@<TRIPOS>MOLECULE
*****
 46 51 0 0 0
SMALL
GASTEIGER

@<TRIPOS>ATOM
      1 C          59.7543   87.9110    8.1919 C.ar    1  UNL1        0.0702
      2 C          59.1562   86.6475    8.2488 C.ar    1  UNL1        0.0191
      3 C          59.2231   85.8876    9.4175 C.ar    1  UNL1        0.0356
      4 C          59.9115   86.3896   10.5375 C.ar    1  UNL1        0.1318
      5 N          60.5074   87.6121   10.4451 N.ar    1  UNL1       -0.2279
      6 C          60.4520   88.3711    9.3190 C.ar    1  UNL1        0.1149
      7 N          59.9967   85.6380   11.7724 N.pl3   1  UNL1       -0.2932
      8 C          60.1538   84.1747   11.7513 C.3     1  UNL1        0.0923
      9 C          61.3687   83.7405   12.5881 C.3     1  UNL1        0.0252
     10 C          61.5968   84.6156   13.8514 C.3     1  UNL1        0.0472
     11 C          60.3308   85.4029   14.2336 C.3     1  UNL1        0.0252
     12 C          59.9116   86.3211   13.0761 C.3     1  UNL1        0.0923
     13 C          62.0872   83.7726   15.0376 C.3     1  UNL1        0.2054
     14 O          63.1754   84.4322   15.6820 O.3     1  UNL1       -0.4755
     15 C          63.1968   85.7964   16.0069 C.ar    1  UNL1        0.1388
     16 C          62.7531   86.2826   17.2506 C.ar    1  UNL1        0.0369
     17 C          62.7958   87.6511   17.5247 C.ar    1  UNL1        0.0033
     18 C          63.2786   88.5463   16.5675 C.ar    1  UNL1        0.0066
     19 C          63.7258   88.0794   15.3199 C.ar    1  UNL1        0.0785
     20 C          63.6796   86.6989   15.0509 C.ar    1  UNL1        0.0433
     21 C          64.2369   89.0294   14.3071 C.2     1  UNL1        0.3381
     22 O          63.8812   88.9305   13.1015 O.2     1  UNL1       -0.2451
     23 O          65.1173   90.0432   14.6767 O.3     1  UNL1       -0.4771
     24 H          65.4732   90.6987   13.9913 H       1  UNL1        0.2954
     25 C          59.6933   90.1082    6.9212 C.2     1  UNL1        0.2839
     26 O          59.4847   90.7806    7.9667 O.2     1  UNL1       -0.2665
     27 N          59.6963   88.6722    6.9733 N.am    1  UNL1       -0.2766
     28 H          59.5640   88.1490    6.0781 H       1  UNL1        0.1553
     29 C          61.9255   92.0958    3.1142 C.ar    1  UNL1        0.1730
     30 C          61.5163   92.7423    1.9238 C.ar    1  UNL1        0.0401
     31 C          60.1384   92.9304    1.6324 C.ar    1  UNL1        0.0032
     32 C          59.1644   92.4663    2.5466 C.ar    1  UNL1        0.0030
     33 C          59.5988   91.8338    3.7110 C.ar    1  UNL1        0.0367
     34 C          58.9046   91.2813    4.7705 C.ar    1  UNL1        0.0203
     35 C          57.4182   91.2180    4.9558 C.3     1  UNL1        0.0345
     36 C          59.8943   90.7946    5.6310 C.ar    1  UNL1        0.1948
     37 O          61.0905   91.0376    5.1264 O.2     1  UNL1       -0.4462
     38 C          60.9293   91.6559    3.9815 C.ar    1  UNL1        0.1788
     39 C          59.7228   93.6087    0.3785 C.ar    1  UNL1        0.0001
     40 C          60.6599   93.8673   -0.6398 C.ar    1  UNL1        0.0000
     41 C          60.2653   94.5055   -1.8198 C.ar    1  UNL1        0.0000
     42 C          58.9351   94.8923   -1.9966 C.ar    1  UNL1        0.0000
     43 C          57.9960   94.6412   -0.9939 C.ar    1  UNL1        0.0000
     44 C          58.3846   94.0026    0.1877 C.ar    1  UNL1        0.0000
     45 C          63.9804   90.6797    3.1898 C.3     1  UNL1        0.2526
     46 O          63.2706   91.8858    3.4500 O.3     1  UNL1       -0.4684
@<TRIPOS>BOND
     1    45    46    1
     2    46    29    1
     3    29    30   ar
     4    30    31   ar
     5    31    39    1
     6    39    40   ar
     7    40    41   ar
     8    41    42   ar
     9    42    43   ar
    10    43    44   ar
    11    31    32   ar
    12    32    33   ar
    13    33    34   ar
    14    34    35    1
    15    34    36   ar
    16    36    25    1
    17    25    26    2
    18    25    27   am
    19    27     1    1
    20     1     2   ar
    21     2     3   ar
    22     3     4   ar
    23     4     7    1
    24     7     8    1
    25     8     9    1
    26     9    10    1
    27    10    13    1
    28    13    14    1
    29    14    15    1
    30    15    16   ar
    31    16    17   ar
    32    17    18   ar
    33    18    19   ar
    34    19    21    1
    35    21    22    2
    36    21    23    1
    37    19    20   ar
    38    10    11    1
    39    11    12    1
    40     4     5   ar
    41     5     6   ar
    42    36    37   ar
    43    37    38   ar
    44    38    29   ar
    45    44    39   ar
    46    38    33   ar
    47     6     1   ar
    48    12     7    1
    49    20    15   ar
    50    27    28    1
    51    23    24    1
@<TRIPOS>MOLECULE
*****
 46 51 0 0 0
SMALL
GASTEIGER

@<TRIPOS>ATOM
      1 C          59.6571   90.9020    5.8683 C.ar    1  UNL1        0.0702
      2 C          58.4324   91.4067    5.4181 C.ar    1  UNL1        0.0191
      3 C          58.3508   92.0714    4.1936 C.ar    1  UNL1        0.0356
      4 C          59.5113   92.2490    3.4177 C.ar    1  UNL1        0.1318
      5 N          60.6957   91.7703    3.8933 N.ar    1  UNL1       -0.2279
      6 C          60.7982   91.1168    5.0805 C.ar    1  UNL1        0.1149
      7 N          59.4690   92.9242    2.1372 N.pl3   1  UNL1       -0.2932
      8 C          59.7514   94.3653    2.0387 C.3     1  UNL1        0.0923
      9 C          60.8556   94.6393    1.0040 C.3     1  UNL1        0.0252
     10 C          60.8112   93.6822   -0.2190 C.3     1  UNL1        0.0472
     11 C          59.4391   92.9987   -0.3563 C.3     1  UNL1        0.0252
     12 C          59.1264   92.1853    0.9083 C.3     1  UNL1        0.0923
     13 C          61.1830   94.4126   -1.5177 C.3     1  UNL1        0.2054
     14 O          62.5819   94.2800   -1.7630 O.3     1  UNL1       -0.4755
     15 C          63.5552   94.1540   -0.7612 C.ar    1  UNL1        0.1388
     16 C          64.7591   94.8821   -0.7834 C.ar    1  UNL1        0.0369
     17 C          65.6959   94.7203    0.2394 C.ar    1  UNL1        0.0033
     18 C          65.4449   93.8357    1.2908 C.ar    1  UNL1        0.0066
     19 C          64.2485   93.1000    1.3299 C.ar    1  UNL1        0.0785
     20 C          63.3093   93.2683    0.2955 C.ar    1  UNL1        0.0433
     21 C          63.9845   92.1633    2.4445 C.2     1  UNL1        0.3381
     22 O          64.4180   90.9801    2.4009 O.2     1  UNL1       -0.2451
     23 O          63.2533   92.5805    3.5539 O.3     1  UNL1       -0.4771
     24 H          63.0669   91.9473    4.3223 H       1  UNL1        0.2954
     25 C          59.5603   88.8242    7.3241 C.2     1  UNL1        0.2839
     26 O          59.0843   88.1177    6.3952 O.2     1  UNL1       -0.2665
     27 N          59.7292   90.2396    7.1426 N.am    1  UNL1       -0.2766
     28 H          59.8271   90.8350    7.9961 H       1  UNL1        0.1553
     29 C          59.7629   85.5952   10.9240 C.ar    1  UNL1        0.1730
     30 C          60.3814   85.5327   12.1952 C.ar    1  UNL1        0.0401
     31 C          61.1729   86.6107   12.6752 C.ar    1  UNL1        0.0032
     32 C          61.3420   87.7615   11.8710 C.ar    1  UNL1        0.0030
     33 C          60.7195   87.7936   10.6235 C.ar    1  UNL1        0.0367
     34 C          60.7002   88.7545    9.6305 C.ar    1  UNL1        0.0203
     35 C          61.3799   90.0908    9.6383 C.3     1  UNL1        0.0345
     36 C          59.9073   88.2052    8.6174 C.ar    1  UNL1        0.1948
     37 O          59.4828   87.0069    8.9760 O.2     1  UNL1       -0.4462
     38 C          59.9602   86.7485   10.1695 C.ar    1  UNL1        0.1788
     39 C          61.8180   86.5310   14.0104 C.ar    1  UNL1        0.0001
     40 C          61.0380   86.4108   15.1762 C.ar    1  UNL1        0.0000
     41 C          61.6485   86.3352   16.4319 C.ar    1  UNL1        0.0000
     42 C          63.0403   86.3791   16.5386 C.ar    1  UNL1        0.0000
     43 C          63.8251   86.4982   15.3896 C.ar    1  UNL1        0.0000
     44 C          63.2201   86.5732   14.1312 C.ar    1  UNL1        0.0000
     45 C          57.5757   84.4240   10.6448 C.3     1  UNL1        0.2526
     46 O          58.9719   84.5609   10.4038 O.3     1  UNL1       -0.4684
@<TRIPOS>BOND
     1    45    46    1
     2    46    29    1
     3    29    30   ar
     4    30    31   ar
     5    31    39    1
     6    39    40   ar
     7    40    41   ar
     8    41    42   ar
     9    42    43   ar
    10    43    44   ar
    11    31    32   ar
    12    32    33   ar
    13    33    34   ar
    14    34    35    1
    15    34    36   ar
    16    36    25    1
    17    25    26    2
    18    25    27   am
    19    27     1    1
    20     1     2   ar
    21     2     3   ar
    22     3     4   ar
    23     4     7    1
    24     7     8    1
    25     8     9    1
    26     9    10    1
    27    10    13    1
    28    13    14    1
    29    14    15    1
    30    15    16   ar
    31    16    17   ar
    32    17    18   ar
    33    18    19   ar
    34    19    21    1
    35    21    22    2
    36    21    23    1
    37    19    20   ar
    38    10    11    1
    39    11    12    1
    40     4     5   ar
    41     5     6   ar
    42    36    37   ar
    43    37    38   ar
    44    38    29   ar
    45    44    39   ar
    46    38    33   ar
    47     6     1   ar
    48    12     7    1
    49    20    15   ar
    50    27    28    1
    51    23    24    1
