@<TRIPOS>MOLECULE
*****
 27 29 0 0 0
SMALL
GASTEIGER

@<TRIPOS>ATOM
      1 C         -15.0133    1.1806  -13.1628 C.ar    1  UNL1        0.1385
      2 C         -15.5943    0.2583  -14.0407 C.ar    1  UNL1        0.0366
      3 C         -15.0951    0.0962  -15.3359 C.ar    1  UNL1       -0.0011
      4 C         -13.9970    0.8528  -15.7716 C.ar    1  UNL1       -0.0206
      5 C         -13.4112    1.7792  -14.8952 C.ar    1  UNL1       -0.0011
      6 C         -13.9109    1.9414  -13.5999 C.ar    1  UNL1        0.0366
      7 O         -15.5584    1.3015  -11.8736 O.3     1  UNL1       -0.4750
      8 C         -16.9475    1.2322  -11.5519 C.3     1  UNL1        0.2117
      9 C         -17.6622    2.5199  -11.9699 C.3     1  UNL1        0.0931
     10 C         -21.9049    1.9712  -11.6432 C.ar    1  UNL1        0.0032
     11 C         -21.2101    1.7102  -12.8351 C.ar    1  UNL1        0.0946
     12 N         -19.8667    1.9007  -12.9053 N.ar    1  UNL1       -0.2483
     13 C         -19.1490    2.3613  -11.8464 C.ar    1  UNL1        0.0632
     14 C         -19.7982    2.6382  -10.6371 C.ar    1  UNL1        0.0212
     15 C         -21.1796    2.4534  -10.5333 C.ar    1  UNL1        0.0333
     16 BR        -22.0208    2.8742   -8.8608 Br      1  UNL1       -0.0492
     17 C         -24.1177    2.9606  -12.2498 C.3     1  UNL1        0.0051
     18 C         -23.4011    1.7804  -11.6012 C.3     1  UNL1        0.0284
     19 C         -13.4783    0.6950  -17.1784 C.3     1  UNL1        0.0468
     20 C         -14.6231    0.4785  -18.1807 C.3     1  UNL1        0.1369
     21 S         -14.9132    1.9994  -19.1839 S.3     1  UNL1       -0.0482
     22 C         -14.4644    1.1172  -20.6691 C.2     1  UNL1        0.2792
     23 O         -14.3963    1.6777  -21.7937 O.2     1  UNL1       -0.2625
     24 N         -14.1801   -0.2554  -20.5006 N.am    1  UNL1       -0.2460
     25 C         -14.2853   -0.6245  -19.1393 C.2     1  UNL1        0.2392
     26 O         -14.1153   -1.8158  -18.7665 O.2     1  UNL1       -0.2737
     27 H         -13.9281   -0.9088  -21.2753 H       1  UNL1        0.1583
@<TRIPOS>BOND
     1    17    18    1
     2    18    10    1
     3    10    11   ar
     4    11    12   ar
     5    12    13   ar
     6    13     9    1
     7     9     8    1
     8     8     7    1
     9     7     1    1
    10     1     2   ar
    11     2     3   ar
    12     3     4   ar
    13     4    19    1
    14    19    20    1
    15    20    21    1
    16    21    22    1
    17    22    23    2
    18    22    24   am
    19    24    25   am
    20    25    26    2
    21     4     5   ar
    22     5     6   ar
    23    13    14   ar
    24    14    15   ar
    25    15    16    1
    26    15    10   ar
    27     6     1   ar
    28    25    20    1
    29    24    27    1
@<TRIPOS>MOLECULE
*****
 27 29 0 0 0
SMALL
GASTEIGER

@<TRIPOS>ATOM
      1 C         -27.2788   -5.9841  -14.3308 C.ar    1  UNL1        0.1385
      2 C         -26.4765   -5.3518  -13.3739 C.ar    1  UNL1        0.0366
      3 C         -26.2935   -5.9200  -12.1103 C.ar    1  UNL1       -0.0011
      4 C         -26.9073   -7.1391  -11.7863 C.ar    1  UNL1       -0.0206
      5 C         -27.7130   -7.7769  -12.7421 C.ar    1  UNL1       -0.0011
      6 C         -27.8962   -7.2081  -14.0058 C.ar    1  UNL1        0.0366
      7 O         -27.4276   -5.3654  -15.5832 O.3     1  UNL1       -0.4750
      8 C         -27.4595   -3.9568  -15.8127 C.3     1  UNL1        0.2117
      9 C         -26.2589   -3.5211  -16.6567 C.3     1  UNL1        0.0931
     10 C         -24.8589   -6.6981  -19.1776 C.ar    1  UNL1        0.0032
     11 C         -25.8674   -5.8115  -19.5881 C.ar    1  UNL1        0.0946
     12 N         -26.2912   -4.8200  -18.7615 N.ar    1  UNL1       -0.2483
     13 C         -25.7777   -4.6548  -17.5134 C.ar    1  UNL1        0.0632
     14 C         -24.7718   -5.5160  -17.0585 C.ar    1  UNL1        0.0212
     15 C         -24.3150   -6.5466  -17.8847 C.ar    1  UNL1        0.0333
     16 BR        -22.9542   -7.7132  -17.1996 Br      1  UNL1       -0.0492
     17 C         -25.4651   -8.0368  -21.1984 C.3     1  UNL1        0.0051
     18 C         -24.4280   -7.8092  -20.1031 C.3     1  UNL1        0.0284
     19 C         -26.7298   -7.7356  -10.4131 C.3     1  UNL1        0.0468
     20 C         -25.6023   -8.7798  -10.3932 C.3     1  UNL1        0.1369
     21 S         -23.9503   -7.9635  -10.4858 S.3     1  UNL1       -0.0482
     22 C         -23.5343   -8.6001   -8.8711 C.2     1  UNL1        0.2792
     23 O         -22.4564   -8.3134   -8.2887 O.2     1  UNL1       -0.2625
     24 N         -24.5005   -9.4433   -8.2806 N.am    1  UNL1       -0.2460
     25 C         -25.6338   -9.5682   -9.1176 C.2     1  UNL1        0.2392
     26 O         -26.6024  -10.3109   -8.8057 O.2     1  UNL1       -0.2737
     27 H         -24.3925   -9.9118   -7.3535 H       1  UNL1        0.1583
@<TRIPOS>BOND
     1    17    18    1
     2    18    10    1
     3    10    11   ar
     4    11    12   ar
     5    12    13   ar
     6    13     9    1
     7     9     8    1
     8     8     7    1
     9     7     1    1
    10     1     2   ar
    11     2     3   ar
    12     3     4   ar
    13     4    19    1
    14    19    20    1
    15    20    21    1
    16    21    22    1
    17    22    23    2
    18    22    24   am
    19    24    25   am
    20    25    26    2
    21     4     5   ar
    22     5     6   ar
    23    13    14   ar
    24    14    15   ar
    25    15    16    1
    26    15    10   ar
    27     6     1   ar
    28    25    20    1
    29    24    27    1
@<TRIPOS>MOLECULE
*****
 27 29 0 0 0
SMALL
GASTEIGER

@<TRIPOS>ATOM
      1 C         -24.8212   -5.8699  -12.0707 C.ar    1  UNL1        0.1385
      2 C         -23.7817   -4.9980  -11.7265 C.ar    1  UNL1        0.0366
      3 C         -22.5074   -5.4904  -11.4320 C.ar    1  UNL1       -0.0011
      4 C         -22.2509   -6.8687  -11.4852 C.ar    1  UNL1       -0.0206
      5 C         -23.2899   -7.7470  -11.8295 C.ar    1  UNL1       -0.0011
      6 C         -24.5645   -7.2542  -12.1236 C.ar    1  UNL1        0.0366
      7 O         -26.0814   -5.3179  -12.3550 O.3     1  UNL1       -0.4750
      8 C         -26.9056   -5.6649  -13.4678 C.3     1  UNL1        0.2117
      9 C         -26.1577   -5.4366  -14.7840 C.3     1  UNL1        0.0931
     10 C         -28.5519   -3.2285  -17.5768 C.ar    1  UNL1        0.0032
     11 C         -27.2336   -3.6143  -17.8683 C.ar    1  UNL1        0.0946
     12 N         -26.5016   -4.3078  -16.9579 N.ar    1  UNL1       -0.2483
     13 C         -26.9990   -4.6396  -15.7367 C.ar    1  UNL1        0.0632
     14 C         -28.3079   -4.2744  -15.3992 C.ar    1  UNL1        0.0212
     15 C         -29.0862   -3.5595  -16.3139 C.ar    1  UNL1        0.0333
     16 BR        -30.8634   -3.0622  -15.7880 Br      1  UNL1       -0.0492
     17 C         -28.4244   -1.9528  -19.7215 C.3     1  UNL1        0.0051
     18 C         -29.3326   -2.4325  -18.5937 C.3     1  UNL1        0.0284
     19 C         -20.8823   -7.3987  -11.1404 C.3     1  UNL1        0.0468
     20 C         -20.9441   -8.4116   -9.9861 C.3     1  UNL1        0.1369
     21 S         -20.1697  -10.0128  -10.4762 S.3     1  UNL1       -0.0482
     22 C         -18.9214   -9.8056   -9.2175 C.2     1  UNL1        0.2792
     23 O         -17.9678  -10.6136   -9.0717 O.2     1  UNL1       -0.2625
     24 N         -19.0666   -8.6664   -8.3964 N.am    1  UNL1       -0.2460
     25 C         -20.1885   -7.9025   -8.7947 C.2     1  UNL1        0.2392
     26 O         -20.5312   -6.8636   -8.1701 O.2     1  UNL1       -0.2737
     27 H         -18.4333   -8.4220   -7.6027 H       1  UNL1        0.1583
@<TRIPOS>BOND
     1    17    18    1
     2    18    10    1
     3    10    11   ar
     4    11    12   ar
     5    12    13   ar
     6    13     9    1
     7     9     8    1
     8     8     7    1
     9     7     1    1
    10     1     2   ar
    11     2     3   ar
    12     3     4   ar
    13     4    19    1
    14    19    20    1
    15    20    21    1
    16    21    22    1
    17    22    23    2
    18    22    24   am
    19    24    25   am
    20    25    26    2
    21     4     5   ar
    22     5     6   ar
    23    13    14   ar
    24    14    15   ar
    25    15    16    1
    26    15    10   ar
    27     6     1   ar
    28    25    20    1
    29    24    27    1
@<TRIPOS>MOLECULE
*****
 27 29 0 0 0
SMALL
GASTEIGER

@<TRIPOS>ATOM
      1 C         -25.5099  -13.4136  -14.3915 C.ar    1  UNL1        0.1385
      2 C         -25.2103  -13.5221  -13.0286 C.ar    1  UNL1        0.0366
      3 C         -25.0063  -12.3789  -12.2511 C.ar    1  UNL1       -0.0011
      4 C         -25.1072  -11.1036  -12.8268 C.ar    1  UNL1       -0.0206
      5 C         -25.4072  -10.9894  -14.1930 C.ar    1  UNL1       -0.0011
      6 C         -25.6107  -12.1331  -14.9706 C.ar    1  UNL1        0.0366
      7 O         -25.7032  -14.5971  -15.1232 O.3     1  UNL1       -0.4750
      8 C         -24.9197  -15.0178  -16.2399 C.3     1  UNL1        0.2117
      9 C         -23.4478  -15.1580  -15.8430 C.3     1  UNL1        0.0931
     10 C         -21.7583  -11.2553  -15.2751 C.ar    1  UNL1        0.0032
     11 C         -22.3106  -11.6561  -16.5023 C.ar    1  UNL1        0.0946
     12 N         -22.8318  -12.9021  -16.6490 N.ar    1  UNL1       -0.2483
     13 C         -22.8270  -13.8081  -15.6352 C.ar    1  UNL1        0.0632
     14 C         -22.2849  -13.4555  -14.3933 C.ar    1  UNL1        0.0212
     15 C         -21.7400  -12.1814  -14.2110 C.ar    1  UNL1        0.0333
     16 BR        -20.9867  -11.7616  -12.4968 Br      1  UNL1       -0.0492
     17 C         -22.2410   -8.8362  -14.8769 C.3     1  UNL1        0.0051
     18 C         -21.1586   -9.8765  -15.1479 C.3     1  UNL1        0.0284
     19 C         -24.8598   -9.8732  -11.9914 C.3     1  UNL1        0.0468
     20 C         -24.0455  -10.2023  -10.7300 C.3     1  UNL1        0.1369
     21 S         -22.6657   -8.9981  -10.5072 S.3     1  UNL1       -0.0482
     22 C         -23.3865   -8.4414   -8.9722 C.2     1  UNL1        0.2792
     23 O         -22.9013   -7.4930   -8.3024 O.2     1  UNL1       -0.2625
     24 N         -24.5475   -9.1300   -8.5587 N.am    1  UNL1       -0.2460
     25 C         -24.9082  -10.1163   -9.5061 C.2     1  UNL1        0.2392
     26 O         -25.8914  -10.8808   -9.3168 O.2     1  UNL1       -0.2737
     27 H         -25.0678   -8.9383   -7.6737 H       1  UNL1        0.1583
@<TRIPOS>BOND
     1    17    18    1
     2    18    10    1
     3    10    11   ar
     4    11    12   ar
     5    12    13   ar
     6    13     9    1
     7     9     8    1
     8     8     7    1
     9     7     1    1
    10     1     2   ar
    11     2     3   ar
    12     3     4   ar
    13     4    19    1
    14    19    20    1
    15    20    21    1
    16    21    22    1
    17    22    23    2
    18    22    24   am
    19    24    25   am
    20    25    26    2
    21     4     5   ar
    22     5     6   ar
    23    13    14   ar
    24    14    15   ar
    25    15    16    1
    26    15    10   ar
    27     6     1   ar
    28    25    20    1
    29    24    27    1
@<TRIPOS>MOLECULE
*****
 27 29 0 0 0
SMALL
GASTEIGER

@<TRIPOS>ATOM
      1 C         -22.9730   -8.2692  -14.2161 C.ar    1  UNL1        0.1385
      2 C         -21.6700   -7.8888  -13.8749 C.ar    1  UNL1        0.0366
      3 C         -21.0460   -8.4210  -12.7434 C.ar    1  UNL1       -0.0011
      4 C         -21.7171   -9.3521  -11.9366 C.ar    1  UNL1       -0.0206
      5 C         -23.0239   -9.7365  -12.2742 C.ar    1  UNL1       -0.0011
      6 C         -23.6479   -9.2037  -13.4059 C.ar    1  UNL1        0.0366
      7 O         -23.5498   -7.7001  -15.3638 O.3     1  UNL1       -0.4750
      8 C         -22.9257   -7.6052  -16.6442 C.3     1  UNL1        0.2117
      9 C         -23.2701   -8.8249  -17.5030 C.3     1  UNL1        0.0931
     10 C         -22.0965  -12.3921  -15.4280 C.ar    1  UNL1        0.0032
     11 C         -21.1819  -11.3692  -15.7259 C.ar    1  UNL1        0.0946
     12 N         -21.5867  -10.2552  -16.3901 N.ar    1  UNL1       -0.2483
     13 C         -22.8713  -10.0911  -16.8041 C.ar    1  UNL1        0.0632
     14 C         -23.8192  -11.0852  -16.5324 C.ar    1  UNL1        0.0212
     15 C         -23.4339  -12.2435  -15.8518 C.ar    1  UNL1        0.0333
     16 BR        -24.7683  -13.5844  -15.5302 Br      1  UNL1       -0.0492
     17 C         -20.8054  -13.2668  -13.4757 C.3     1  UNL1        0.0051
     18 C         -21.6145  -13.6323  -14.7163 C.3     1  UNL1        0.0284
     19 C         -21.0512   -9.9036  -10.7015 C.3     1  UNL1        0.0468
     20 C         -19.9047   -8.9971  -10.2263 C.3     1  UNL1        0.1369
     21 S         -20.5589   -7.5482   -9.2899 S.3     1  UNL1       -0.0482
     22 C         -19.7123   -8.1034   -7.8201 C.2     1  UNL1        0.2792
     23 O         -19.8257   -7.5171   -6.7125 O.2     1  UNL1       -0.2625
     24 N         -18.9094   -9.2541   -7.9768 N.am    1  UNL1       -0.2460
     25 C         -18.9891   -9.7429   -9.3017 C.2     1  UNL1        0.2392
     26 O         -18.3162  -10.7401   -9.6756 O.2     1  UNL1       -0.2737
     27 H         -18.3343   -9.6844   -7.2187 H       1  UNL1        0.1583
@<TRIPOS>BOND
     1    17    18    1
     2    18    10    1
     3    10    11   ar
     4    11    12   ar
     5    12    13   ar
     6    13     9    1
     7     9     8    1
     8     8     7    1
     9     7     1    1
    10     1     2   ar
    11     2     3   ar
    12     3     4   ar
    13     4    19    1
    14    19    20    1
    15    20    21    1
    16    21    22    1
    17    22    23    2
    18    22    24   am
    19    24    25   am
    20    25    26    2
    21     4     5   ar
    22     5     6   ar
    23    13    14   ar
    24    14    15   ar
    25    15    16    1
    26    15    10   ar
    27     6     1   ar
    28    25    20    1
    29    24    27    1
@<TRIPOS>MOLECULE
*****
 27 29 0 0 0
SMALL
GASTEIGER

@<TRIPOS>ATOM
      1 C         -25.4126  -13.2620  -14.4444 C.ar    1  UNL1        0.1385
      2 C         -25.1302  -13.2540  -13.0736 C.ar    1  UNL1        0.0366
      3 C         -24.9975  -12.0476  -12.3808 C.ar    1  UNL1       -0.0011
      4 C         -25.1538  -10.8251  -13.0511 C.ar    1  UNL1       -0.0206
      5 C         -25.4366  -10.8277  -14.4257 C.ar    1  UNL1       -0.0011
      6 C         -25.5689  -12.0346  -15.1184 C.ar    1  UNL1        0.0366
      7 O         -25.5333  -14.5047  -15.0883 O.3     1  UNL1       -0.4750
      8 C         -24.6462  -15.0102  -16.0860 C.3     1  UNL1        0.2117
      9 C         -23.1980  -14.9660  -15.5915 C.3     1  UNL1        0.0931
     10 C         -21.7646  -10.9262  -15.7723 C.ar    1  UNL1        0.0032
     11 C         -22.1624  -11.6270  -16.9221 C.ar    1  UNL1        0.0946
     12 N         -22.6058  -12.9079  -16.8291 N.ar    1  UNL1       -0.2483
     13 C         -22.6672  -13.5636  -15.6396 C.ar    1  UNL1        0.0632
     14 C         -22.2787  -12.9070  -14.4655 C.ar    1  UNL1        0.0212
     15 C         -21.8170  -11.5892  -14.5282 C.ar    1  UNL1        0.0333
     16 BR        -21.2726  -10.7477  -12.8919 Br      1  UNL1       -0.0492
     17 C         -22.3490   -8.5766  -16.3898 C.3     1  UNL1        0.0051
     18 C         -21.2474   -9.5150  -15.9071 C.3     1  UNL1        0.0284
     19 C         -24.9831   -9.5254  -12.3065 C.3     1  UNL1        0.0468
     20 C         -25.2018   -8.3147  -13.2278 C.3     1  UNL1        0.1369
     21 S         -26.8563   -7.5543  -12.9302 S.3     1  UNL1       -0.0482
     22 C         -26.0755   -6.0418  -12.3935 C.2     1  UNL1        0.2792
     23 O         -26.7312   -5.0610  -11.9560 O.2     1  UNL1       -0.2625
     24 N         -24.6667   -6.0179  -12.4826 N.am    1  UNL1       -0.2460
     25 C         -24.1748   -7.2547  -12.9611 C.2     1  UNL1        0.2392
     26 O         -22.9446   -7.4399  -13.1598 O.2     1  UNL1       -0.2737
     27 H         -24.0698   -5.1987  -12.2311 H       1  UNL1        0.1583
@<TRIPOS>BOND
     1    17    18    1
     2    18    10    1
     3    10    11   ar
     4    11    12   ar
     5    12    13   ar
     6    13     9    1
     7     9     8    1
     8     8     7    1
     9     7     1    1
    10     1     2   ar
    11     2     3   ar
    12     3     4   ar
    13     4    19    1
    14    19    20    1
    15    20    21    1
    16    21    22    1
    17    22    23    2
    18    22    24   am
    19    24    25   am
    20    25    26    2
    21     4     5   ar
    22     5     6   ar
    23    13    14   ar
    24    14    15   ar
    25    15    16    1
    26    15    10   ar
    27     6     1   ar
    28    25    20    1
    29    24    27    1
@<TRIPOS>MOLECULE
*****
 27 29 0 0 0
SMALL
GASTEIGER

@<TRIPOS>ATOM
      1 C         -23.0172   -8.8400  -13.9604 C.ar    1  UNL1        0.1385
      2 C         -21.7251   -8.3953  -13.6578 C.ar    1  UNL1        0.0366
      3 C         -21.1040   -8.7709  -12.4636 C.ar    1  UNL1       -0.0011
      4 C         -21.7670   -9.6075  -11.5532 C.ar    1  UNL1       -0.0206
      5 C         -23.0629  -10.0559  -11.8518 C.ar    1  UNL1       -0.0011
      6 C         -23.6839   -9.6796  -13.0462 C.ar    1  UNL1        0.0366
      7 O         -23.5916   -8.4289  -15.1747 O.3     1  UNL1       -0.4750
      8 C         -22.8788   -8.1842  -16.3871 C.3     1  UNL1        0.2117
      9 C         -22.9488   -9.4045  -17.3089 C.3     1  UNL1        0.0931
     10 C         -23.9710  -12.9667  -15.1472 C.ar    1  UNL1        0.0032
     11 C         -24.9493  -12.1260  -15.7018 C.ar    1  UNL1        0.0946
     12 N         -24.5902  -11.0020  -16.3752 N.ar    1  UNL1       -0.2483
     13 C         -23.2889  -10.6379  -16.5255 C.ar    1  UNL1        0.0632
     14 C         -22.2776  -11.4432  -15.9878 C.ar    1  UNL1        0.0212
     15 C         -22.6146  -12.6055  -15.2886 C.ar    1  UNL1        0.0333
     16 BR        -21.1893  -13.6568  -14.5500 Br      1  UNL1       -0.0492
     17 C         -25.7295  -13.9552  -13.6727 C.3     1  UNL1        0.0051
     18 C         -24.3978  -14.1928  -14.3780 C.3     1  UNL1        0.0284
     19 C         -21.1049   -9.9887  -10.2535 C.3     1  UNL1        0.0468
     20 C         -19.9533   -9.0322   -9.9054 C.3     1  UNL1        0.1369
     21 S         -20.5735   -7.5768   -8.9562 S.3     1  UNL1       -0.0482
     22 C         -19.5847   -8.0596   -7.5509 C.2     1  UNL1        0.2792
     23 O         -19.6223   -7.4435   -6.4544 O.2     1  UNL1       -0.2625
     24 N         -18.7595   -9.1886   -7.7450 N.am    1  UNL1       -0.2460
     25 C         -18.9364   -9.7201   -9.0438 C.2     1  UNL1        0.2392
     26 O         -18.2646  -10.7064   -9.4472 O.2     1  UNL1       -0.2737
     27 H         -18.1069   -9.5771   -7.0282 H       1  UNL1        0.1583
@<TRIPOS>BOND
     1    17    18    1
     2    18    10    1
     3    10    11   ar
     4    11    12   ar
     5    12    13   ar
     6    13     9    1
     7     9     8    1
     8     8     7    1
     9     7     1    1
    10     1     2   ar
    11     2     3   ar
    12     3     4   ar
    13     4    19    1
    14    19    20    1
    15    20    21    1
    16    21    22    1
    17    22    23    2
    18    22    24   am
    19    24    25   am
    20    25    26    2
    21     4     5   ar
    22     5     6   ar
    23    13    14   ar
    24    14    15   ar
    25    15    16    1
    26    15    10   ar
    27     6     1   ar
    28    25    20    1
    29    24    27    1
@<TRIPOS>MOLECULE
*****
 27 29 0 0 0
SMALL
GASTEIGER

@<TRIPOS>ATOM
      1 C         -22.2672  -10.1303  -10.4871 C.ar    1  UNL1        0.1385
      2 C         -23.6639  -10.0523  -10.4403 C.ar    1  UNL1        0.0366
      3 C         -24.4460  -10.7042  -11.3975 C.ar    1  UNL1       -0.0011
      4 C         -23.8395  -11.4540  -12.4164 C.ar    1  UNL1       -0.0206
      5 C         -22.4394  -11.5351  -12.4679 C.ar    1  UNL1       -0.0011
      6 C         -21.6573  -10.8825  -11.5105 C.ar    1  UNL1        0.0366
      7 O         -21.5328   -9.4532   -9.4993 O.3     1  UNL1       -0.4750
      8 C         -21.8262   -8.1497   -8.9968 C.3     1  UNL1        0.2117
      9 C         -21.1915   -7.0750   -9.8833 C.3     1  UNL1        0.0931
     10 C         -22.2565   -7.7560  -13.9833 C.ar    1  UNL1        0.0032
     11 C         -20.9371   -7.8957  -13.5239 C.ar    1  UNL1        0.0946
     12 N         -20.6339   -7.6662  -12.2195 N.ar    1  UNL1       -0.2483
     13 C         -21.5765   -7.2809  -11.3186 C.ar    1  UNL1        0.0632
     14 C         -22.9059   -7.1258  -11.7301 C.ar    1  UNL1        0.0212
     15 C         -23.2495   -7.3535  -13.0656 C.ar    1  UNL1        0.0333
     16 BR        -25.0809   -7.0999  -13.5794 Br      1  UNL1       -0.0492
     17 C         -21.2936   -8.3493  -16.2113 C.3     1  UNL1        0.0051
     18 C         -22.5608   -7.9872  -15.4431 C.3     1  UNL1        0.0284
     19 C         -24.6852  -12.1336  -13.4632 C.3     1  UNL1        0.0468
     20 C         -23.8194  -12.8806  -14.4901 C.3     1  UNL1        0.1369
     21 S         -24.1909  -14.6877  -14.4707 S.3     1  UNL1       -0.0482
     22 C         -24.7669  -14.5973  -16.1576 C.2     1  UNL1        0.2792
     23 O         -25.2606  -15.5874  -16.7571 O.2     1  UNL1       -0.2625
     24 N         -24.6416  -13.3353  -16.7780 N.am    1  UNL1       -0.2460
     25 C         -24.1011  -12.3872  -15.8782 C.2     1  UNL1        0.2392
     26 O         -23.8626  -11.2032  -16.2363 O.2     1  UNL1       -0.2737
     27 H         -24.9098  -13.1304  -17.7662 H       1  UNL1        0.1583
@<TRIPOS>BOND
     1    17    18    1
     2    18    10    1
     3    10    11   ar
     4    11    12   ar
     5    12    13   ar
     6    13     9    1
     7     9     8    1
     8     8     7    1
     9     7     1    1
    10     1     2   ar
    11     2     3   ar
    12     3     4   ar
    13     4    19    1
    14    19    20    1
    15    20    21    1
    16    21    22    1
    17    22    23    2
    18    22    24   am
    19    24    25   am
    20    25    26    2
    21     4     5   ar
    22     5     6   ar
    23    13    14   ar
    24    14    15   ar
    25    15    16    1
    26    15    10   ar
    27     6     1   ar
    28    25    20    1
    29    24    27    1
@<TRIPOS>MOLECULE
*****
 27 29 0 0 0
SMALL
GASTEIGER

@<TRIPOS>ATOM
      1 C         -21.7095   -9.3892  -14.7954 C.ar    1  UNL1        0.1385
      2 C         -21.8330  -10.5895  -14.0862 C.ar    1  UNL1        0.0366
      3 C         -21.8367  -10.5939  -12.6888 C.ar    1  UNL1       -0.0011
      4 C         -21.7239   -9.3905  -11.9765 C.ar    1  UNL1       -0.0206
      5 C         -21.5995   -8.1842  -12.6830 C.ar    1  UNL1       -0.0011
      6 C         -21.5955   -8.1803  -14.0808 C.ar    1  UNL1        0.0366
      7 O         -21.7106   -9.4464  -16.1991 O.3     1  UNL1       -0.4750
      8 C         -22.8522   -9.2568  -17.0349 C.3     1  UNL1        0.2117
      9 C         -23.2404  -10.5684  -17.7224 C.3     1  UNL1        0.0931
     10 C         -25.0644  -13.2841  -14.9465 C.ar    1  UNL1        0.0032
     11 C         -25.5479  -11.9800  -15.1390 C.ar    1  UNL1        0.0946
     12 N         -24.9421  -11.1441  -16.0221 N.ar    1  UNL1       -0.2483
     13 C         -23.8477  -11.5212  -16.7354 C.ar    1  UNL1        0.0632
     14 C         -23.3273  -12.8112  -16.5757 C.ar    1  UNL1        0.0212
     15 C         -23.9275  -13.6945  -15.6741 C.ar    1  UNL1        0.0333
     16 BR        -23.1562  -15.4404  -15.4759 Br      1  UNL1       -0.0492
     17 C         -25.6874  -13.5650  -12.5431 C.3     1  UNL1        0.0051
     18 C         -25.7371  -14.1820  -13.9374 C.3     1  UNL1        0.0284
     19 C         -21.7008   -9.4013  -10.4691 C.3     1  UNL1        0.0468
     20 C         -22.9395   -8.7071   -9.8810 C.3     1  UNL1        0.1369
     21 S         -24.4853   -9.3719  -10.6375 S.3     1  UNL1       -0.0482
     22 C         -25.0132   -9.9828   -9.0457 C.2     1  UNL1        0.2792
     23 O         -26.0668  -10.6540   -8.8949 O.2     1  UNL1       -0.2625
     24 N         -24.1646   -9.6715   -7.9611 N.am    1  UNL1       -0.2460
     25 C         -23.0310   -8.9508   -8.4039 C.2     1  UNL1        0.2392
     26 O         -22.1614   -8.5319   -7.5944 O.2     1  UNL1       -0.2737
     27 H         -24.3495   -9.9360   -6.9679 H       1  UNL1        0.1583
@<TRIPOS>BOND
     1    17    18    1
     2    18    10    1
     3    10    11   ar
     4    11    12   ar
     5    12    13   ar
     6    13     9    1
     7     9     8    1
     8     8     7    1
     9     7     1    1
    10     1     2   ar
    11     2     3   ar
    12     3     4   ar
    13     4    19    1
    14    19    20    1
    15    20    21    1
    16    21    22    1
    17    22    23    2
    18    22    24   am
    19    24    25   am
    20    25    26    2
    21     4     5   ar
    22     5     6   ar
    23    13    14   ar
    24    14    15   ar
    25    15    16    1
    26    15    10   ar
    27     6     1   ar
    28    25    20    1
    29    24    27    1
