@<TRIPOS>MOLECULE
*****
 45 50 0 0 0
SMALL
GASTEIGER

@<TRIPOS>ATOM
      1 C         -30.8020   47.3448   -5.8533 C.ar    1  UNL1        0.0702
      2 C         -31.2980   48.4418   -5.1318 C.ar    1  UNL1        0.0191
      3 C         -31.2086   48.4630   -3.7391 C.ar    1  UNL1        0.0356
      4 C         -30.6361   47.3725   -3.0633 C.ar    1  UNL1        0.1318
      5 N         -30.1760   46.3133   -3.7855 N.ar    1  UNL1       -0.2279
      6 C         -30.2524   46.2712   -5.1417 C.ar    1  UNL1        0.1149
      7 N         -30.5222   47.3567   -1.6256 N.pl3   1  UNL1       -0.2932
      8 C         -30.7724   48.5706   -0.8351 C.3     1  UNL1        0.0923
      9 C         -31.4742   48.2235    0.4839 C.3     1  UNL1        0.0252
     10 C         -30.7620   47.0915    1.2522 C.3     1  UNL1        0.0472
     11 C         -30.5740   45.8639    0.3400 C.3     1  UNL1        0.0252
     12 C         -29.8627   46.2193   -0.9700 C.3     1  UNL1        0.0923
     13 C         -29.4335   47.5495    1.8835 C.3     1  UNL1        0.2054
     14 O         -29.5243   47.4828    3.3051 O.3     1  UNL1       -0.4755
     15 C         -30.2133   48.4092    4.1014 C.ar    1  UNL1        0.1388
     16 C         -30.7256   48.0797    5.3700 C.ar    1  UNL1        0.0369
     17 C         -31.4036   49.0397    6.1239 C.ar    1  UNL1        0.0033
     18 C         -31.5780   50.3323    5.6247 C.ar    1  UNL1        0.0066
     19 C         -31.0734   50.6796    4.3592 C.ar    1  UNL1        0.0785
     20 C         -30.3919   49.7070    3.6060 C.ar    1  UNL1        0.0433
     21 C         -31.2545   52.0472    3.8241 C.2     1  UNL1        0.3381
     22 O         -31.4424   52.2311    2.5909 O.2     1  UNL1       -0.2451
     23 O         -31.2189   53.1460    4.6790 O.3     1  UNL1       -0.4771
     24 H         -31.3418   54.0864    4.3230 H       1  UNL1        0.2954
     25 C         -29.8719   46.7352   -8.1356 C.2     1  UNL1        0.2839
     26 O         -28.9314   46.0564   -7.6423 O.2     1  UNL1       -0.2665
     27 N         -30.8980   47.2742   -7.2864 N.am    1  UNL1       -0.2766
     28 H         -31.8027   47.5550   -7.7281 H       1  UNL1        0.1553
     29 C         -30.2088   47.9483  -14.0150 C.ar    1  UNL1        0.0002
     30 C         -30.0435   46.5376  -14.0622 C.ar    1  UNL1        0.0031
     31 C         -29.9167   45.7870  -12.8805 C.ar    1  UNL1        0.0375
     32 C         -29.9577   46.4662  -11.6680 C.ar    1  UNL1        0.1452
     33 O         -29.8569   45.9542  -10.4656 O.2     1  UNL1       -0.4492
     34 C         -29.9440   46.9435   -9.5943 C.ar    1  UNL1        0.1946
     35 C         -30.1113   48.1598  -10.2660 C.ar    1  UNL1        0.0202
     36 C         -30.2539   49.5259   -9.6652 C.3     1  UNL1        0.0345
     37 C         -30.1172   47.8246  -11.6065 C.ar    1  UNL1        0.0337
     38 C         -30.2460   48.6009  -12.7593 C.ar    1  UNL1        0.0028
     39 C         -30.7144   51.0277  -18.9097 C.3     1  UNL1        0.0310
     40 C         -30.5999   50.2070  -17.6593 C.ar    1  UNL1       -0.0218
     41 C         -29.4765   49.3956  -17.4469 C.ar    1  UNL1       -0.0043
     42 C         -29.3511   48.6584  -16.2659 C.ar    1  UNL1       -0.0003
     43 C         -30.3417   48.7312  -15.2698 C.ar    1  UNL1       -0.0000
     44 C         -31.4576   49.5612  -15.4805 C.ar    1  UNL1       -0.0003
     45 C         -31.5818   50.2970  -16.6626 C.ar    1  UNL1       -0.0043
@<TRIPOS>BOND
     1    39    40    1
     2    40    41   ar
     3    41    42   ar
     4    42    43   ar
     5    43    29    1
     6    29    30   ar
     7    30    31   ar
     8    31    32   ar
     9    32    33   ar
    10    33    34   ar
    11    34    25    1
    12    25    26    2
    13    25    27   am
    14    27     1    1
    15     1     2   ar
    16     2     3   ar
    17     3     4   ar
    18     4     7    1
    19     7     8    1
    20     8     9    1
    21     9    10    1
    22    10    13    1
    23    13    14    1
    24    14    15    1
    25    15    16   ar
    26    16    17   ar
    27    17    18   ar
    28    18    19   ar
    29    19    21    1
    30    21    22    2
    31    21    23    1
    32    19    20   ar
    33    10    11    1
    34    11    12    1
    35     4     5   ar
    36     5     6   ar
    37    34    35   ar
    38    35    36    1
    39    35    37   ar
    40    37    38   ar
    41    43    44   ar
    42    44    45   ar
    43    45    40   ar
    44    38    29   ar
    45    37    32   ar
    46     6     1   ar
    47    12     7    1
    48    20    15   ar
    49    27    28    1
    50    23    24    1
@<TRIPOS>MOLECULE
*****
 45 50 0 0 0
SMALL
GASTEIGER

@<TRIPOS>ATOM
      1 C         -30.6223   46.6053   -5.1696 C.ar    1  UNL1        0.0702
      2 C         -30.6539   47.8715   -4.5649 C.ar    1  UNL1        0.0191
      3 C         -30.6487   47.9841   -3.1736 C.ar    1  UNL1        0.0356
      4 C         -30.6298   46.8230   -2.3830 C.ar    1  UNL1        0.1318
      5 N         -30.6148   45.6058   -2.9941 N.ar    1  UNL1       -0.2279
      6 C         -30.6193   45.4723   -4.3466 C.ar    1  UNL1        0.1149
      7 N         -30.6207   46.8962   -0.9426 N.pl3   1  UNL1       -0.2932
      8 C         -30.6524   48.1938   -0.2525 C.3     1  UNL1        0.0923
      9 C         -31.5016   48.1093    1.0221 C.3     1  UNL1        0.0252
     10 C         -31.1087   46.9152    1.9159 C.3     1  UNL1        0.0472
     11 C         -31.1324   45.6079    1.1003 C.3     1  UNL1        0.0252
     12 C         -30.2727   45.6993   -0.1650 C.3     1  UNL1        0.0923
     13 C         -29.7585   47.1269    2.6266 C.3     1  UNL1        0.2054
     14 O         -29.9783   47.4473    3.9988 O.3     1  UNL1       -0.4755
     15 C         -30.5058   48.6639    4.4558 C.ar    1  UNL1        0.1388
     16 C         -30.8780   48.8681    5.7974 C.ar    1  UNL1        0.0369
     17 C         -31.3977   50.0994    6.2017 C.ar    1  UNL1        0.0033
     18 C         -31.5516   51.1359    5.2784 C.ar    1  UNL1        0.0066
     19 C         -31.1856   50.9500    3.9337 C.ar    1  UNL1        0.0785
     20 C         -30.6631   49.7069    3.5344 C.ar    1  UNL1        0.0433
     21 C         -31.3459   52.0438    2.9501 C.2     1  UNL1        0.3381
     22 O         -31.5759   53.2218    3.3365 O.2     1  UNL1       -0.2451
     23 O         -31.2440   51.7819    1.5862 O.3     1  UNL1       -0.4771
     24 H         -31.3521   52.5235    0.9045 H       1  UNL1        0.2954
     25 C         -29.6405   46.9529   -7.4849 C.2     1  UNL1        0.2839
     26 O         -28.5338   47.3453   -7.0270 O.2     1  UNL1       -0.2665
     27 N         -30.6518   46.4469   -6.5985 N.am    1  UNL1       -0.2766
     28 H         -31.4113   45.8563   -7.0073 H       1  UNL1        0.1553
     29 C         -30.4517   46.7148  -13.4379 C.ar    1  UNL1        0.0002
     30 C         -31.1165   47.9365  -13.1459 C.ar    1  UNL1        0.0031
     31 C         -31.1876   48.4212  -11.8284 C.ar    1  UNL1        0.0375
     32 C         -30.5890   47.6700  -10.8231 C.ar    1  UNL1        0.1452
     33 O         -30.5461   47.9457   -9.5425 O.2     1  UNL1       -0.4492
     34 C         -29.8851   46.9735   -8.9396 C.ar    1  UNL1        0.1946
     35 C         -29.4772   46.0185   -9.8777 C.ar    1  UNL1        0.0202
     36 C         -28.7031   44.7596   -9.6260 C.3     1  UNL1        0.0345
     37 C         -29.9444   46.4918  -11.0890 C.ar    1  UNL1        0.0337
     38 C         -29.8547   45.9809  -12.3848 C.ar    1  UNL1        0.0028
     39 C         -30.2081   44.7545  -18.8963 C.3     1  UNL1        0.0310
     40 C         -30.2383   45.2577  -17.4835 C.ar    1  UNL1       -0.0218
     41 C         -30.1442   46.6316  -17.2204 C.ar    1  UNL1       -0.0043
     42 C         -30.2087   47.1049  -15.9067 C.ar    1  UNL1       -0.0003
     43 C         -30.3829   46.2123  -14.8335 C.ar    1  UNL1       -0.0000
     44 C         -30.4951   44.8367  -15.1051 C.ar    1  UNL1       -0.0003
     45 C         -30.4294   44.3650  -16.4194 C.ar    1  UNL1       -0.0043
@<TRIPOS>BOND
     1    39    40    1
     2    40    41   ar
     3    41    42   ar
     4    42    43   ar
     5    43    29    1
     6    29    30   ar
     7    30    31   ar
     8    31    32   ar
     9    32    33   ar
    10    33    34   ar
    11    34    25    1
    12    25    26    2
    13    25    27   am
    14    27     1    1
    15     1     2   ar
    16     2     3   ar
    17     3     4   ar
    18     4     7    1
    19     7     8    1
    20     8     9    1
    21     9    10    1
    22    10    13    1
    23    13    14    1
    24    14    15    1
    25    15    16   ar
    26    16    17   ar
    27    17    18   ar
    28    18    19   ar
    29    19    21    1
    30    21    22    2
    31    21    23    1
    32    19    20   ar
    33    10    11    1
    34    11    12    1
    35     4     5   ar
    36     5     6   ar
    37    34    35   ar
    38    35    36    1
    39    35    37   ar
    40    37    38   ar
    41    43    44   ar
    42    44    45   ar
    43    45    40   ar
    44    38    29   ar
    45    37    32   ar
    46     6     1   ar
    47    12     7    1
    48    20    15   ar
    49    27    28    1
    50    23    24    1
@<TRIPOS>MOLECULE
*****
 45 50 0 0 0
SMALL
GASTEIGER

@<TRIPOS>ATOM
      1 C         -25.8249   50.7241   -9.8493 C.ar    1  UNL1        0.0702
      2 C         -25.7237   49.4876   -9.1929 C.ar    1  UNL1        0.0191
      3 C         -26.6957   48.5061   -9.3932 C.ar    1  UNL1        0.0356
      4 C         -27.7846   48.7698  -10.2409 C.ar    1  UNL1        0.1318
      5 N         -27.8677   49.9831  -10.8542 N.ar    1  UNL1       -0.2279
      6 C         -26.9331   50.9532  -10.6742 C.ar    1  UNL1        0.1149
      7 N         -28.8083   47.7816  -10.4767 N.pl3   1  UNL1       -0.2932
      8 C         -28.4666   46.4501  -10.9976 C.3     1  UNL1        0.0923
      9 C         -29.3546   45.3743  -10.3599 C.3     1  UNL1        0.0252
     10 C         -30.8545   45.7272  -10.4316 C.3     1  UNL1        0.0472
     11 C         -31.1018   47.1278   -9.8386 C.3     1  UNL1        0.0252
     12 C         -30.2175   48.1967  -10.4897 C.3     1  UNL1        0.0923
     13 C         -31.4260   45.5951  -11.8560 C.3     1  UNL1        0.2054
     14 O         -30.3626   45.5892  -12.8061 O.3     1  UNL1       -0.4755
     15 C         -30.3641   46.3178  -14.0046 C.ar    1  UNL1        0.1388
     16 C         -30.3865   47.7245  -14.0321 C.ar    1  UNL1        0.0369
     17 C         -30.3860   48.4026  -15.2527 C.ar    1  UNL1        0.0033
     18 C         -30.3632   47.6900  -16.4537 C.ar    1  UNL1        0.0066
     19 C         -30.3409   46.2843  -16.4457 C.ar    1  UNL1        0.0785
     20 C         -30.3418   45.6088  -15.2122 C.ar    1  UNL1        0.0433
     21 C         -30.3167   45.5230  -17.7143 C.2     1  UNL1        0.3381
     22 O         -31.3665   45.3905  -18.4000 O.2     1  UNL1       -0.2451
     23 O         -29.1321   44.9447  -18.1636 O.3     1  UNL1       -0.4771
     24 H         -29.1047   44.4216  -19.0307 H       1  UNL1        0.2954
     25 C         -23.4772   51.6723  -10.0359 C.2     1  UNL1        0.2839
     26 O         -23.0976   50.7518  -10.8087 O.2     1  UNL1       -0.2665
     27 N         -24.8578   51.7694   -9.6498 N.am    1  UNL1       -0.2766
     28 H         -25.1998   52.6846   -9.2781 H       1  UNL1        0.1553
     29 C         -19.7505   56.0375   -8.2447 C.ar    1  UNL1        0.0002
     30 C         -19.0714   54.9028   -7.7240 C.ar    1  UNL1        0.0031
     31 C         -19.5884   53.6082   -7.9041 C.ar    1  UNL1        0.0375
     32 C         -20.7814   53.4733   -8.6054 C.ar    1  UNL1        0.1452
     33 O         -21.4233   52.3633   -8.8770 O.2     1  UNL1       -0.4492
     34 C         -22.5104   52.6790   -9.5581 C.ar    1  UNL1        0.1946
     35 C         -22.5766   54.0651   -9.7388 C.ar    1  UNL1        0.0202
     36 C         -23.6380   54.8461  -10.4536 C.3     1  UNL1        0.0345
     37 C         -21.4465   54.5567   -9.1135 C.ar    1  UNL1        0.0337
     38 C         -20.9624   55.8560   -8.9534 C.ar    1  UNL1        0.0028
     39 C         -17.5999   61.3724   -7.4633 C.3     1  UNL1        0.0310
     40 C         -18.1279   59.9853   -7.6810 C.ar    1  UNL1       -0.0218
     41 C         -17.9210   58.9907   -6.7148 C.ar    1  UNL1       -0.0043
     42 C         -18.4435   57.7074   -6.8994 C.ar    1  UNL1       -0.0003
     43 C         -19.1950   57.4006   -8.0483 C.ar    1  UNL1       -0.0000
     44 C         -19.4149   58.4077   -9.0054 C.ar    1  UNL1       -0.0003
     45 C         -18.8908   59.6901   -8.8196 C.ar    1  UNL1       -0.0043
@<TRIPOS>BOND
     1    39    40    1
     2    40    41   ar
     3    41    42   ar
     4    42    43   ar
     5    43    29    1
     6    29    30   ar
     7    30    31   ar
     8    31    32   ar
     9    32    33   ar
    10    33    34   ar
    11    34    25    1
    12    25    26    2
    13    25    27   am
    14    27     1    1
    15     1     2   ar
    16     2     3   ar
    17     3     4   ar
    18     4     7    1
    19     7     8    1
    20     8     9    1
    21     9    10    1
    22    10    13    1
    23    13    14    1
    24    14    15    1
    25    15    16   ar
    26    16    17   ar
    27    17    18   ar
    28    18    19   ar
    29    19    21    1
    30    21    22    2
    31    21    23    1
    32    19    20   ar
    33    10    11    1
    34    11    12    1
    35     4     5   ar
    36     5     6   ar
    37    34    35   ar
    38    35    36    1
    39    35    37   ar
    40    37    38   ar
    41    43    44   ar
    42    44    45   ar
    43    45    40   ar
    44    38    29   ar
    45    37    32   ar
    46     6     1   ar
    47    12     7    1
    48    20    15   ar
    49    27    28    1
    50    23    24    1
@<TRIPOS>MOLECULE
*****
 45 50 0 0 0
SMALL
GASTEIGER

@<TRIPOS>ATOM
      1 C         -25.8937   50.7571   -9.9412 C.ar    1  UNL1        0.0702
      2 C         -25.7765   49.4928   -9.3431 C.ar    1  UNL1        0.0191
      3 C         -26.7591   48.5241   -9.5532 C.ar    1  UNL1        0.0356
      4 C         -27.8744   48.8281  -10.3517 C.ar    1  UNL1        0.1318
      5 N         -27.9723   50.0673  -10.9084 N.ar    1  UNL1       -0.2279
      6 C         -27.0277   51.0256  -10.7178 C.ar    1  UNL1        0.1149
      7 N         -28.9100   47.8544  -10.5959 N.pl3   1  UNL1       -0.2932
      8 C         -28.5743   46.4708  -10.9617 C.3     1  UNL1        0.0923
      9 C         -29.5591   45.4860  -10.3191 C.3     1  UNL1        0.0252
     10 C         -31.0308   45.8768  -10.5648 C.3     1  UNL1        0.0472
     11 C         -31.2766   47.3330  -10.1246 C.3     1  UNL1        0.0252
     12 C         -30.2946   48.3098  -10.7802 C.3     1  UNL1        0.0923
     13 C         -31.4730   45.6321  -12.0200 C.3     1  UNL1        0.2054
     14 O         -30.3339   45.6257  -12.8779 O.3     1  UNL1       -0.4755
     15 C         -30.3266   46.1150  -14.1924 C.ar    1  UNL1        0.1388
     16 C         -30.5513   45.2861  -15.3071 C.ar    1  UNL1        0.0369
     17 C         -30.5345   45.8234  -16.5958 C.ar    1  UNL1        0.0033
     18 C         -30.2948   47.1859  -16.7872 C.ar    1  UNL1        0.0066
     19 C         -30.0679   48.0293  -15.6855 C.ar    1  UNL1        0.0785
     20 C         -30.0862   47.4805  -14.3908 C.ar    1  UNL1        0.0433
     21 C         -29.8133   49.4738  -15.8810 C.2     1  UNL1        0.3381
     22 O         -30.7639   50.2606  -16.1406 O.2     1  UNL1       -0.2451
     23 O         -28.5194   49.9786  -15.7801 O.3     1  UNL1       -0.4771
     24 H         -28.3343   50.9659  -15.9121 H       1  UNL1        0.2954
     25 C         -23.5251   51.6623  -10.0677 C.2     1  UNL1        0.2839
     26 O         -23.1365   50.7214  -10.8109 O.2     1  UNL1       -0.2665
     27 N         -24.9156   51.7896   -9.7290 N.am    1  UNL1       -0.2766
     28 H         -25.2537   52.7171   -9.3852 H       1  UNL1        0.1553
     29 C         -19.7864   55.9976   -8.2294 C.ar    1  UNL1        0.0002
     30 C         -19.1334   54.8595   -7.6836 C.ar    1  UNL1        0.0031
     31 C         -19.6622   53.5697   -7.8643 C.ar    1  UNL1        0.0375
     32 C         -20.8405   53.4430   -8.5914 C.ar    1  UNL1        0.1452
     33 O         -21.4897   52.3385   -8.8681 O.2     1  UNL1       -0.4492
     34 C         -22.5571   52.6614   -9.5766 C.ar    1  UNL1        0.1946
     35 C         -22.6020   54.0466   -9.7706 C.ar    1  UNL1        0.0202
     36 C         -23.6371   54.8340  -10.5162 C.3     1  UNL1        0.0345
     37 C         -21.4805   54.5299   -9.1240 C.ar    1  UNL1        0.0337
     38 C         -20.9840   55.8246   -8.9640 C.ar    1  UNL1        0.0028
     39 C         -17.5883   61.3127   -7.4446 C.3     1  UNL1        0.0310
     40 C         -18.1285   59.9304   -7.6629 C.ar    1  UNL1       -0.0218
     41 C         -17.9406   58.9367   -6.6918 C.ar    1  UNL1       -0.0043
     42 C         -18.4746   57.6583   -6.8773 C.ar    1  UNL1       -0.0003
     43 C         -19.2188   57.3555   -8.0321 C.ar    1  UNL1       -0.0000
     44 C         -19.4197   58.3618   -8.9942 C.ar    1  UNL1       -0.0003
     45 C         -18.8841   59.6394   -8.8075 C.ar    1  UNL1       -0.0043
@<TRIPOS>BOND
     1    39    40    1
     2    40    41   ar
     3    41    42   ar
     4    42    43   ar
     5    43    29    1
     6    29    30   ar
     7    30    31   ar
     8    31    32   ar
     9    32    33   ar
    10    33    34   ar
    11    34    25    1
    12    25    26    2
    13    25    27   am
    14    27     1    1
    15     1     2   ar
    16     2     3   ar
    17     3     4   ar
    18     4     7    1
    19     7     8    1
    20     8     9    1
    21     9    10    1
    22    10    13    1
    23    13    14    1
    24    14    15    1
    25    15    16   ar
    26    16    17   ar
    27    17    18   ar
    28    18    19   ar
    29    19    21    1
    30    21    22    2
    31    21    23    1
    32    19    20   ar
    33    10    11    1
    34    11    12    1
    35     4     5   ar
    36     5     6   ar
    37    34    35   ar
    38    35    36    1
    39    35    37   ar
    40    37    38   ar
    41    43    44   ar
    42    44    45   ar
    43    45    40   ar
    44    38    29   ar
    45    37    32   ar
    46     6     1   ar
    47    12     7    1
    48    20    15   ar
    49    27    28    1
    50    23    24    1
