@<TRIPOS>MOLECULE
*****
 36 39 0 0 0
SMALL
GASTEIGER

@<TRIPOS>ATOM
      1 N          -9.3928  -10.6416   31.7331 N.am    1  UNL1       -0.2685
      2 C          -9.1011  -11.4971   32.8508 C.2     1  UNL1        0.2672
      3 O          -7.9776  -11.4136   33.4162 O.2     1  UNL1       -0.2682
      4 C         -10.1049  -12.4754   33.3189 C.ar    1  UNL1        0.1347
      5 C         -11.1355  -12.9217   32.4773 C.ar    1  UNL1        0.0238
      6 C         -12.0502  -13.8718   32.9512 C.ar    1  UNL1        0.0031
      7 C         -13.0872  -14.3439   32.1315 C.ar    1  UNL1        0.0001
      8 C         -13.9889  -15.2946   32.6199 C.ar    1  UNL1        0.0000
      9 C         -13.8627  -15.7796   33.9250 C.ar    1  UNL1        0.0000
     10 C         -12.8339  -15.3169   34.7509 C.ar    1  UNL1        0.0015
     11 C         -11.9243  -14.3633   34.2704 C.ar    1  UNL1        0.0192
     12 C         -10.8853  -13.8854   35.0763 C.ar    1  UNL1        0.0989
     13 N         -10.0138  -12.9676   34.5853 N.ar    1  UNL1       -0.2393
     14 C         -10.0589   -9.3393   31.9320 C.3     1  UNL1        0.1007
     15 C         -11.4546   -9.3508   31.2936 C.3     1  UNL1        0.0265
     16 C          -7.0984   -6.9154   31.6031 C.ar    1  UNL1        0.0324
     17 C          -7.4323   -6.2306   30.4228 C.ar    1  UNL1        0.1383
     18 F          -6.6085   -5.2773   29.9181 F       1  UNL1       -0.2044
     19 C          -8.6164   -6.5298   29.7499 C.ar    1  UNL1        0.0292
     20 C          -9.4811   -7.5059   30.2446 C.ar    1  UNL1        0.0018
     21 C          -9.1831   -8.1917   31.4392 C.ar    1  UNL1        0.0231
     22 C          -7.9854   -7.8803   32.1174 C.ar    1  UNL1        0.1358
     23 F          -7.6708   -8.5244   33.2707 F       1  UNL1       -0.2047
     24 C          -4.6049   -6.9735   31.4933 C.3     1  UNL1        0.0052
     25 C          -5.8186   -6.5924   32.3340 C.3     1  UNL1        0.0309
     26 C          -8.8870  -11.0311   30.4109 C.3     1  UNL1        0.1207
     27 C          -7.4218  -10.7070   30.3066 C.ar    1  UNL1       -0.0021
     28 C          -6.5500  -11.0219   31.3597 C.ar    1  UNL1       -0.0026
     29 C          -5.1761  -10.8192   31.2187 C.ar    1  UNL1       -0.0001
     30 C          -4.6593  -10.3116   30.0241 C.ar    1  UNL1        0.0064
     31 C          -5.5163   -9.9946   28.9563 C.ar    1  UNL1        0.0752
     32 C          -6.9009  -10.1904   29.1104 C.ar    1  UNL1        0.0038
     33 C          -4.9650   -9.4782   27.6842 C.2     1  UNL1        0.3380
     34 O          -3.8163   -8.9593   27.6495 O.2     1  UNL1       -0.2451
     35 O          -5.7127   -9.5569   26.5121 O.3     1  UNL1       -0.4771
     36 H          -5.3457   -9.2042   25.6362 H       1  UNL1        0.2954
@<TRIPOS>BOND
     1    24    25    1
     2    25    16    1
     3    16    17   ar
     4    17    18    1
     5    17    19   ar
     6    19    20   ar
     7    20    21   ar
     8    21    14    1
     9    14    15    1
    10    14     1    1
    11     1    26    1
    12    26    27    1
    13    27    28   ar
    14    28    29   ar
    15    29    30   ar
    16    30    31   ar
    17    31    33    1
    18    33    34    2
    19    33    35    1
    20    31    32   ar
    21     1     2   am
    22     2     3    2
    23     2     4    1
    24     4     5   ar
    25     5     6   ar
    26     6     7   ar
    27     7     8   ar
    28     8     9   ar
    29     9    10   ar
    30    10    11   ar
    31    11    12   ar
    32    12    13   ar
    33    21    22   ar
    34    22    23    1
    35    22    16   ar
    36    32    27   ar
    37    13     4   ar
    38    11     6   ar
    39    35    36    1
@<TRIPOS>MOLECULE
*****
 36 39 0 0 0
SMALL
GASTEIGER

@<TRIPOS>ATOM
      1 N         -10.7928  -10.8199   30.5272 N.am    1  UNL1       -0.2685
      2 C         -10.6917   -9.8643   29.4582 C.2     1  UNL1        0.2672
      3 O         -11.1852  -10.1422   28.3321 O.2     1  UNL1       -0.2682
      4 C         -10.0004   -8.5765   29.6763 C.ar    1  UNL1        0.1347
      5 C          -8.6094   -8.5166   29.8526 C.ar    1  UNL1        0.0238
      6 C          -7.9895   -7.2721   30.0283 C.ar    1  UNL1        0.0031
      7 C          -6.5995   -7.1782   30.1993 C.ar    1  UNL1        0.0001
      8 C          -5.9973   -5.9277   30.3698 C.ar    1  UNL1        0.0000
      9 C          -6.7750   -4.7660   30.3709 C.ar    1  UNL1        0.0000
     10 C          -8.1604   -4.8468   30.2015 C.ar    1  UNL1        0.0015
     11 C          -8.7740   -6.0964   30.0297 C.ar    1  UNL1        0.0192
     12 C         -10.1582   -6.2041   29.8569 C.ar    1  UNL1        0.0989
     13 N         -10.7270   -7.4248   29.6855 N.ar    1  UNL1       -0.2393
     14 C         -11.9209  -10.7732   31.4781 C.3     1  UNL1        0.1007
     15 C         -11.9786   -9.4050   32.1709 C.3     1  UNL1        0.0265
     16 C         -12.6129  -14.1797   33.1107 C.ar    1  UNL1        0.0324
     17 C         -11.6289  -14.2102   34.1130 C.ar    1  UNL1        0.1383
     18 F         -11.5015  -15.2894   34.9263 F       1  UNL1       -0.2044
     19 C         -10.7635  -13.1295   34.2788 C.ar    1  UNL1        0.0292
     20 C         -10.8703  -12.0082   33.4564 C.ar    1  UNL1        0.0018
     21 C         -11.8634  -11.9403   32.4587 C.ar    1  UNL1        0.0231
     22 C         -12.7388  -13.0357   32.2998 C.ar    1  UNL1        0.1358
     23 F         -13.7055  -12.9997   31.3469 F       1  UNL1       -0.2047
     24 C         -12.8694  -16.4762   32.1656 C.3     1  UNL1        0.0052
     25 C         -13.5515  -15.3470   32.9303 C.3     1  UNL1        0.0309
     26 C          -9.8258  -11.9241   30.5642 C.3     1  UNL1        0.1207
     27 C          -8.4570  -11.3959   30.8960 C.ar    1  UNL1       -0.0021
     28 C          -8.0926  -11.1611   32.2302 C.ar    1  UNL1       -0.0026
     29 C          -6.7888  -10.7739   32.5446 C.ar    1  UNL1       -0.0001
     30 C          -5.8356  -10.6283   31.5337 C.ar    1  UNL1        0.0064
     31 C          -6.1804  -10.8636   30.1917 C.ar    1  UNL1        0.0752
     32 C          -7.4995  -11.2418   29.8817 C.ar    1  UNL1        0.0038
     33 C          -5.1639  -10.7305   29.1250 C.2     1  UNL1        0.3380
     34 O          -3.9933  -10.3520   29.4015 O.2     1  UNL1       -0.2451
     35 O          -5.4924  -11.0187   27.8029 O.3     1  UNL1       -0.4771
     36 H          -4.8046  -10.9287   27.0645 H       1  UNL1        0.2954
@<TRIPOS>BOND
     1    24    25    1
     2    25    16    1
     3    16    17   ar
     4    17    18    1
     5    17    19   ar
     6    19    20   ar
     7    20    21   ar
     8    21    14    1
     9    14    15    1
    10    14     1    1
    11     1    26    1
    12    26    27    1
    13    27    28   ar
    14    28    29   ar
    15    29    30   ar
    16    30    31   ar
    17    31    33    1
    18    33    34    2
    19    33    35    1
    20    31    32   ar
    21     1     2   am
    22     2     3    2
    23     2     4    1
    24     4     5   ar
    25     5     6   ar
    26     6     7   ar
    27     7     8   ar
    28     8     9   ar
    29     9    10   ar
    30    10    11   ar
    31    11    12   ar
    32    12    13   ar
    33    21    22   ar
    34    22    23    1
    35    22    16   ar
    36    32    27   ar
    37    13     4   ar
    38    11     6   ar
    39    35    36    1
@<TRIPOS>MOLECULE
*****
 36 39 0 0 0
SMALL
GASTEIGER

@<TRIPOS>ATOM
      1 N          -9.4275  -10.4591   31.5479 N.am    1  UNL1       -0.2685
      2 C          -9.0708  -11.3077   32.6519 C.2     1  UNL1        0.2672
      3 O          -7.9288  -11.1958   33.1736 O.2     1  UNL1       -0.2682
      4 C         -10.0302  -12.3119   33.1569 C.ar    1  UNL1        0.1347
      5 C         -11.0550  -12.8157   32.3411 C.ar    1  UNL1        0.0238
      6 C         -11.9264  -13.7881   32.8498 C.ar    1  UNL1        0.0031
      7 C         -12.9564  -14.3174   32.0566 C.ar    1  UNL1        0.0001
      8 C         -13.8146  -15.2897   32.5796 C.ar    1  UNL1        0.0000
      9 C         -13.6518  -15.7394   33.8933 C.ar    1  UNL1        0.0000
     10 C         -12.6296  -15.2197   34.6931 C.ar    1  UNL1        0.0015
     11 C         -11.7635  -14.2440   34.1777 C.ar    1  UNL1        0.0192
     12 C         -10.7321  -13.7092   34.9571 C.ar    1  UNL1        0.0989
     13 N          -9.9028  -12.7709   34.4326 N.ar    1  UNL1       -0.2393
     14 C         -10.1185   -9.1746   31.7748 C.3     1  UNL1        0.1007
     15 C         -11.4895   -9.1770   31.0848 C.3     1  UNL1        0.0265
     16 C          -7.1630   -6.7270   31.6266 C.ar    1  UNL1        0.0324
     17 C          -7.4861   -5.9730   30.4862 C.ar    1  UNL1        0.1383
     18 F          -6.6600   -4.9885   30.0493 F       1  UNL1       -0.2044
     19 C          -8.6615   -6.2342   29.7830 C.ar    1  UNL1        0.0292
     20 C          -9.5283   -7.2409   30.2080 C.ar    1  UNL1        0.0018
     21 C          -9.2413   -7.9968   31.3622 C.ar    1  UNL1        0.0231
     22 C          -8.0523   -7.7236   32.0716 C.ar    1  UNL1        0.1358
     23 F          -7.7484   -8.4354   33.1873 F       1  UNL1       -0.2047
     24 C          -4.6699   -6.8483   31.5730 C.3     1  UNL1        0.0052
     25 C          -5.8925   -6.4452   32.3901 C.3     1  UNL1        0.0309
     26 C          -8.9635  -10.8346   30.2064 C.3     1  UNL1        0.1207
     27 C          -7.4930  -10.5472   30.0735 C.ar    1  UNL1       -0.0021
     28 C          -7.0278   -9.6846   29.0696 C.ar    1  UNL1       -0.0026
     29 C          -5.6776   -9.3347   29.0145 C.ar    1  UNL1       -0.0001
     30 C          -4.7828   -9.8325   29.9649 C.ar    1  UNL1        0.0064
     31 C          -5.2309  -10.6940   30.9808 C.ar    1  UNL1        0.0752
     32 C          -6.5908  -11.0517   31.0226 C.ar    1  UNL1        0.0038
     33 C          -4.2861  -11.2024   31.9996 C.2     1  UNL1        0.3380
     34 O          -3.9421  -12.4155   32.0031 O.2     1  UNL1       -0.2451
     35 O          -3.7704  -10.3452   32.9682 O.3     1  UNL1       -0.4771
     36 H          -3.1247  -10.6835   33.6717 H       1  UNL1        0.2954
@<TRIPOS>BOND
     1    24    25    1
     2    25    16    1
     3    16    17   ar
     4    17    18    1
     5    17    19   ar
     6    19    20   ar
     7    20    21   ar
     8    21    14    1
     9    14    15    1
    10    14     1    1
    11     1    26    1
    12    26    27    1
    13    27    28   ar
    14    28    29   ar
    15    29    30   ar
    16    30    31   ar
    17    31    33    1
    18    33    34    2
    19    33    35    1
    20    31    32   ar
    21     1     2   am
    22     2     3    2
    23     2     4    1
    24     4     5   ar
    25     5     6   ar
    26     6     7   ar
    27     7     8   ar
    28     8     9   ar
    29     9    10   ar
    30    10    11   ar
    31    11    12   ar
    32    12    13   ar
    33    21    22   ar
    34    22    23    1
    35    22    16   ar
    36    32    27   ar
    37    13     4   ar
    38    11     6   ar
    39    35    36    1
@<TRIPOS>MOLECULE
*****
 36 39 0 0 0
SMALL
GASTEIGER

@<TRIPOS>ATOM
      1 N         -10.7775  -10.7876   30.4043 N.am    1  UNL1       -0.2685
      2 C         -10.6406   -9.7887   29.3798 C.2     1  UNL1        0.2672
      3 O         -11.1223  -10.0070   28.2356 O.2     1  UNL1       -0.2682
      4 C          -9.9266   -8.5265   29.6640 C.ar    1  UNL1        0.1347
      5 C          -8.5265   -8.4513   29.6024 C.ar    1  UNL1        0.0238
      6 C          -7.8900   -7.2278   29.8513 C.ar    1  UNL1        0.0031
      7 C          -6.4920   -7.1182   29.7898 C.ar    1  UNL1        0.0001
      8 C          -5.8739   -5.8886   30.0377 C.ar    1  UNL1        0.0000
      9 C          -6.6437   -4.7634   30.3475 C.ar    1  UNL1        0.0000
     10 C          -8.0369   -4.8602   30.4117 C.ar    1  UNL1        0.0015
     11 C          -8.6664   -6.0891   30.1647 C.ar    1  UNL1        0.0192
     12 C         -10.0589   -6.2119   30.2213 C.ar    1  UNL1        0.0989
     13 N         -10.6444   -7.4109   29.9713 N.ar    1  UNL1       -0.2393
     14 C         -11.9189  -10.7586   31.3400 C.3     1  UNL1        0.1007
     15 C         -12.0461   -9.3711   31.9836 C.3     1  UNL1        0.0265
     16 C         -12.5341  -14.1054   33.1199 C.ar    1  UNL1        0.0324
     17 C         -11.5201  -14.0913   34.0922 C.ar    1  UNL1        0.1383
     18 F         -11.3596  -15.1381   34.9413 F       1  UNL1       -0.2044
     19 C         -10.6587  -12.9992   34.1908 C.ar    1  UNL1        0.0292
     20 C         -10.7993  -11.9106   33.3305 C.ar    1  UNL1        0.0018
     21 C         -11.8224  -11.8873   32.3616 C.ar    1  UNL1        0.0231
     22 C         -12.6935  -12.9938   32.2707 C.ar    1  UNL1        0.1358
     23 F         -13.6888  -13.0006   31.3471 F       1  UNL1       -0.2047
     24 C         -12.8380  -16.4005   32.1853 C.3     1  UNL1        0.0052
     25 C         -13.4684  -15.2852   33.0122 C.3     1  UNL1        0.0309
     26 C          -9.8340  -11.9126   30.4068 C.3     1  UNL1        0.1207
     27 C          -8.4426  -11.4140   30.6866 C.ar    1  UNL1       -0.0021
     28 C          -7.3863  -11.7401   29.8230 C.ar    1  UNL1       -0.0026
     29 C          -6.1193  -11.1896   30.0237 C.ar    1  UNL1       -0.0001
     30 C          -5.8977  -10.3019   31.0794 C.ar    1  UNL1        0.0064
     31 C          -6.9446   -9.9594   31.9523 C.ar    1  UNL1        0.0752
     32 C          -8.2156  -10.5277   31.7507 C.ar    1  UNL1        0.0038
     33 C          -6.7135   -9.0019   33.0563 C.2     1  UNL1        0.3380
     34 O          -7.6581   -8.6709   33.8233 O.2     1  UNL1       -0.2451
     35 O          -5.4494   -8.4533   33.2563 O.3     1  UNL1       -0.4771
     36 H          -5.2809   -7.7951   34.0078 H       1  UNL1        0.2954
@<TRIPOS>BOND
     1    24    25    1
     2    25    16    1
     3    16    17   ar
     4    17    18    1
     5    17    19   ar
     6    19    20   ar
     7    20    21   ar
     8    21    14    1
     9    14    15    1
    10    14     1    1
    11     1    26    1
    12    26    27    1
    13    27    28   ar
    14    28    29   ar
    15    29    30   ar
    16    30    31   ar
    17    31    33    1
    18    33    34    2
    19    33    35    1
    20    31    32   ar
    21     1     2   am
    22     2     3    2
    23     2     4    1
    24     4     5   ar
    25     5     6   ar
    26     6     7   ar
    27     7     8   ar
    28     8     9   ar
    29     9    10   ar
    30    10    11   ar
    31    11    12   ar
    32    12    13   ar
    33    21    22   ar
    34    22    23    1
    35    22    16   ar
    36    32    27   ar
    37    13     4   ar
    38    11     6   ar
    39    35    36    1
@<TRIPOS>MOLECULE
*****
 36 39 0 0 0
SMALL
GASTEIGER

@<TRIPOS>ATOM
      1 N         -10.6031   -7.9208   30.7245 N.am    1  UNL1       -0.2685
      2 C          -9.9660   -8.3855   29.5226 C.2     1  UNL1        0.2672
      3 O         -10.4838   -8.1166   28.4052 O.2     1  UNL1       -0.2682
      4 C          -8.7255   -9.1846   29.6009 C.ar    1  UNL1        0.1347
      5 C          -7.5061   -8.6871   29.1158 C.ar    1  UNL1        0.0238
      6 C          -6.3471   -9.4658   29.2353 C.ar    1  UNL1        0.0031
      7 C          -5.1112   -8.9933   28.7671 C.ar    1  UNL1        0.0001
      8 C          -3.9642   -9.7825   28.8976 C.ar    1  UNL1        0.0000
      9 C          -4.0420  -11.0445   29.4943 C.ar    1  UNL1        0.0000
     10 C          -5.2674  -11.5259   29.9645 C.ar    1  UNL1        0.0015
     11 C          -6.4237  -10.7419   29.8382 C.ar    1  UNL1        0.0192
     12 C          -7.6616  -11.2002   30.3018 C.ar    1  UNL1        0.0989
     13 N          -8.7647  -10.4192   30.1741 N.ar    1  UNL1       -0.2393
     14 C         -10.2227   -6.6297   31.3305 C.3     1  UNL1        0.1007
     15 C         -11.0214   -5.4848   30.6927 C.3     1  UNL1        0.0265
     16 C          -6.4563   -7.1651   31.8556 C.ar    1  UNL1        0.0324
     17 C          -5.9171   -6.1919   30.9979 C.ar    1  UNL1        0.1383
     18 F          -4.5735   -6.0606   30.8564 F       1  UNL1       -0.2044
     19 C          -6.7610   -5.3510   30.2734 C.ar    1  UNL1        0.0292
     20 C          -8.1455   -5.4645   30.3977 C.ar    1  UNL1        0.0018
     21 C          -8.7136   -6.4156   31.2687 C.ar    1  UNL1        0.0231
     22 C          -7.8533   -7.2600   32.0024 C.ar    1  UNL1        0.1358
     23 F          -8.3710   -8.1865   32.8494 F       1  UNL1       -0.2047
     24 C          -4.5634   -7.2642   33.4805 C.3     1  UNL1        0.0052
     25 C          -5.5452   -8.0752   32.6418 C.3     1  UNL1        0.0309
     26 C         -11.7347   -8.6929   31.2527 C.3     1  UNL1        0.1207
     27 C         -11.2614  -10.0426   31.7187 C.ar    1  UNL1       -0.0021
     28 C         -11.7253  -11.2103   31.0945 C.ar    1  UNL1       -0.0026
     29 C         -11.2046  -12.4540   31.4558 C.ar    1  UNL1       -0.0001
     30 C         -10.2107  -12.5431   32.4335 C.ar    1  UNL1        0.0064
     31 C          -9.7300  -11.3842   33.0666 C.ar    1  UNL1        0.0752
     32 C         -10.2682  -10.1355   32.7057 C.ar    1  UNL1        0.0038
     33 C          -8.6617  -11.4784   34.0858 C.2     1  UNL1        0.3380
     34 O          -8.8146  -12.2025   35.1067 O.2     1  UNL1       -0.2451
     35 O          -7.4770  -10.7637   33.9286 O.3     1  UNL1       -0.4771
     36 H          -6.7401  -10.8193   34.6216 H       1  UNL1        0.2954
@<TRIPOS>BOND
     1    24    25    1
     2    25    16    1
     3    16    17   ar
     4    17    18    1
     5    17    19   ar
     6    19    20   ar
     7    20    21   ar
     8    21    14    1
     9    14    15    1
    10    14     1    1
    11     1    26    1
    12    26    27    1
    13    27    28   ar
    14    28    29   ar
    15    29    30   ar
    16    30    31   ar
    17    31    33    1
    18    33    34    2
    19    33    35    1
    20    31    32   ar
    21     1     2   am
    22     2     3    2
    23     2     4    1
    24     4     5   ar
    25     5     6   ar
    26     6     7   ar
    27     7     8   ar
    28     8     9   ar
    29     9    10   ar
    30    10    11   ar
    31    11    12   ar
    32    12    13   ar
    33    21    22   ar
    34    22    23    1
    35    22    16   ar
    36    32    27   ar
    37    13     4   ar
    38    11     6   ar
    39    35    36    1
@<TRIPOS>MOLECULE
*****
 36 39 0 0 0
SMALL
GASTEIGER

@<TRIPOS>ATOM
      1 N         -10.2537   -8.1805   30.8999 N.am    1  UNL1       -0.2685
      2 C         -11.3883   -8.9109   31.3954 C.2     1  UNL1        0.2672
      3 O         -12.5501   -8.5328   31.0853 O.2     1  UNL1       -0.2682
      4 C         -11.1910  -10.0831   32.2734 C.ar    1  UNL1        0.1347
      5 C         -12.0297  -11.2053   32.1905 C.ar    1  UNL1        0.0238
      6 C         -11.7908  -12.3079   33.0218 C.ar    1  UNL1        0.0031
      7 C         -12.6068  -13.4481   32.9574 C.ar    1  UNL1        0.0001
      8 C         -12.3516  -14.5405   33.7922 C.ar    1  UNL1        0.0000
      9 C         -11.2839  -14.5033   34.6940 C.ar    1  UNL1        0.0000
     10 C         -10.4641  -13.3732   34.7673 C.ar    1  UNL1        0.0015
     11 C         -10.7119  -12.2722   33.9342 C.ar    1  UNL1        0.0192
     12 C          -9.9055  -11.1301   33.9872 C.ar    1  UNL1        0.0989
     13 N         -10.1620  -10.0805   33.1653 N.ar    1  UNL1       -0.2393
     14 C          -9.5924   -8.5753   29.6406 C.3     1  UNL1        0.1007
     15 C         -10.6167   -9.1670   28.6627 C.3     1  UNL1        0.0265
     16 C          -6.0020   -9.9306   29.7826 C.ar    1  UNL1        0.0324
     17 C          -6.1715  -11.0784   30.5747 C.ar    1  UNL1        0.1383
     18 F          -5.1090  -11.8564   30.9037 F       1  UNL1       -0.2044
     19 C          -7.4386  -11.4283   31.0398 C.ar    1  UNL1        0.0292
     20 C          -8.5480  -10.6464   30.7188 C.ar    1  UNL1        0.0018
     21 C          -8.4111   -9.5031   29.9062 C.ar    1  UNL1        0.0231
     22 C          -7.1264   -9.1578   29.4352 C.ar    1  UNL1        0.1358
     23 F          -6.9627   -8.0617   28.6506 F       1  UNL1       -0.2047
     24 C          -4.4995   -9.8613   27.7899 C.3     1  UNL1        0.0052
     25 C          -4.6322   -9.5507   29.2768 C.3     1  UNL1        0.0309
     26 C          -9.8590   -6.9526   31.6015 C.3     1  UNL1        0.1207
     27 C          -8.4107   -6.6503   31.3302 C.ar    1  UNL1       -0.0021
     28 C          -8.0556   -5.6657   30.3960 C.ar    1  UNL1       -0.0026
     29 C          -6.7164   -5.3114   30.2237 C.ar    1  UNL1       -0.0001
     30 C          -5.7223   -5.9271   30.9880 C.ar    1  UNL1        0.0064
     31 C          -6.0589   -6.9122   31.9322 C.ar    1  UNL1        0.0752
     32 C          -7.4094   -7.2725   32.0915 C.ar    1  UNL1        0.0038
     33 C          -5.0071   -7.5472   32.7565 C.2     1  UNL1        0.3380
     34 O          -4.1351   -6.8425   33.3336 O.2     1  UNL1       -0.2451
     35 O          -4.9680   -8.9318   32.8995 O.3     1  UNL1       -0.4771
     36 H          -4.2507   -9.3768   33.4596 H       1  UNL1        0.2954
@<TRIPOS>BOND
     1    24    25    1
     2    25    16    1
     3    16    17   ar
     4    17    18    1
     5    17    19   ar
     6    19    20   ar
     7    20    21   ar
     8    21    14    1
     9    14    15    1
    10    14     1    1
    11     1    26    1
    12    26    27    1
    13    27    28   ar
    14    28    29   ar
    15    29    30   ar
    16    30    31   ar
    17    31    33    1
    18    33    34    2
    19    33    35    1
    20    31    32   ar
    21     1     2   am
    22     2     3    2
    23     2     4    1
    24     4     5   ar
    25     5     6   ar
    26     6     7   ar
    27     7     8   ar
    28     8     9   ar
    29     9    10   ar
    30    10    11   ar
    31    11    12   ar
    32    12    13   ar
    33    21    22   ar
    34    22    23    1
    35    22    16   ar
    36    32    27   ar
    37    13     4   ar
    38    11     6   ar
    39    35    36    1
@<TRIPOS>MOLECULE
*****
 36 39 0 0 0
SMALL
GASTEIGER

@<TRIPOS>ATOM
      1 N          -9.7753  -10.6178   30.8832 N.am    1  UNL1       -0.2685
      2 C          -9.8693  -10.7368   32.3126 C.2     1  UNL1        0.2672
      3 O          -9.3295   -9.8623   33.0424 O.2     1  UNL1       -0.2682
      4 C         -10.5784  -11.8838   32.9172 C.ar    1  UNL1        0.1347
      5 C         -11.6899  -12.4667   32.2892 C.ar    1  UNL1        0.0238
      6 C         -12.3165  -13.5712   32.8822 C.ar    1  UNL1        0.0031
      7 C         -13.4252  -14.1814   32.2752 C.ar    1  UNL1        0.0001
      8 C         -14.0359  -15.2848   32.8793 C.ar    1  UNL1        0.0000
      9 C         -13.5462  -15.7856   34.0893 C.ar    1  UNL1        0.0000
     10 C         -12.4426  -15.1863   34.7034 C.ar    1  UNL1        0.0015
     11 C         -11.8230  -14.0790   34.1054 C.ar    1  UNL1        0.0192
     12 C         -10.7163  -13.4623   34.6990 C.ar    1  UNL1        0.0989
     13 N         -10.1302  -12.3962   34.0965 N.ar    1  UNL1       -0.2393
     14 C         -10.8275   -9.9272   30.1118 C.3     1  UNL1        0.1007
     15 C         -10.5797  -10.0911   28.6060 C.3     1  UNL1        0.0265
     16 C         -10.2567   -6.1348   30.3104 C.ar    1  UNL1        0.0324
     17 C         -11.3187   -5.7390   31.1405 C.ar    1  UNL1        0.1383
     18 F         -11.5075   -4.4305   31.4479 F       1  UNL1       -0.2044
     19 C         -12.1991   -6.6906   31.6540 C.ar    1  UNL1        0.0292
     20 C         -12.0303   -8.0420   31.3534 C.ar    1  UNL1        0.0018
     21 C         -10.9598   -8.4699   30.5429 C.ar    1  UNL1        0.0231
     22 C         -10.0700   -7.5019   30.0306 C.ar    1  UNL1        0.1358
     23 F          -9.0292   -7.8836   29.2465 F       1  UNL1       -0.2047
     24 C          -7.9402   -5.2118   30.4331 C.3     1  UNL1        0.0052
     25 C          -9.3018   -5.1073   29.7547 C.3     1  UNL1        0.0309
     26 C          -8.5430  -11.0747   30.2288 C.3     1  UNL1        0.1207
     27 C          -7.4468  -10.0662   30.4387 C.ar    1  UNL1       -0.0021
     28 C          -6.6077   -9.7004   29.3755 C.ar    1  UNL1       -0.0026
     29 C          -5.6620   -8.6875   29.5435 C.ar    1  UNL1       -0.0001
     30 C          -5.5524   -8.0241   30.7681 C.ar    1  UNL1        0.0064
     31 C          -6.3873   -8.3732   31.8434 C.ar    1  UNL1        0.0752
     32 C          -7.3297   -9.4032   31.6700 C.ar    1  UNL1        0.0038
     33 C          -6.2849   -7.6544   33.1324 C.2     1  UNL1        0.3380
     34 O          -7.1852   -6.8454   33.4863 O.2     1  UNL1       -0.2451
     35 O          -5.1894   -7.8619   33.9665 O.3     1  UNL1       -0.4771
     36 H          -5.1083   -7.3731   34.8502 H       1  UNL1        0.2954
@<TRIPOS>BOND
     1    24    25    1
     2    25    16    1
     3    16    17   ar
     4    17    18    1
     5    17    19   ar
     6    19    20   ar
     7    20    21   ar
     8    21    14    1
     9    14    15    1
    10    14     1    1
    11     1    26    1
    12    26    27    1
    13    27    28   ar
    14    28    29   ar
    15    29    30   ar
    16    30    31   ar
    17    31    33    1
    18    33    34    2
    19    33    35    1
    20    31    32   ar
    21     1     2   am
    22     2     3    2
    23     2     4    1
    24     4     5   ar
    25     5     6   ar
    26     6     7   ar
    27     7     8   ar
    28     8     9   ar
    29     9    10   ar
    30    10    11   ar
    31    11    12   ar
    32    12    13   ar
    33    21    22   ar
    34    22    23    1
    35    22    16   ar
    36    32    27   ar
    37    13     4   ar
    38    11     6   ar
    39    35    36    1
@<TRIPOS>MOLECULE
*****
 36 39 0 0 0
SMALL
GASTEIGER

@<TRIPOS>ATOM
      1 N         -10.7014   -9.4017   30.5117 N.am    1  UNL1       -0.2685
      2 C          -9.8199   -9.3275   29.3788 C.2     1  UNL1        0.2672
      3 O         -10.2947   -9.0559   28.2431 O.2     1  UNL1       -0.2682
      4 C          -8.3741   -9.5842   29.5447 C.ar    1  UNL1        0.1347
      5 C          -7.8892  -10.3627   30.6070 C.ar    1  UNL1        0.0238
      6 C          -6.5131  -10.6057   30.7120 C.ar    1  UNL1        0.0031
      7 C          -5.9978  -11.3867   31.7583 C.ar    1  UNL1        0.0001
      8 C          -4.6221  -11.6217   31.8455 C.ar    1  UNL1        0.0000
      9 C          -3.7537  -11.0811   30.8926 C.ar    1  UNL1        0.0000
     10 C          -4.2550  -10.3016   29.8459 C.ar    1  UNL1        0.0015
     11 C          -5.6334  -10.0600   29.7496 C.ar    1  UNL1        0.0192
     12 C          -6.1603   -9.2846   28.7111 C.ar    1  UNL1        0.0989
     13 N          -7.4989   -9.0713   28.6362 N.ar    1  UNL1       -0.2393
     14 C         -10.9430   -8.2179   31.3599 C.3     1  UNL1        0.1007
     15 C         -12.3807   -7.7135   31.1751 C.3     1  UNL1        0.0265
     16 C          -7.6224   -6.2921   31.4732 C.ar    1  UNL1        0.0324
     17 C          -7.8484   -5.2955   30.5092 C.ar    1  UNL1        0.1383
     18 F          -6.8817   -4.3919   30.2067 F       1  UNL1       -0.2044
     19 C          -9.0722   -5.2282   29.8442 C.ar    1  UNL1        0.0292
     20 C         -10.0831   -6.1445   30.1335 C.ar    1  UNL1        0.0018
     21 C          -9.8925   -7.1398   31.1129 C.ar    1  UNL1        0.0231
     22 C          -8.6532   -7.1989   31.7853 C.ar    1  UNL1        0.1358
     23 F          -8.4397   -8.1469   32.7337 F       1  UNL1       -0.2047
     24 C          -5.2064   -6.8874   31.2690 C.3     1  UNL1        0.0052
     25 C          -6.2997   -6.3660   32.1953 C.3     1  UNL1        0.0309
     26 C         -11.4609  -10.6410   30.7195 C.3     1  UNL1        0.1207
     27 C         -10.9314  -11.3709   31.9235 C.ar    1  UNL1       -0.0021
     28 C          -9.8775  -10.8284   32.6740 C.ar    1  UNL1       -0.0026
     29 C          -9.4594  -11.4521   33.8507 C.ar    1  UNL1       -0.0001
     30 C         -10.0946  -12.6145   34.2943 C.ar    1  UNL1        0.0064
     31 C         -11.1552  -13.1704   33.5586 C.ar    1  UNL1        0.0752
     32 C         -11.5630  -12.5428   32.3674 C.ar    1  UNL1        0.0038
     33 C         -11.8413  -14.3890   34.0417 C.2     1  UNL1        0.3380
     34 O         -12.1050  -15.3315   33.2466 O.2     1  UNL1       -0.2451
     35 O         -12.2064  -14.5047   35.3805 O.3     1  UNL1       -0.4771
     36 H         -12.6786  -15.3337   35.7211 H       1  UNL1        0.2954
@<TRIPOS>BOND
     1    24    25    1
     2    25    16    1
     3    16    17   ar
     4    17    18    1
     5    17    19   ar
     6    19    20   ar
     7    20    21   ar
     8    21    14    1
     9    14    15    1
    10    14     1    1
    11     1    26    1
    12    26    27    1
    13    27    28   ar
    14    28    29   ar
    15    29    30   ar
    16    30    31   ar
    17    31    33    1
    18    33    34    2
    19    33    35    1
    20    31    32   ar
    21     1     2   am
    22     2     3    2
    23     2     4    1
    24     4     5   ar
    25     5     6   ar
    26     6     7   ar
    27     7     8   ar
    28     8     9   ar
    29     9    10   ar
    30    10    11   ar
    31    11    12   ar
    32    12    13   ar
    33    21    22   ar
    34    22    23    1
    35    22    16   ar
    36    32    27   ar
    37    13     4   ar
    38    11     6   ar
    39    35    36    1
@<TRIPOS>MOLECULE
*****
 36 39 0 0 0
SMALL
GASTEIGER

@<TRIPOS>ATOM
      1 N         -10.5718  -11.2528   31.1320 N.am    1  UNL1       -0.2685
      2 C         -10.5030  -10.6152   29.8456 C.2     1  UNL1        0.2672
      3 O         -10.7808  -11.2795   28.8110 O.2     1  UNL1       -0.2682
      4 C         -10.0938   -9.1991   29.7395 C.ar    1  UNL1        0.1347
      5 C         -10.9967   -8.1578   30.0041 C.ar    1  UNL1        0.0238
      6 C         -10.5605   -6.8287   29.9197 C.ar    1  UNL1        0.0031
      7 C         -11.4370   -5.7652   30.1858 C.ar    1  UNL1        0.0001
      8 C         -10.9836   -4.4451   30.1002 C.ar    1  UNL1        0.0000
      9 C          -9.6569   -4.1777   29.7496 C.ar    1  UNL1        0.0000
     10 C          -8.7745   -5.2286   29.4822 C.ar    1  UNL1        0.0015
     11 C          -9.2196   -6.5562   29.5654 C.ar    1  UNL1        0.0192
     12 C          -8.3561   -7.6255   29.3041 C.ar    1  UNL1        0.0989
     13 N          -8.8096   -8.9016   29.3983 N.ar    1  UNL1       -0.2393
     14 C         -11.8075  -11.1972   31.9376 C.3     1  UNL1        0.1007
     15 C         -11.9061   -9.8528   32.6714 C.3     1  UNL1        0.0265
     16 C         -12.8208  -14.6242   33.3435 C.ar    1  UNL1        0.0324
     17 C         -11.9614  -14.7338   34.4495 C.ar    1  UNL1        0.1383
     18 F         -11.9726  -15.8454   35.2283 F       1  UNL1       -0.2044
     19 C         -11.0780  -13.6993   34.7559 C.ar    1  UNL1        0.0292
     20 C         -11.0436  -12.5463   33.9720 C.ar    1  UNL1        0.0018
     21 C         -11.9110  -12.3992   32.8711 C.ar    1  UNL1        0.0231
     22 C         -12.8056  -13.4481   32.5698 C.ar    1  UNL1        0.1358
     23 F         -13.6534  -13.3357   31.5150 F       1  UNL1       -0.2047
     24 C         -13.0911  -16.8101   32.1679 C.3     1  UNL1        0.0052
     25 C         -13.7786  -15.7414   33.0108 C.3     1  UNL1        0.0309
     26 C          -9.4338  -12.0760   31.5599 C.3     1  UNL1        0.1207
     27 C          -8.1682  -11.2643   31.5144 C.ar    1  UNL1       -0.0021
     28 C          -7.1890  -11.5326   30.5463 C.ar    1  UNL1       -0.0026
     29 C          -6.0657  -10.7112   30.4370 C.ar    1  UNL1       -0.0001
     30 C          -5.9145   -9.6104   31.2838 C.ar    1  UNL1        0.0064
     31 C          -6.8870   -9.3227   32.2567 C.ar    1  UNL1        0.0752
     32 C          -8.0104  -10.1622   32.3687 C.ar    1  UNL1        0.0038
     33 C          -6.7363   -8.1437   33.1377 C.2     1  UNL1        0.3380
     34 O          -7.6405   -7.2665   33.1915 O.2     1  UNL1       -0.2451
     35 O          -5.5905   -7.9897   33.9139 O.3     1  UNL1       -0.4771
     36 H          -5.4763   -7.1850   34.5187 H       1  UNL1        0.2954
@<TRIPOS>BOND
     1    24    25    1
     2    25    16    1
     3    16    17   ar
     4    17    18    1
     5    17    19   ar
     6    19    20   ar
     7    20    21   ar
     8    21    14    1
     9    14    15    1
    10    14     1    1
    11     1    26    1
    12    26    27    1
    13    27    28   ar
    14    28    29   ar
    15    29    30   ar
    16    30    31   ar
    17    31    33    1
    18    33    34    2
    19    33    35    1
    20    31    32   ar
    21     1     2   am
    22     2     3    2
    23     2     4    1
    24     4     5   ar
    25     5     6   ar
    26     6     7   ar
    27     7     8   ar
    28     8     9   ar
    29     9    10   ar
    30    10    11   ar
    31    11    12   ar
    32    12    13   ar
    33    21    22   ar
    34    22    23    1
    35    22    16   ar
    36    32    27   ar
    37    13     4   ar
    38    11     6   ar
    39    35    36    1
