@<TRIPOS>MOLECULE
*****
 47 52 0 0 0
SMALL
GASTEIGER

@<TRIPOS>ATOM
      1 C          63.0808   84.8604   15.3955 C.ar    1  UNL1        0.0481
      2 C          62.7925   83.4906   15.2444 C.ar    1  UNL1        0.0176
      3 C          63.2750   82.7835   14.1428 C.ar    1  UNL1        0.0382
      4 C          64.0555   83.4328   13.1746 C.ar    1  UNL1        0.1388
      5 C          64.4631   84.7515   13.3944 C.ar    1  UNL1        0.0382
      6 C          63.9695   85.4664   14.4894 C.ar    1  UNL1        0.0176
      7 N          62.1448   88.3110   16.3085 N.pl3   1  UNL1       -0.3041
      8 C          61.0199   87.5984   15.6795 C.3     1  UNL1        0.1122
      9 C          60.9970   86.1246   16.1222 C.3     1  UNL1        0.1122
     10 N          62.3733   85.6668   16.3653 N.pl3   1  UNL1       -0.3041
     11 C          63.1465   86.3661   17.4115 C.3     1  UNL1        0.1122
     12 C          62.6526   87.8119   17.5906 C.3     1  UNL1        0.1122
     13 C          64.6978   90.7919   13.9794 C.ar    1  UNL1        0.0699
     14 C          64.4663   91.0783   15.3380 C.ar    1  UNL1        0.0190
     15 C          63.6232   90.2638   16.1016 C.ar    1  UNL1        0.0160
     16 C          62.9842   89.1653   15.5159 C.ar    1  UNL1        0.0480
     17 C          63.2066   88.8803   14.1620 C.ar    1  UNL1        0.0160
     18 C          64.0513   89.6871   13.3992 C.ar    1  UNL1        0.0190
     19 N          66.4979   92.8130   11.5627 N.ar    1  UNL1       -0.2024
     20 N          67.2882   92.9453   12.6182 N.ar    1  UNL1       -0.1442
     21 C          66.7297   92.2120   13.6050 C.ar    1  UNL1        0.2073
     22 N          65.5975   91.5969   13.1916 N.ar    1  UNL1       -0.2398
     23 C          65.4876   91.9959   11.9084 C.ar    1  UNL1        0.3522
     24 O          64.5396   91.6825   11.1390 O.2     1  UNL1       -0.2444
     25 C          66.7321   93.4242   10.2488 C.3     1  UNL1        0.1099
     26 C          66.1796   94.8556   10.1958 C.3     1  UNL1        0.0265
     27 C          68.5560   92.2328    8.8659 C.3     1  UNL1        0.0021
     28 C          68.2238   93.3475    9.8605 C.3     1  UNL1        0.0245
     29 O          64.3801   82.8185   11.9576 O.3     1  UNL1       -0.4727
     30 C          64.3741   83.5028   10.7005 C.3     1  UNL1        0.2374
     31 C          62.9362   83.6412   10.1693 C.3     1  UNL1        0.1909
     32 C          62.2245   84.8679   10.6527 C.3     1  UNL1        0.1783
     33 O          60.8794   84.5088   10.7301 O.3     1  UNL1       -0.3271
     34 C          60.8459   83.0919   10.7193 C.3     1  UNL1        0.2232
     35 O          62.1568   82.5770   10.6051 O.3     1  UNL1       -0.3258
     36 C          59.9871   82.5951    9.5492 C.ar    1  UNL1        0.0404
     37 C          60.5280   81.6663    8.6299 C.ar    1  UNL1        0.0021
     38 C          59.7559   81.1530    7.5869 C.ar    1  UNL1        0.0113
     39 C          58.4229   81.5335    7.4492 C.ar    1  UNL1        0.0585
     40 CL         57.4566   80.8813    6.1390 Cl      1  UNL1       -0.0822
     41 C          57.8595   82.4327    8.3548 C.ar    1  UNL1        0.0226
     42 C          58.6247   82.9714    9.3966 C.ar    1  UNL1        0.0591
     43 CL         57.8119   84.0966   10.4828 Cl      1  UNL1       -0.0824
     44 C          60.2448   82.5882   12.0462 C.3     1  UNL1        0.1338
     45 N          60.0652   81.1166   12.0006 N.3     1  UNL1       -0.2659
     46 C          61.1881   80.4216   12.6494 C.3     1  UNL1        0.0898
     47 C          58.7975   80.7095   12.6300 C.3     1  UNL1        0.0898
@<TRIPOS>BOND
     1    27    28    1
     2    28    25    1
     3    25    26    1
     4    25    19    1
     5    19    20   ar
     6    20    21   ar
     7    21    22   ar
     8    22    13    1
     9    13    14   ar
    10    14    15   ar
    11    15    16   ar
    12    16     7    1
    13     7     8    1
    14     8     9    1
    15     9    10    1
    16    10     1    1
    17     1     2   ar
    18     2     3   ar
    19     3     4   ar
    20     4    29    1
    21    29    30    1
    22    30    31    1
    23    31    32    1
    24    32    33    1
    25    33    34    1
    26    34    44    1
    27    44    45    1
    28    45    46    1
    29    45    47    1
    30    34    36    1
    31    36    37   ar
    32    37    38   ar
    33    38    39   ar
    34    39    40    1
    35    39    41   ar
    36    41    42   ar
    37    42    43    1
    38    34    35    1
    39     4     5   ar
    40     5     6   ar
    41    10    11    1
    42    11    12    1
    43    16    17   ar
    44    17    18   ar
    45    22    23   ar
    46    23    24    2
    47    23    19   ar
    48    18    13   ar
    49    12     7    1
    50     6     1   ar
    51    35    31    1
    52    42    36   ar
@<TRIPOS>MOLECULE
*****
 47 52 0 0 0
SMALL
GASTEIGER

@<TRIPOS>ATOM
      1 C          63.1811   84.6371   15.2892 C.ar    1  UNL1        0.0481
      2 C          63.0080   83.2427   15.1992 C.ar    1  UNL1        0.0176
      3 C          63.5826   82.5249   14.1499 C.ar    1  UNL1        0.0382
      4 C          64.3415   83.1881   13.1739 C.ar    1  UNL1        0.1388
      5 C          64.6350   84.5446   13.3387 C.ar    1  UNL1        0.0382
      6 C          64.0491   85.2690   14.3807 C.ar    1  UNL1        0.0176
      7 N          62.0429   88.0595   16.0692 N.pl3   1  UNL1       -0.3041
      8 C          60.9921   87.2874   15.3847 C.3     1  UNL1        0.1122
      9 C          61.0031   85.8222   15.8554 C.3     1  UNL1        0.1122
     10 N          62.3790   85.4292   16.1951 N.pl3   1  UNL1       -0.3041
     11 C          63.0528   86.1802   17.2737 C.3     1  UNL1        0.1122
     12 C          62.4876   87.6061   17.3911 C.3     1  UNL1        0.1122
     13 C          64.6327   90.6040   13.8521 C.ar    1  UNL1        0.0699
     14 C          64.3641   90.8634   15.2093 C.ar    1  UNL1        0.0190
     15 C          63.5089   90.0280   15.9360 C.ar    1  UNL1        0.0160
     16 C          62.8947   88.9352   15.3141 C.ar    1  UNL1        0.0480
     17 C          63.1541   88.6771   13.9614 C.ar    1  UNL1        0.0160
     18 C          64.0110   89.5048   13.2354 C.ar    1  UNL1        0.0190
     19 N          66.4440   92.7576   11.5615 N.ar    1  UNL1       -0.2024
     20 N          67.2949   92.7224   12.5769 N.ar    1  UNL1       -0.1442
     21 C          66.7376   91.9230   13.5117 C.ar    1  UNL1        0.2073
     22 N          65.5452   91.4309   13.1026 N.ar    1  UNL1       -0.2398
     23 C          65.3980   91.9742   11.8774 C.ar    1  UNL1        0.3522
     24 O          64.3921   91.8086   11.1360 O.2     1  UNL1       -0.2444
     25 C          66.6530   93.4926   10.3081 C.3     1  UNL1        0.1099
     26 C          66.0253   94.8922   10.3739 C.3     1  UNL1        0.0265
     27 C          68.5792   92.4181    8.9690 C.3     1  UNL1        0.0021
     28 C          68.1488   93.5286    9.9302 C.3     1  UNL1        0.0245
     29 O          64.7552   82.5443   12.0000 O.3     1  UNL1       -0.4727
     30 C          64.1040   82.7098   10.7363 C.3     1  UNL1        0.2374
     31 C          62.5762   82.7498   10.9186 C.3     1  UNL1        0.1909
     32 C          61.8756   81.5090   10.4551 C.3     1  UNL1        0.1783
     33 O          60.6265   81.9356   10.0056 O.3     1  UNL1       -0.3271
     34 C          60.7326   83.3352    9.8086 C.3     1  UNL1        0.2232
     35 O          62.0272   83.7776   10.1623 O.3     1  UNL1       -0.3258
     36 C          59.6826   84.0665   10.6548 C.ar    1  UNL1        0.0404
     37 C          60.0999   84.9828   11.6482 C.ar    1  UNL1        0.0021
     38 C          59.1700   85.7050   12.3974 C.ar    1  UNL1        0.0113
     39 C          57.8064   85.5497   12.1593 C.ar    1  UNL1        0.0585
     40 CL         56.6430   86.4635   13.1011 Cl      1  UNL1       -0.0822
     41 C          57.3692   84.6672   11.1712 C.ar    1  UNL1        0.0226
     42 C          58.2878   83.9212   10.4223 C.ar    1  UNL1        0.0591
     43 CL         57.6258   82.8380    9.1996 Cl      1  UNL1       -0.0824
     44 C          60.5045   83.6569    8.3186 C.3     1  UNL1        0.1338
     45 N          61.3405   84.8121    7.9107 N.3     1  UNL1       -0.2659
     46 C          61.9305   84.6003    6.5796 C.3     1  UNL1        0.0898
     47 C          60.5671   86.0654    7.9185 C.3     1  UNL1        0.0898
@<TRIPOS>BOND
     1    27    28    1
     2    28    25    1
     3    25    26    1
     4    25    19    1
     5    19    20   ar
     6    20    21   ar
     7    21    22   ar
     8    22    13    1
     9    13    14   ar
    10    14    15   ar
    11    15    16   ar
    12    16     7    1
    13     7     8    1
    14     8     9    1
    15     9    10    1
    16    10     1    1
    17     1     2   ar
    18     2     3   ar
    19     3     4   ar
    20     4    29    1
    21    29    30    1
    22    30    31    1
    23    31    32    1
    24    32    33    1
    25    33    34    1
    26    34    44    1
    27    44    45    1
    28    45    46    1
    29    45    47    1
    30    34    36    1
    31    36    37   ar
    32    37    38   ar
    33    38    39   ar
    34    39    40    1
    35    39    41   ar
    36    41    42   ar
    37    42    43    1
    38    34    35    1
    39     4     5   ar
    40     5     6   ar
    41    10    11    1
    42    11    12    1
    43    16    17   ar
    44    17    18   ar
    45    22    23   ar
    46    23    24    2
    47    23    19   ar
    48    18    13   ar
    49    12     7    1
    50     6     1   ar
    51    35    31    1
    52    42    36   ar
@<TRIPOS>MOLECULE
*****
 47 52 0 0 0
SMALL
GASTEIGER

@<TRIPOS>ATOM
      1 C          58.6375   81.4106   10.5677 C.ar    1  UNL1        0.0481
      2 C          58.2309   82.5482   11.2908 C.ar    1  UNL1        0.0176
      3 C          57.7314   83.6680   10.6254 C.ar    1  UNL1        0.0382
      4 C          57.6277   83.6692    9.2262 C.ar    1  UNL1        0.1388
      5 C          57.8932   82.4937    8.5184 C.ar    1  UNL1        0.0382
      6 C          58.4074   81.3754    9.1806 C.ar    1  UNL1        0.0176
      7 N          60.9422   80.6481   13.3467 N.pl3   1  UNL1       -0.3041
      8 C          59.5725   80.1975   13.6465 C.3     1  UNL1        0.1122
      9 C          58.8949   79.6449   12.3801 C.3     1  UNL1        0.1122
     10 N          59.4051   80.3615   11.2015 N.pl3   1  UNL1       -0.3041
     11 C          60.8536   80.2726   10.9274 C.3     1  UNL1        0.1122
     12 C          61.6471   80.0250   12.2218 C.3     1  UNL1        0.1122
     13 C          62.2455   84.4068   14.8536 C.ar    1  UNL1        0.0699
     14 C          61.1921   84.3353   13.9227 C.ar    1  UNL1        0.0190
     15 C          60.7673   83.0986   13.4249 C.ar    1  UNL1        0.0160
     16 C          61.4003   81.9193   13.8332 C.ar    1  UNL1        0.0480
     17 C          62.4539   81.9865   14.7548 C.ar    1  UNL1        0.0160
     18 C          62.8760   83.2175   15.2575 C.ar    1  UNL1        0.0190
     19 N          63.4360   87.7415   15.6461 N.ar    1  UNL1       -0.2024
     20 N          62.9086   87.3948   16.8114 N.ar    1  UNL1       -0.1442
     21 C          62.4345   86.1401   16.6552 C.ar    1  UNL1        0.2073
     22 N          62.6650   85.6699   15.4075 N.ar    1  UNL1       -0.2398
     23 C          63.2952   86.6999   14.8076 C.ar    1  UNL1        0.3522
     24 O          63.6681   86.7090   13.6035 O.2     1  UNL1       -0.2444
     25 C          64.0919   89.0239   15.3627 C.3     1  UNL1        0.1099
     26 C          64.1743   89.2833   13.8518 C.3     1  UNL1        0.0265
     27 C          64.1845   91.4950   16.0997 C.3     1  UNL1        0.0021
     28 C          63.4081   90.1765   16.1279 C.3     1  UNL1        0.0245
     29 O          57.3331   84.8376    8.5108 O.3     1  UNL1       -0.4727
     30 C          58.3247   85.6324    7.8524 C.3     1  UNL1        0.2374
     31 C          58.8979   86.6863    8.8167 C.3     1  UNL1        0.1909
     32 C          59.6085   87.8142    8.1324 C.3     1  UNL1        0.1783
     33 O          60.6123   88.2090    9.0160 O.3     1  UNL1       -0.3271
     34 C          60.7701   87.1445    9.9384 C.3     1  UNL1        0.2232
     35 O          59.8508   86.1114    9.6481 O.3     1  UNL1       -0.3258
     36 C          60.5496   87.6515   11.3693 C.ar    1  UNL1        0.0404
     37 C          59.8092   86.8659   12.2831 C.ar    1  UNL1        0.0021
     38 C          59.6370   87.2723   13.6070 C.ar    1  UNL1        0.0113
     39 C          60.2168   88.4561   14.0573 C.ar    1  UNL1        0.0585
     40 CL         60.0004   88.9590   15.7235 Cl      1  UNL1       -0.0822
     41 C          60.9689   89.2391   13.1813 C.ar    1  UNL1        0.0226
     42 C          61.1369   88.8555   11.8449 C.ar    1  UNL1        0.0591
     43 CL         62.1070   89.9182   10.8271 Cl      1  UNL1       -0.0824
     44 C          62.1949   86.5703    9.8120 C.3     1  UNL1        0.1338
     45 N          62.1388   85.1524    9.3806 N.3     1  UNL1       -0.2659
     46 C          62.7370   84.9760    8.0480 C.3     1  UNL1        0.0898
     47 C          62.8102   84.2684   10.3484 C.3     1  UNL1        0.0898
@<TRIPOS>BOND
     1    27    28    1
     2    28    25    1
     3    25    26    1
     4    25    19    1
     5    19    20   ar
     6    20    21   ar
     7    21    22   ar
     8    22    13    1
     9    13    14   ar
    10    14    15   ar
    11    15    16   ar
    12    16     7    1
    13     7     8    1
    14     8     9    1
    15     9    10    1
    16    10     1    1
    17     1     2   ar
    18     2     3   ar
    19     3     4   ar
    20     4    29    1
    21    29    30    1
    22    30    31    1
    23    31    32    1
    24    32    33    1
    25    33    34    1
    26    34    44    1
    27    44    45    1
    28    45    46    1
    29    45    47    1
    30    34    36    1
    31    36    37   ar
    32    37    38   ar
    33    38    39   ar
    34    39    40    1
    35    39    41   ar
    36    41    42   ar
    37    42    43    1
    38    34    35    1
    39     4     5   ar
    40     5     6   ar
    41    10    11    1
    42    11    12    1
    43    16    17   ar
    44    17    18   ar
    45    22    23   ar
    46    23    24    2
    47    23    19   ar
    48    18    13   ar
    49    12     7    1
    50     6     1   ar
    51    35    31    1
    52    42    36   ar
@<TRIPOS>MOLECULE
*****
 47 52 0 0 0
SMALL
GASTEIGER

@<TRIPOS>ATOM
      1 C          60.6540   81.9598   12.0572 C.ar    1  UNL1        0.0481
      2 C          60.1813   83.0429   12.8226 C.ar    1  UNL1        0.0176
      3 C          59.0779   83.7823   12.3959 C.ar    1  UNL1        0.0382
      4 C          58.4271   83.4507   11.1981 C.ar    1  UNL1        0.1388
      5 C          58.8022   82.2922   10.5123 C.ar    1  UNL1        0.0382
      6 C          59.9159   81.5579   10.9295 C.ar    1  UNL1        0.0176
      7 N          63.7734   82.3235   13.9946 N.pl3   1  UNL1       -0.3041
      8 C          62.8788   81.3228   14.6007 C.3     1  UNL1        0.1122
      9 C          62.1567   80.5112   13.5106 C.3     1  UNL1        0.1122
     10 N          61.9422   81.3621   12.3304 N.pl3   1  UNL1       -0.3041
     11 C          63.1397   81.9127   11.6640 C.3     1  UNL1        0.1122
     12 C          64.3073   82.0562   12.6552 C.3     1  UNL1        0.1122
     13 C          63.7449   86.3497   15.3681 C.ar    1  UNL1        0.0699
     14 C          64.9080   85.7949   14.8017 C.ar    1  UNL1        0.0190
     15 C          64.9170   84.4693   14.3542 C.ar    1  UNL1        0.0160
     16 C          63.7732   83.6737   14.4840 C.ar    1  UNL1        0.0480
     17 C          62.6150   84.2200   15.0533 C.ar    1  UNL1        0.0160
     18 C          62.6010   85.5432   15.4951 C.ar    1  UNL1        0.0190
     19 N          63.8649   89.9434   15.8545 N.ar    1  UNL1       -0.2024
     20 N          63.2118   89.5776   16.9481 N.ar    1  UNL1       -0.1442
     21 C          63.1124   88.2319   16.8988 C.ar    1  UNL1        0.2073
     22 N          63.7079   87.7265   15.7938 N.ar    1  UNL1       -0.2398
     23 C          64.1684   88.8281   15.1676 C.ar    1  UNL1        0.3522
     24 O          64.7687   88.8245   14.0592 O.2     1  UNL1       -0.2444
     25 C          64.2204   91.3237   15.5036 C.3     1  UNL1        0.1099
     26 C          64.1150   92.2512   16.7225 C.3     1  UNL1        0.0265
     27 C          66.5964   92.3299   15.5121 C.3     1  UNL1        0.0021
     28 C          65.6068   91.3837   14.8284 C.3     1  UNL1        0.0245
     29 O          57.4567   84.2880   10.6314 O.3     1  UNL1       -0.4727
     30 C          57.5081   84.7553    9.2795 C.3     1  UNL1        0.2374
     31 C          58.5008   85.9245    9.1510 C.3     1  UNL1        0.1909
     32 C          58.6314   86.4612    7.7581 C.3     1  UNL1        0.1783
     33 O          59.9481   86.9088    7.6562 O.3     1  UNL1       -0.3271
     34 C          60.6567   86.3031    8.7238 C.3     1  UNL1        0.2232
     35 O          59.7804   85.5110    9.4994 O.3     1  UNL1       -0.3258
     36 C          61.3027   87.3803    9.6044 C.ar    1  UNL1        0.0404
     37 C          61.1201   88.7461    9.2856 C.ar    1  UNL1        0.0021
     38 C          61.6481   89.7515   10.0968 C.ar    1  UNL1        0.0113
     39 C          62.3485   89.4215   11.2548 C.ar    1  UNL1        0.0585
     40 CL         63.0057   90.6896   12.2724 Cl      1  UNL1       -0.0822
     41 C          62.5252   88.0821   11.6026 C.ar    1  UNL1        0.0226
     42 C          62.0176   87.0601   10.7907 C.ar    1  UNL1        0.0591
     43 CL         62.2975   85.4043   11.3258 Cl      1  UNL1       -0.0824
     44 C          61.7535   85.3853    8.1491 C.3     1  UNL1        0.1338
     45 N          61.2296   84.6280    6.9864 N.3     1  UNL1       -0.2659
     46 C          62.2722   84.4245    5.9684 C.3     1  UNL1        0.0898
     47 C          60.6747   83.3272    7.3973 C.3     1  UNL1        0.0898
@<TRIPOS>BOND
     1    27    28    1
     2    28    25    1
     3    25    26    1
     4    25    19    1
     5    19    20   ar
     6    20    21   ar
     7    21    22   ar
     8    22    13    1
     9    13    14   ar
    10    14    15   ar
    11    15    16   ar
    12    16     7    1
    13     7     8    1
    14     8     9    1
    15     9    10    1
    16    10     1    1
    17     1     2   ar
    18     2     3   ar
    19     3     4   ar
    20     4    29    1
    21    29    30    1
    22    30    31    1
    23    31    32    1
    24    32    33    1
    25    33    34    1
    26    34    44    1
    27    44    45    1
    28    45    46    1
    29    45    47    1
    30    34    36    1
    31    36    37   ar
    32    37    38   ar
    33    38    39   ar
    34    39    40    1
    35    39    41   ar
    36    41    42   ar
    37    42    43    1
    38    34    35    1
    39     4     5   ar
    40     5     6   ar
    41    10    11    1
    42    11    12    1
    43    16    17   ar
    44    17    18   ar
    45    22    23   ar
    46    23    24    2
    47    23    19   ar
    48    18    13   ar
    49    12     7    1
    50     6     1   ar
    51    35    31    1
    52    42    36   ar
@<TRIPOS>MOLECULE
*****
 47 52 0 0 0
SMALL
GASTEIGER

@<TRIPOS>ATOM
      1 C          63.4030   84.6147   15.2970 C.ar    1  UNL1        0.0481
      2 C          63.2752   83.2126   15.2852 C.ar    1  UNL1        0.0176
      3 C          63.7382   82.4692   14.1992 C.ar    1  UNL1        0.0382
      4 C          64.3386   83.1143   13.1075 C.ar    1  UNL1        0.1388
      5 C          64.5968   84.4859   13.1793 C.ar    1  UNL1        0.0382
      6 C          64.1214   85.2351   14.2592 C.ar    1  UNL1        0.0176
      7 N          62.0277   87.9711   15.9745 N.pl3   1  UNL1       -0.3041
      8 C          60.9685   87.0265   15.5812 C.3     1  UNL1        0.1122
      9 C          61.2413   85.6311   16.1702 C.3     1  UNL1        0.1122
     10 N          62.6932   85.4181   16.2676 N.pl3   1  UNL1       -0.3041
     11 C          63.4599   86.3478   17.1215 C.3     1  UNL1        0.1122
     12 C          62.7598   87.7140   17.2189 C.3     1  UNL1        0.1122
     13 C          63.8406   90.5008   13.0742 C.ar    1  UNL1        0.0699
     14 C          63.7910   90.8845   14.4277 C.ar    1  UNL1        0.0190
     15 C          63.1908   90.0533   15.3796 C.ar    1  UNL1        0.0160
     16 C          62.6146   88.8385   14.9917 C.ar    1  UNL1        0.0480
     17 C          62.6558   88.4557   13.6443 C.ar    1  UNL1        0.0160
     18 C          63.2588   89.2795   12.6934 C.ar    1  UNL1        0.0190
     19 N          65.9953   92.5252   10.9707 N.ar    1  UNL1       -0.2024
     20 N          64.9509   92.3780   10.1683 N.ar    1  UNL1       -0.1442
     21 C          64.0483   91.6416   10.8513 C.ar    1  UNL1        0.2073
     22 N          64.4937   91.3269   12.0897 N.ar    1  UNL1       -0.2398
     23 C          65.7138   91.8994   12.1270 C.ar    1  UNL1        0.3522
     24 O          66.5112   91.8250   13.1004 O.2     1  UNL1       -0.2444
     25 C          67.2112   93.2810   10.6462 C.3     1  UNL1        0.1099
     26 C          68.1358   92.4754    9.7226 C.3     1  UNL1        0.0265
     27 C          67.3342   94.8925    8.6347 C.3     1  UNL1        0.0021
     28 C          66.8627   94.6712   10.0737 C.3     1  UNL1        0.0245
     29 O          64.6233   82.4338   11.9160 O.3     1  UNL1       -0.4727
     30 C          63.7088   82.3452   10.8186 C.3     1  UNL1        0.2374
     31 C          62.6213   83.4283   10.9347 C.3     1  UNL1        0.1909
     32 C          61.3077   82.9191   11.4450 C.3     1  UNL1        0.1783
     33 O          60.3398   83.7149   10.8333 O.3     1  UNL1       -0.3271
     34 C          60.9788   84.3430    9.7351 C.3     1  UNL1        0.2232
     35 O          62.3391   83.9640    9.6844 O.3     1  UNL1       -0.3258
     36 C          60.8669   85.8676    9.8633 C.ar    1  UNL1        0.0404
     37 C          59.7984   86.4308   10.5992 C.ar    1  UNL1        0.0021
     38 C          59.6984   87.8108   10.7811 C.ar    1  UNL1        0.0113
     39 C          60.6707   88.6588   10.2559 C.ar    1  UNL1        0.0585
     40 CL         60.5417   90.3918   10.4919 Cl      1  UNL1       -0.0822
     41 C          61.7457   88.1270    9.5434 C.ar    1  UNL1        0.0226
     42 C          61.8523   86.7461    9.3360 C.ar    1  UNL1        0.0591
     43 CL         63.2511   86.1831    8.4233 Cl      1  UNL1       -0.0824
     44 C          60.3033   83.8878    8.4266 C.3     1  UNL1        0.1338
     45 N          59.3024   82.8302    8.7084 N.3     1  UNL1       -0.2659
     46 C          57.9375   83.3792    8.7295 C.3     1  UNL1        0.0898
     47 C          59.3837   81.7367    7.7253 C.3     1  UNL1        0.0898
@<TRIPOS>BOND
     1    27    28    1
     2    28    25    1
     3    25    26    1
     4    25    19    1
     5    19    20   ar
     6    20    21   ar
     7    21    22   ar
     8    22    13    1
     9    13    14   ar
    10    14    15   ar
    11    15    16   ar
    12    16     7    1
    13     7     8    1
    14     8     9    1
    15     9    10    1
    16    10     1    1
    17     1     2   ar
    18     2     3   ar
    19     3     4   ar
    20     4    29    1
    21    29    30    1
    22    30    31    1
    23    31    32    1
    24    32    33    1
    25    33    34    1
    26    34    44    1
    27    44    45    1
    28    45    46    1
    29    45    47    1
    30    34    36    1
    31    36    37   ar
    32    37    38   ar
    33    38    39   ar
    34    39    40    1
    35    39    41   ar
    36    41    42   ar
    37    42    43    1
    38    34    35    1
    39     4     5   ar
    40     5     6   ar
    41    10    11    1
    42    11    12    1
    43    16    17   ar
    44    17    18   ar
    45    22    23   ar
    46    23    24    2
    47    23    19   ar
    48    18    13   ar
    49    12     7    1
    50     6     1   ar
    51    35    31    1
    52    42    36   ar
@<TRIPOS>MOLECULE
*****
 47 52 0 0 0
SMALL
GASTEIGER

@<TRIPOS>ATOM
      1 C          60.7617   81.5451   11.7945 C.ar    1  UNL1        0.0481
      2 C          59.6343   81.2683   12.5912 C.ar    1  UNL1        0.0176
      3 C          58.4249   81.9232   12.3572 C.ar    1  UNL1        0.0382
      4 C          58.3211   82.8643   11.3218 C.ar    1  UNL1        0.1388
      5 C          59.3925   83.0348   10.4407 C.ar    1  UNL1        0.0382
      6 C          60.6095   82.3911   10.6812 C.ar    1  UNL1        0.0176
      7 N          63.9126   82.5592   13.4253 N.pl3   1  UNL1       -0.3041
      8 C          63.0727   81.7582   14.3319 C.3     1  UNL1        0.1122
      9 C          62.3551   80.6385   13.5574 C.3     1  UNL1        0.1122
     10 N          62.0785   81.0936   12.1865 N.pl3   1  UNL1       -0.3041
     11 C          63.2367   81.4561   11.3449 C.3     1  UNL1        0.1122
     12 C          64.4225   81.9217   12.2071 C.3     1  UNL1        0.1122
     13 C          63.8591   86.8106   13.5687 C.ar    1  UNL1        0.0699
     14 C          64.6292   86.0731   14.4877 C.ar    1  UNL1        0.0190
     15 C          64.6425   84.6748   14.4419 C.ar    1  UNL1        0.0160
     16 C          63.8728   83.9933   13.4925 C.ar    1  UNL1        0.0480
     17 C          63.0995   84.7233   12.5799 C.ar    1  UNL1        0.0160
     18 C          63.0886   86.1179   12.6192 C.ar    1  UNL1        0.0190
     19 N          64.2387   90.3778   14.1132 N.ar    1  UNL1       -0.2024
     20 N          63.7009   90.3786   12.9020 N.ar    1  UNL1       -0.1442
     21 C          63.4888   89.0846   12.5799 C.ar    1  UNL1        0.2073
     22 N          63.8695   88.2521   13.5765 N.ar    1  UNL1       -0.2398
     23 C          64.3310   89.0991   14.5185 C.ar    1  UNL1        0.3522
     24 O          64.8269   88.7434   15.6215 O.2     1  UNL1       -0.2444
     25 C          64.6147   91.5766   14.8724 C.3     1  UNL1        0.1099
     26 C          64.0238   91.5445   16.2891 C.3     1  UNL1        0.0265
     27 C          66.6574   92.7056   15.9727 C.3     1  UNL1        0.0021
     28 C          66.1451   91.7757   14.8705 C.3     1  UNL1        0.0245
     29 O          57.1973   83.6908   11.1882 O.3     1  UNL1       -0.4727
     30 C          57.2745   85.1130   11.0473 C.3     1  UNL1        0.2374
     31 C          57.7409   85.7603   12.3635 C.3     1  UNL1        0.1909
     32 C          56.6936   86.5953   13.0353 C.3     1  UNL1        0.1783
     33 O          57.3925   87.6091   13.6896 O.3     1  UNL1       -0.3271
     34 C          58.6853   87.6379   13.1094 C.3     1  UNL1        0.2232
     35 O          58.7973   86.6304   12.1250 O.3     1  UNL1       -0.3258
     36 C          59.7522   87.4300   14.1918 C.ar    1  UNL1        0.0404
     37 C          60.2365   88.5422   14.9191 C.ar    1  UNL1        0.0021
     38 C          61.1662   88.3805   15.9472 C.ar    1  UNL1        0.0113
     39 C          61.6167   87.1078   16.2903 C.ar    1  UNL1        0.0585
     40 CL         62.7817   86.9108   17.5863 Cl      1  UNL1       -0.0822
     41 C          61.1393   85.9922   15.6019 C.ar    1  UNL1        0.0226
     42 C          60.2198   86.1378   14.5557 C.ar    1  UNL1        0.0591
     43 CL         59.6828   84.6618   13.7560 Cl      1  UNL1       -0.0824
     44 C          58.9056   89.0029   12.4281 C.3     1  UNL1        0.1338
     45 N          60.1959   89.0073   11.6967 N.3     1  UNL1       -0.2659
     46 C          60.1523   88.1091   10.5322 C.3     1  UNL1        0.0898
     47 C          60.5643   90.3659   11.2637 C.3     1  UNL1        0.0898
@<TRIPOS>BOND
     1    27    28    1
     2    28    25    1
     3    25    26    1
     4    25    19    1
     5    19    20   ar
     6    20    21   ar
     7    21    22   ar
     8    22    13    1
     9    13    14   ar
    10    14    15   ar
    11    15    16   ar
    12    16     7    1
    13     7     8    1
    14     8     9    1
    15     9    10    1
    16    10     1    1
    17     1     2   ar
    18     2     3   ar
    19     3     4   ar
    20     4    29    1
    21    29    30    1
    22    30    31    1
    23    31    32    1
    24    32    33    1
    25    33    34    1
    26    34    44    1
    27    44    45    1
    28    45    46    1
    29    45    47    1
    30    34    36    1
    31    36    37   ar
    32    37    38   ar
    33    38    39   ar
    34    39    40    1
    35    39    41   ar
    36    41    42   ar
    37    42    43    1
    38    34    35    1
    39     4     5   ar
    40     5     6   ar
    41    10    11    1
    42    11    12    1
    43    16    17   ar
    44    17    18   ar
    45    22    23   ar
    46    23    24    2
    47    23    19   ar
    48    18    13   ar
    49    12     7    1
    50     6     1   ar
    51    35    31    1
    52    42    36   ar
@<TRIPOS>MOLECULE
*****
 47 52 0 0 0
SMALL
GASTEIGER

@<TRIPOS>ATOM
      1 C          61.0065   86.1763    9.1460 C.ar    1  UNL1        0.0481
      2 C          62.3268   86.6020    8.9051 C.ar    1  UNL1        0.0176
      3 C          63.3761   85.6827    8.8978 C.ar    1  UNL1        0.0382
      4 C          63.1236   84.3221    9.1292 C.ar    1  UNL1        0.1388
      5 C          61.8022   83.8769    9.2247 C.ar    1  UNL1        0.0382
      6 C          60.7504   84.7970    9.2468 C.ar    1  UNL1        0.0176
      7 N          60.3190   89.6450   10.2003 N.pl3   1  UNL1       -0.3041
      8 C          60.1476   89.4820    8.7467 C.3     1  UNL1        0.1122
      9 C          59.5232   88.1126    8.4253 C.3     1  UNL1        0.1122
     10 N          59.9575   87.1305    9.4301 N.pl3   1  UNL1       -0.3041
     11 C          59.5943   87.3931   10.8374 C.3     1  UNL1        0.1122
     12 C          59.4242   88.9006   11.0924 C.3     1  UNL1        0.1122
     13 C          63.9533   91.2042   11.7681 C.ar    1  UNL1        0.0699
     14 C          63.6487   91.3370   10.4002 C.ar    1  UNL1        0.0190
     15 C          62.4549   90.8201    9.8854 C.ar    1  UNL1        0.0160
     16 C          61.5590   90.1466   10.7232 C.ar    1  UNL1        0.0480
     17 C          61.8614   90.0063   12.0843 C.ar    1  UNL1        0.0160
     18 C          63.0482   90.5257   12.6020 C.ar    1  UNL1        0.0190
     19 N          66.9753   92.1273   13.5516 N.ar    1  UNL1       -0.2024
     20 N          67.0232   92.9862   12.5435 N.ar    1  UNL1       -0.1442
     21 C          65.9224   92.7559   11.7960 C.ar    1  UNL1        0.2073
     22 N          65.1590   91.7694   12.3205 N.ar    1  UNL1       -0.2398
     23 C          65.8500   91.4035   13.4189 C.ar    1  UNL1        0.3522
     24 O          65.5132   90.4742   14.2012 O.2     1  UNL1       -0.2444
     25 C          67.9648   92.0354   14.6321 C.3     1  UNL1        0.1099
     26 C          69.3954   92.1427   14.0854 C.3     1  UNL1        0.0265
     27 C          68.8725   93.9402   16.1173 C.3     1  UNL1        0.0021
     28 C          67.6722   93.0690   15.7401 C.3     1  UNL1        0.0245
     29 O          64.1629   83.4057    9.3382 O.3     1  UNL1       -0.4727
     30 C          64.1837   82.4671   10.4186 C.3     1  UNL1        0.2374
     31 C          64.1613   83.2017   11.7709 C.3     1  UNL1        0.1909
     32 C          64.4173   82.3132   12.9501 C.3     1  UNL1        0.1783
     33 O          63.6860   82.8703   13.9985 O.3     1  UNL1       -0.3271
     34 C          62.7418   83.7438   13.4033 C.3     1  UNL1        0.2232
     35 O          62.9064   83.7519   11.9999 O.3     1  UNL1       -0.3258
     36 C          62.9171   85.1637   13.9569 C.ar    1  UNL1        0.0404
     37 C          61.7969   86.0225   14.0464 C.ar    1  UNL1        0.0021
     38 C          61.9116   87.3002   14.5959 C.ar    1  UNL1        0.0113
     39 C          63.1365   87.7429   15.0897 C.ar    1  UNL1        0.0585
     40 CL         63.2730   89.3480   15.7830 Cl      1  UNL1       -0.0822
     41 C          64.2524   86.9077   15.0317 C.ar    1  UNL1        0.0226
     42 C          64.1595   85.6293   14.4674 C.ar    1  UNL1        0.0591
     43 CL         65.6304   84.6586   14.4471 Cl      1  UNL1       -0.0824
     44 C          61.3184   83.2432   13.7179 C.3     1  UNL1        0.1338
     45 N          60.6055   82.9054   12.4620 N.3     1  UNL1       -0.2659
     46 C          60.4238   81.4518   12.3259 C.3     1  UNL1        0.0898
     47 C          59.2982   83.5795   12.3873 C.3     1  UNL1        0.0898
@<TRIPOS>BOND
     1    27    28    1
     2    28    25    1
     3    25    26    1
     4    25    19    1
     5    19    20   ar
     6    20    21   ar
     7    21    22   ar
     8    22    13    1
     9    13    14   ar
    10    14    15   ar
    11    15    16   ar
    12    16     7    1
    13     7     8    1
    14     8     9    1
    15     9    10    1
    16    10     1    1
    17     1     2   ar
    18     2     3   ar
    19     3     4   ar
    20     4    29    1
    21    29    30    1
    22    30    31    1
    23    31    32    1
    24    32    33    1
    25    33    34    1
    26    34    44    1
    27    44    45    1
    28    45    46    1
    29    45    47    1
    30    34    36    1
    31    36    37   ar
    32    37    38   ar
    33    38    39   ar
    34    39    40    1
    35    39    41   ar
    36    41    42   ar
    37    42    43    1
    38    34    35    1
    39     4     5   ar
    40     5     6   ar
    41    10    11    1
    42    11    12    1
    43    16    17   ar
    44    17    18   ar
    45    22    23   ar
    46    23    24    2
    47    23    19   ar
    48    18    13   ar
    49    12     7    1
    50     6     1   ar
    51    35    31    1
    52    42    36   ar
@<TRIPOS>MOLECULE
*****
 47 52 0 0 0
SMALL
GASTEIGER

@<TRIPOS>ATOM
      1 C          60.9748   80.8885   12.0331 C.ar    1  UNL1        0.0481
      2 C          62.3647   80.8957   11.8083 C.ar    1  UNL1        0.0176
      3 C          63.2462   81.2257   12.8381 C.ar    1  UNL1        0.0382
      4 C          62.7537   81.5520   14.1106 C.ar    1  UNL1        0.1388
      5 C          61.3892   81.4060   14.3756 C.ar    1  UNL1        0.0382
      6 C          60.5025   81.0897   13.3425 C.ar    1  UNL1        0.0176
      7 N          59.5290   82.7863    9.2181 N.pl3   1  UNL1       -0.3041
      8 C          60.5610   81.8429    8.7555 C.3     1  UNL1        0.1122
      9 C          60.4969   80.5329    9.5605 C.3     1  UNL1        0.1122
     10 N          60.0431   80.8228   10.9290 N.pl3   1  UNL1       -0.3041
     11 C          58.7067   81.4315   11.0864 C.3     1  UNL1        0.1122
     12 C          58.3169   82.2403    9.8372 C.3     1  UNL1        0.1122
     13 C          60.5030   86.8521   10.0040 C.ar    1  UNL1        0.0699
     14 C          59.3175   86.5192    9.3220 C.ar    1  UNL1        0.0190
     15 C          59.0006   85.1817    9.0607 C.ar    1  UNL1        0.0160
     16 C          59.8709   84.1605    9.4579 C.ar    1  UNL1        0.0480
     17 C          61.0554   84.4879   10.1313 C.ar    1  UNL1        0.0160
     18 C          61.3716   85.8201   10.3986 C.ar    1  UNL1        0.0190
     19 N          61.8707   90.0716   10.9686 N.ar    1  UNL1       -0.2024
     20 N          60.7544   90.4584   10.3682 N.ar    1  UNL1       -0.1442
     21 C          60.1283   89.3309    9.9680 C.ar    1  UNL1        0.2073
     22 N          60.8213   88.2226   10.3181 N.ar    1  UNL1       -0.2398
     23 C          61.9036   88.7277   10.9439 C.ar    1  UNL1        0.3522
     24 O          62.8497   88.0371   11.4096 O.2     1  UNL1       -0.2444
     25 C          62.8555   90.9701   11.5831 C.3     1  UNL1        0.1099
     26 C          63.4523   90.3528   12.8558 C.3     1  UNL1        0.0265
     27 C          65.0250   92.2951   11.1402 C.3     1  UNL1        0.0021
     28 C          63.9348   91.3894   10.5627 C.3     1  UNL1        0.0245
     29 O          63.5822   82.0889   15.1052 O.3     1  UNL1       -0.4727
     30 C          64.1414   83.4049   15.0425 C.3     1  UNL1        0.2374
     31 C          63.1752   84.3675   14.3290 C.3     1  UNL1        0.1909
     32 C          63.7868   85.6872   13.9690 C.3     1  UNL1        0.1783
     33 O          62.7442   86.6102   14.0423 O.3     1  UNL1       -0.3271
     34 C          61.7164   85.9887   14.7949 C.3     1  UNL1        0.2232
     35 O          62.1059   84.6801   15.1589 O.3     1  UNL1       -0.3258
     36 C          60.4213   85.9378   13.9744 C.ar    1  UNL1        0.0404
     37 C          59.8789   84.6860   13.6010 C.ar    1  UNL1        0.0021
     38 C          58.6738   84.6033   12.9021 C.ar    1  UNL1        0.0113
     39 C          57.9699   85.7614   12.5802 C.ar    1  UNL1        0.0585
     40 CL         56.4537   85.6505   11.7059 Cl      1  UNL1       -0.0822
     41 C          58.4730   87.0076   12.9548 C.ar    1  UNL1        0.0226
     42 C          59.6897   87.1101   13.6406 C.ar    1  UNL1        0.0591
     43 CL         60.2303   88.7329   14.0657 Cl      1  UNL1       -0.0824
     44 C          61.4739   86.7953   16.0858 C.3     1  UNL1        0.1338
     45 N          62.7674   87.1401   16.7243 N.3     1  UNL1       -0.2659
     46 C          63.0149   88.5897   16.6798 C.3     1  UNL1        0.0898
     47 C          62.8218   86.6686   18.1185 C.3     1  UNL1        0.0898
@<TRIPOS>BOND
     1    27    28    1
     2    28    25    1
     3    25    26    1
     4    25    19    1
     5    19    20   ar
     6    20    21   ar
     7    21    22   ar
     8    22    13    1
     9    13    14   ar
    10    14    15   ar
    11    15    16   ar
    12    16     7    1
    13     7     8    1
    14     8     9    1
    15     9    10    1
    16    10     1    1
    17     1     2   ar
    18     2     3   ar
    19     3     4   ar
    20     4    29    1
    21    29    30    1
    22    30    31    1
    23    31    32    1
    24    32    33    1
    25    33    34    1
    26    34    44    1
    27    44    45    1
    28    45    46    1
    29    45    47    1
    30    34    36    1
    31    36    37   ar
    32    37    38   ar
    33    38    39   ar
    34    39    40    1
    35    39    41   ar
    36    41    42   ar
    37    42    43    1
    38    34    35    1
    39     4     5   ar
    40     5     6   ar
    41    10    11    1
    42    11    12    1
    43    16    17   ar
    44    17    18   ar
    45    22    23   ar
    46    23    24    2
    47    23    19   ar
    48    18    13   ar
    49    12     7    1
    50     6     1   ar
    51    35    31    1
    52    42    36   ar
@<TRIPOS>MOLECULE
*****
 47 52 0 0 0
SMALL
GASTEIGER

@<TRIPOS>ATOM
      1 C          62.0628   89.4469   12.9994 C.ar    1  UNL1        0.0481
      2 C          62.6999   89.1010   11.7924 C.ar    1  UNL1        0.0176
      3 C          61.9509   88.8687   10.6385 C.ar    1  UNL1        0.0382
      4 C          60.5528   88.9801   10.6708 C.ar    1  UNL1        0.1388
      5 C          59.9301   89.4624   11.8253 C.ar    1  UNL1        0.0382
      6 C          60.6761   89.6820   12.9867 C.ar    1  UNL1        0.0176
      7 N          63.7669   87.2538   15.4288 N.pl3   1  UNL1       -0.3041
      8 C          64.7351   87.9677   14.5791 C.3     1  UNL1        0.1122
      9 C          64.2516   89.4006   14.2938 C.3     1  UNL1        0.1122
     10 N          62.7816   89.4208   14.2539 N.pl3   1  UNL1       -0.3041
     11 C          62.0637   89.0141   15.4790 C.3     1  UNL1        0.1122
     12 C          62.9108   88.0436   16.3198 C.3     1  UNL1        0.1122
     13 C          62.5195   83.3211   14.3918 C.ar    1  UNL1        0.0699
     14 C          62.1379   83.8924   15.6204 C.ar    1  UNL1        0.0190
     15 C          62.5524   85.1843   15.9618 C.ar    1  UNL1        0.0160
     16 C          63.3691   85.9156   15.0920 C.ar    1  UNL1        0.0480
     17 C          63.7568   85.3482   13.8707 C.ar    1  UNL1        0.0160
     18 C          63.3404   84.0624   13.5247 C.ar    1  UNL1        0.0190
     19 N          60.8252   80.3071   13.2914 N.ar    1  UNL1       -0.2024
     20 N          62.0688   79.8591   13.3860 N.ar    1  UNL1       -0.1442
     21 C          62.8160   80.9000   13.8122 C.ar    1  UNL1        0.2073
     22 N          62.0646   82.0082   14.0080 N.ar    1  UNL1       -0.2398
     23 C          60.8251   81.5962   13.6736 C.ar    1  UNL1        0.3522
     24 O          59.8008   82.3309   13.6748 O.2     1  UNL1       -0.2444
     25 C          59.6659   79.5045   12.8833 C.3     1  UNL1        0.1099
     26 C          58.8728   79.0144   14.1031 C.3     1  UNL1        0.0265
     27 C          58.0521   79.3777   10.8739 C.3     1  UNL1        0.0021
     28 C          58.7885   80.2732   11.8728 C.3     1  UNL1        0.0245
     29 O          59.7554   88.5538    9.6001 O.3     1  UNL1       -0.4727
     30 C          60.2826   87.9580    8.4103 C.3     1  UNL1        0.2374
     31 C          60.0405   86.4380    8.4162 C.3     1  UNL1        0.1909
     32 C          58.6453   86.0428    8.0385 C.3     1  UNL1        0.1783
     33 O          58.3857   84.8741    8.7533 O.3     1  UNL1       -0.3271
     34 C          59.3548   84.8172    9.7860 C.3     1  UNL1        0.2232
     35 O          60.2270   85.9250    9.6937 O.3     1  UNL1       -0.3258
     36 C          60.1560   83.5131    9.6840 C.ar    1  UNL1        0.0404
     37 C          61.3947   83.3990   10.3572 C.ar    1  UNL1        0.0021
     38 C          62.1218   82.2081   10.3298 C.ar    1  UNL1        0.0113
     39 C          61.6222   81.0979    9.6528 C.ar    1  UNL1        0.0585
     40 CL         62.5386   79.6029    9.6260 Cl      1  UNL1       -0.0822
     41 C          60.3932   81.1780    8.9977 C.ar    1  UNL1        0.0226
     42 C          59.6588   82.3705    8.9998 C.ar    1  UNL1        0.0591
     43 CL         58.1191   82.3594    8.1420 Cl      1  UNL1       -0.0824
     44 C          58.6444   84.8767   11.1527 C.3     1  UNL1        0.1338
     45 N          59.0352   86.1092   11.8793 N.3     1  UNL1       -0.2659
     46 C          57.8782   86.7231   12.5494 C.3     1  UNL1        0.0898
     47 C          60.0958   85.8395   12.8649 C.3     1  UNL1        0.0898
@<TRIPOS>BOND
     1    27    28    1
     2    28    25    1
     3    25    26    1
     4    25    19    1
     5    19    20   ar
     6    20    21   ar
     7    21    22   ar
     8    22    13    1
     9    13    14   ar
    10    14    15   ar
    11    15    16   ar
    12    16     7    1
    13     7     8    1
    14     8     9    1
    15     9    10    1
    16    10     1    1
    17     1     2   ar
    18     2     3   ar
    19     3     4   ar
    20     4    29    1
    21    29    30    1
    22    30    31    1
    23    31    32    1
    24    32    33    1
    25    33    34    1
    26    34    44    1
    27    44    45    1
    28    45    46    1
    29    45    47    1
    30    34    36    1
    31    36    37   ar
    32    37    38   ar
    33    38    39   ar
    34    39    40    1
    35    39    41   ar
    36    41    42   ar
    37    42    43    1
    38    34    35    1
    39     4     5   ar
    40     5     6   ar
    41    10    11    1
    42    11    12    1
    43    16    17   ar
    44    17    18   ar
    45    22    23   ar
    46    23    24    2
    47    23    19   ar
    48    18    13   ar
    49    12     7    1
    50     6     1   ar
    51    35    31    1
    52    42    36   ar
