@<TRIPOS>MOLECULE
*****
 41 45 0 0 0
SMALL
GASTEIGER

@<TRIPOS>ATOM
      1 C         -26.4183   50.4433   -9.9925 C.ar    1  UNL1        0.0045
      2 C         -25.8519   50.8214   -8.7382 C.ar    1  UNL1        0.0882
      3 C         -26.6862   50.9408   -7.5957 C.ar    1  UNL1        0.1779
      4 C         -28.0629   50.6573   -7.6753 C.ar    1  UNL1        0.1896
      5 C         -28.5888   50.2876   -8.9131 C.ar    1  UNL1        0.1170
      6 C         -27.7974   50.1868  -10.0230 C.ar    1  UNL1        0.0993
      7 N         -28.5319   49.8062  -11.0855 N.ar    1  UNL1       -0.2137
      8 C         -29.7820   49.6802  -10.5718 C.ar    1  UNL1        0.2018
      9 N         -29.8523   49.9564   -9.2424 N.ar    1  UNL1       -0.2950
     10 C         -31.0270   49.9234   -8.3706 C.3     1  UNL1        0.1333
     11 O         -28.8513   50.7569   -6.5250 O.3     1  UNL1       -0.4669
     12 C         -28.2565   50.8626   -5.2303 C.3     1  UNL1        0.2527
     13 C         -27.0159   51.7611   -5.2910 C.3     1  UNL1        0.2526
     14 O         -26.1629   51.3534   -6.3631 O.3     1  UNL1       -0.4682
     15 C         -24.4083   51.0939   -8.5922 C.2     1  UNL1        0.2523
     16 O         -23.7788   50.5816   -7.6273 O.2     1  UNL1       -0.2697
     17 N         -23.7497   52.0029   -9.4862 N.am    1  UNL1       -0.2803
     18 H         -24.3430   52.6923  -10.0016 H       1  UNL1        0.1552
     19 C         -22.3240   52.0647   -9.6607 C.ar    1  UNL1        0.0506
     20 C         -21.7271   51.7781  -10.8998 C.ar    1  UNL1        0.0170
     21 C         -20.3431   51.8736  -11.0531 C.ar    1  UNL1        0.0309
     22 C         -19.5401   52.2653   -9.9794 C.ar    1  UNL1        0.1441
     23 F         -18.1973   52.3550  -10.1571 F       1  UNL1       -0.2042
     24 C         -20.1195   52.5735   -8.7348 C.ar    1  UNL1        0.1000
     25 C         -21.5172   52.4801   -8.5904 C.ar    1  UNL1        0.0208
     26 C         -19.2399   53.0128   -7.5885 C.3     1  UNL1        0.4207
     27 F         -20.0280   53.3476   -6.5022 F       1  UNL1       -0.1658
     28 F         -18.4683   54.1120   -7.9245 F       1  UNL1       -0.1658
     29 F         -18.3970   51.9758   -7.2322 F       1  UNL1       -0.1658
     30 C         -25.6821   51.3713  -12.1960 C.3     1  UNL1        0.0051
     31 C         -25.5818   50.1951  -11.2302 C.3     1  UNL1        0.0282
     32 N         -30.9203   49.3469  -11.3813 N.pl3   1  UNL1       -0.2814
     33 H         -31.8175   49.8537  -11.2180 H       1  UNL1        0.1551
     34 C         -30.8227   48.4885  -12.5299 C.ar    1  UNL1        0.0889
     35 C         -30.7616   49.0334  -13.8282 C.ar    1  UNL1        0.1543
     36 F         -30.7662   50.3771  -14.0167 F       1  UNL1       -0.2028
     37 C         -30.6536   48.1930  -14.9401 C.ar    1  UNL1        0.0310
     38 C         -30.5948   46.8088  -14.7708 C.ar    1  UNL1        0.0033
     39 C         -30.6372   46.2591  -13.4881 C.ar    1  UNL1        0.0128
     40 C         -30.7448   47.0903  -12.3668 C.ar    1  UNL1        0.0733
     41 CL        -30.8204   46.3508  -10.7725 Cl      1  UNL1       -0.0809
@<TRIPOS>BOND
     1    30    31    1
     2    31     1    1
     3     1     2   ar
     4     2    15    1
     5    15    16    2
     6    15    17   am
     7    17    19    1
     8    19    20   ar
     9    20    21   ar
    10    21    22   ar
    11    22    23    1
    12    22    24   ar
    13    24    26    1
    14    26    27    1
    15    26    28    1
    16    26    29    1
    17    24    25   ar
    18     2     3   ar
    19     3     4   ar
    20     4     5   ar
    21     5     6   ar
    22     6     7   ar
    23     7     8   ar
    24     8    32    1
    25    32    34    1
    26    34    35   ar
    27    35    36    1
    28    35    37   ar
    29    37    38   ar
    30    38    39   ar
    31    39    40   ar
    32    40    41    1
    33     8     9   ar
    34     9    10    1
    35     4    11    1
    36    11    12    1
    37    12    13    1
    38    13    14    1
    39     6     1   ar
    40    40    34   ar
    41    25    19   ar
    42    14     3    1
    43     9     5   ar
    44    17    18    1
    45    32    33    1
@<TRIPOS>MOLECULE
*****
 41 45 0 0 0
SMALL
GASTEIGER

@<TRIPOS>ATOM
      1 C         -26.6701   49.7843   -8.4942 C.ar    1  UNL1        0.0045
      2 C         -26.4641   50.4923   -9.7163 C.ar    1  UNL1        0.0882
      3 C         -27.5821   50.9185  -10.4807 C.ar    1  UNL1        0.1779
      4 C         -28.8952   50.6819  -10.0315 C.ar    1  UNL1        0.1896
      5 C         -29.0667   49.9901   -8.8326 C.ar    1  UNL1        0.1170
      6 C         -27.9972   49.5600   -8.0979 C.ar    1  UNL1        0.0993
      7 N         -28.4198   48.9317   -6.9845 N.ar    1  UNL1       -0.2137
      8 C         -29.7719   49.0055   -7.0783 C.ar    1  UNL1        0.2018
      9 N         -30.2034   49.6563   -8.1915 N.ar    1  UNL1       -0.2950
     10 C         -31.5802   49.9186   -8.6116 C.3     1  UNL1        0.1333
     11 O         -29.9739   51.1401  -10.7939 O.3     1  UNL1       -0.4669
     12 C         -29.7810   52.0745  -11.8573 C.3     1  UNL1        0.2527
     13 C         -28.4922   51.7476  -12.6202 C.3     1  UNL1        0.2526
     14 O         -27.4071   51.5760  -11.7056 O.3     1  UNL1       -0.4682
     15 C         -25.1083   50.7986  -10.2136 C.2     1  UNL1        0.2523
     16 O         -24.7550   50.3687  -11.3451 O.2     1  UNL1       -0.2697
     17 N         -24.1737   51.5002   -9.3809 N.am    1  UNL1       -0.2803
     18 H         -24.3424   51.4932   -8.3491 H       1  UNL1        0.1552
     19 C         -22.9899   52.1497   -9.8743 C.ar    1  UNL1        0.0506
     20 C         -22.9745   52.7860  -11.1268 C.ar    1  UNL1        0.0170
     21 C         -21.8222   53.4356  -11.5720 C.ar    1  UNL1        0.0309
     22 C         -20.6776   53.4684  -10.7721 C.ar    1  UNL1        0.1441
     23 F         -19.5720   54.1116  -11.2269 F       1  UNL1       -0.2042
     24 C         -20.6774   52.8524   -9.5071 C.ar    1  UNL1        0.1000
     25 C         -21.8461   52.2040   -9.0632 C.ar    1  UNL1        0.0208
     26 C         -19.4380   52.9118   -8.6463 C.3     1  UNL1        0.4207
     27 F         -19.6659   52.2386   -7.4596 F       1  UNL1       -0.1658
     28 F         -19.0812   54.2157   -8.3480 F       1  UNL1       -0.1658
     29 F         -18.3863   52.3093   -9.3124 F       1  UNL1       -0.1658
     30 C         -25.5858   47.8950   -7.2640 C.3     1  UNL1        0.0051
     31 C         -25.5353   49.3877   -7.5734 C.3     1  UNL1        0.0282
     32 N         -30.6479   48.3956   -6.1177 N.pl3   1  UNL1       -0.2814
     33 H         -31.5833   48.0594   -6.4346 H       1  UNL1        0.1551
     34 C         -30.2157   48.0545   -4.7902 C.ar    1  UNL1        0.0889
     35 C         -29.6222   46.8032   -4.5295 C.ar    1  UNL1        0.1543
     36 F         -29.4228   45.9088   -5.5303 F       1  UNL1       -0.2028
     37 C         -29.1922   46.4830   -3.2384 C.ar    1  UNL1        0.0310
     38 C         -29.3385   47.4053   -2.2010 C.ar    1  UNL1        0.0033
     39 C         -29.9094   48.6545   -2.4516 C.ar    1  UNL1        0.0128
     40 C         -30.3434   48.9868   -3.7404 C.ar    1  UNL1        0.0733
     41 CL        -31.0798   50.5627   -4.0026 Cl      1  UNL1       -0.0809
@<TRIPOS>BOND
     1    30    31    1
     2    31     1    1
     3     1     2   ar
     4     2    15    1
     5    15    16    2
     6    15    17   am
     7    17    19    1
     8    19    20   ar
     9    20    21   ar
    10    21    22   ar
    11    22    23    1
    12    22    24   ar
    13    24    26    1
    14    26    27    1
    15    26    28    1
    16    26    29    1
    17    24    25   ar
    18     2     3   ar
    19     3     4   ar
    20     4     5   ar
    21     5     6   ar
    22     6     7   ar
    23     7     8   ar
    24     8    32    1
    25    32    34    1
    26    34    35   ar
    27    35    36    1
    28    35    37   ar
    29    37    38   ar
    30    38    39   ar
    31    39    40   ar
    32    40    41    1
    33     8     9   ar
    34     9    10    1
    35     4    11    1
    36    11    12    1
    37    12    13    1
    38    13    14    1
    39     6     1   ar
    40    40    34   ar
    41    25    19   ar
    42    14     3    1
    43     9     5   ar
    44    17    18    1
    45    32    33    1
@<TRIPOS>MOLECULE
*****
 41 45 0 0 0
SMALL
GASTEIGER

@<TRIPOS>ATOM
      1 C         -26.6726   49.8165   -8.4711 C.ar    1  UNL1        0.0045
      2 C         -26.4790   50.5245   -9.6952 C.ar    1  UNL1        0.0882
      3 C         -27.6048   50.9500  -10.4486 C.ar    1  UNL1        0.1779
      4 C         -28.9132   50.7126   -9.9865 C.ar    1  UNL1        0.1896
      5 C         -29.0725   50.0208   -8.7859 C.ar    1  UNL1        0.1170
      6 C         -27.9956   49.5913   -8.0618 C.ar    1  UNL1        0.0993
      7 N         -28.4068   48.9628   -6.9443 N.ar    1  UNL1       -0.2137
      8 C         -29.7598   49.0358   -7.0248 C.ar    1  UNL1        0.2018
      9 N         -30.2026   49.6862   -8.1337 N.ar    1  UNL1       -0.2950
     10 C         -31.5837   49.9477   -8.5402 C.3     1  UNL1        0.1333
     11 O         -29.9996   51.1701  -10.7383 O.3     1  UNL1       -0.4669
     12 C         -29.8178   52.1046  -11.8036 C.3     1  UNL1        0.2527
     13 C         -28.5364   51.7785  -12.5791 C.3     1  UNL1        0.2526
     14 O         -27.4422   51.6076  -11.6752 O.3     1  UNL1       -0.4682
     15 C         -25.1284   50.8316  -10.2058 C.2     1  UNL1        0.2523
     16 O         -24.7913   50.4148  -11.3471 O.2     1  UNL1       -0.2697
     17 N         -24.1804   51.5188   -9.3762 N.am    1  UNL1       -0.2803
     18 H         -24.3360   51.4994   -8.3426 H       1  UNL1        0.1552
     19 C         -23.0002   52.1698   -9.8764 C.ar    1  UNL1        0.0506
     20 C         -22.9881   52.7924  -11.1358 C.ar    1  UNL1        0.0170
     21 C         -21.8394   53.4438  -11.5878 C.ar    1  UNL1        0.0309
     22 C         -20.6953   53.4920  -10.7880 C.ar    1  UNL1        0.1441
     23 F         -19.5934   54.1366  -11.2496 F       1  UNL1       -0.2042
     24 C         -20.6919   52.8899   -9.5164 C.ar    1  UNL1        0.1000
     25 C         -21.8570   52.2397   -9.0657 C.ar    1  UNL1        0.0208
     26 C         -19.4532   52.9660   -8.6560 C.3     1  UNL1        0.4207
     27 F         -19.1530   54.2904   -8.3929 F       1  UNL1       -0.1658
     28 F         -18.3604   52.3844   -9.2755 F       1  UNL1       -0.1658
     29 F         -19.6826   52.3091   -7.4607 F       1  UNL1       -0.1658
     30 C         -25.5466   47.9196   -7.2910 C.3     1  UNL1        0.0051
     31 C         -25.5285   49.4206   -7.5615 C.3     1  UNL1        0.0282
     32 N         -30.6259   48.4253   -6.0556 N.pl3   1  UNL1       -0.2814
     33 H         -31.5730   48.1090   -6.3582 H       1  UNL1        0.1551
     34 C         -30.1725   48.0571   -4.7425 C.ar    1  UNL1        0.0889
     35 C         -30.3231   48.9441   -3.6578 C.ar    1  UNL1        0.1543
     36 F         -30.9228   50.1496   -3.8265 F       1  UNL1       -0.2028
     37 C         -29.8916   48.5742   -2.3806 C.ar    1  UNL1        0.0310
     38 C         -29.3181   47.3193   -2.1694 C.ar    1  UNL1        0.0033
     39 C         -29.1797   46.4260   -3.2335 C.ar    1  UNL1        0.0128
     40 C         -29.6085   46.7848   -4.5169 C.ar    1  UNL1        0.0733
     41 CL        -29.3902   45.6361   -5.8313 Cl      1  UNL1       -0.0809
@<TRIPOS>BOND
     1    30    31    1
     2    31     1    1
     3     1     2   ar
     4     2    15    1
     5    15    16    2
     6    15    17   am
     7    17    19    1
     8    19    20   ar
     9    20    21   ar
    10    21    22   ar
    11    22    23    1
    12    22    24   ar
    13    24    26    1
    14    26    27    1
    15    26    28    1
    16    26    29    1
    17    24    25   ar
    18     2     3   ar
    19     3     4   ar
    20     4     5   ar
    21     5     6   ar
    22     6     7   ar
    23     7     8   ar
    24     8    32    1
    25    32    34    1
    26    34    35   ar
    27    35    36    1
    28    35    37   ar
    29    37    38   ar
    30    38    39   ar
    31    39    40   ar
    32    40    41    1
    33     8     9   ar
    34     9    10    1
    35     4    11    1
    36    11    12    1
    37    12    13    1
    38    13    14    1
    39     6     1   ar
    40    40    34   ar
    41    25    19   ar
    42    14     3    1
    43     9     5   ar
    44    17    18    1
    45    32    33    1
@<TRIPOS>MOLECULE
*****
 41 45 0 0 0
SMALL
GASTEIGER

@<TRIPOS>ATOM
      1 C         -29.5483   50.3519  -11.4843 C.ar    1  UNL1        0.0045
      2 C         -29.6154   49.5860  -10.2817 C.ar    1  UNL1        0.0882
      3 C         -30.0309   48.2292  -10.3328 C.ar    1  UNL1        0.1779
      4 C         -30.3457   47.6172  -11.5608 C.ar    1  UNL1        0.1896
      5 C         -30.2690   48.3888  -12.7202 C.ar    1  UNL1        0.1170
      6 C         -29.8871   49.7006  -12.6800 C.ar    1  UNL1        0.0993
      7 N         -29.8810   50.2220  -13.9215 N.ar    1  UNL1       -0.2137
      8 C         -30.2666   49.1790  -14.7000 C.ar    1  UNL1        0.2018
      9 N         -30.5021   48.0377  -13.9996 N.ar    1  UNL1       -0.2950
     10 C         -30.9290   46.7338  -14.5083 C.3     1  UNL1        0.1333
     11 O         -30.7238   46.2713  -11.5793 O.3     1  UNL1       -0.4669
     12 C         -30.5300   45.4352  -10.4372 C.3     1  UNL1        0.2527
     13 C         -30.8357   46.2155   -9.1536 C.3     1  UNL1        0.2526
     14 O         -30.1478   47.4685   -9.1618 O.3     1  UNL1       -0.4682
     15 C         -29.2605   50.1689   -8.9727 C.2     1  UNL1        0.2523
     16 O         -30.1690   50.6632   -8.2513 O.2     1  UNL1       -0.2697
     17 N         -27.8868   50.2527   -8.5666 N.am    1  UNL1       -0.2803
     18 H         -27.1563   50.2084   -9.3132 H       1  UNL1        0.1552
     19 C         -27.4629   50.4612   -7.2088 C.ar    1  UNL1        0.0506
     20 C         -27.1024   51.7372   -6.7443 C.ar    1  UNL1        0.0170
     21 C         -26.7224   51.9203   -5.4138 C.ar    1  UNL1        0.0309
     22 C         -26.7075   50.8391   -4.5296 C.ar    1  UNL1        0.1441
     23 F         -26.3388   51.0459   -3.2395 F       1  UNL1       -0.2042
     24 C         -27.0815   49.5563   -4.9701 C.ar    1  UNL1        0.1000
     25 C         -27.4690   49.3814   -6.3126 C.ar    1  UNL1        0.0208
     26 C         -27.0775   48.4008   -3.9977 C.3     1  UNL1        0.4207
     27 F         -28.1007   48.5636   -3.0812 F       1  UNL1       -0.1658
     28 F         -25.8811   48.3143   -3.3069 F       1  UNL1       -0.1658
     29 F         -27.2736   47.2185   -4.6879 F       1  UNL1       -0.1658
     30 C         -30.1396   52.7581  -11.8289 C.3     1  UNL1        0.0051
     31 C         -29.0181   51.7696  -11.5267 C.3     1  UNL1        0.0282
     32 N         -30.4621   49.3032  -16.1172 N.pl3   1  UNL1       -0.2814
     33 H         -31.2867   49.8399  -16.4646 H       1  UNL1        0.1551
     34 C         -29.4695   48.8882  -17.0700 C.ar    1  UNL1        0.0889
     35 C         -28.1864   49.4711  -17.0676 C.ar    1  UNL1        0.1543
     36 F         -27.8554   50.4141  -16.1498 F       1  UNL1       -0.2028
     37 C         -27.2215   49.0534  -17.9889 C.ar    1  UNL1        0.0310
     38 C         -27.5195   48.0484  -18.9105 C.ar    1  UNL1        0.0033
     39 C         -28.7819   47.4519  -18.9106 C.ar    1  UNL1        0.0128
     40 C         -29.7563   47.8614  -17.9926 C.ar    1  UNL1        0.0733
     41 CL        -31.3405   47.0987  -18.0474 Cl      1  UNL1       -0.0809
@<TRIPOS>BOND
     1    30    31    1
     2    31     1    1
     3     1     2   ar
     4     2    15    1
     5    15    16    2
     6    15    17   am
     7    17    19    1
     8    19    20   ar
     9    20    21   ar
    10    21    22   ar
    11    22    23    1
    12    22    24   ar
    13    24    26    1
    14    26    27    1
    15    26    28    1
    16    26    29    1
    17    24    25   ar
    18     2     3   ar
    19     3     4   ar
    20     4     5   ar
    21     5     6   ar
    22     6     7   ar
    23     7     8   ar
    24     8    32    1
    25    32    34    1
    26    34    35   ar
    27    35    36    1
    28    35    37   ar
    29    37    38   ar
    30    38    39   ar
    31    39    40   ar
    32    40    41    1
    33     8     9   ar
    34     9    10    1
    35     4    11    1
    36    11    12    1
    37    12    13    1
    38    13    14    1
    39     6     1   ar
    40    40    34   ar
    41    25    19   ar
    42    14     3    1
    43     9     5   ar
    44    17    18    1
    45    32    33    1
@<TRIPOS>MOLECULE
*****
 41 45 0 0 0
SMALL
GASTEIGER

@<TRIPOS>ATOM
      1 C         -27.4822   49.2392   -5.8540 C.ar    1  UNL1        0.0045
      2 C         -26.9899   48.7932   -7.1173 C.ar    1  UNL1        0.0882
      3 C         -27.6861   47.7793   -7.8267 C.ar    1  UNL1        0.1779
      4 C         -28.8776   47.2303   -7.3160 C.ar    1  UNL1        0.1896
      5 C         -29.3367   47.6867   -6.0806 C.ar    1  UNL1        0.1170
      6 C         -28.6645   48.6498   -5.3813 C.ar    1  UNL1        0.0993
      7 N         -29.3091   48.9258   -4.2318 N.ar    1  UNL1       -0.2137
      8 C         -30.3861   48.1007   -4.2719 C.ar    1  UNL1        0.2018
      9 N         -30.4413   47.3354   -5.3943 N.ar    1  UNL1       -0.2950
     10 C         -31.4513   46.3444   -5.7670 C.3     1  UNL1        0.1333
     11 O         -29.5540   46.2538   -8.0533 O.3     1  UNL1       -0.4669
     12 C         -29.2265   46.0041   -9.4213 C.3     1  UNL1        0.2527
     13 C         -27.7094   46.0883   -9.6249 C.3     1  UNL1        0.2526
     14 O         -27.1999   47.2925   -9.0474 O.3     1  UNL1       -0.4682
     15 C         -25.7657   49.3620   -7.7149 C.2     1  UNL1        0.2523
     16 O         -24.6650   48.7702   -7.5463 O.2     1  UNL1       -0.2697
     17 N         -25.8138   50.6204   -8.4028 N.am    1  UNL1       -0.2803
     18 H         -26.6154   51.2580   -8.1930 H       1  UNL1        0.1552
     19 C         -24.7945   51.0803   -9.3063 C.ar    1  UNL1        0.0506
     20 C         -25.0285   51.1648  -10.6890 C.ar    1  UNL1        0.0170
     21 C         -24.0335   51.6423  -11.5433 C.ar    1  UNL1        0.0309
     22 C         -22.8002   52.0508  -11.0304 C.ar    1  UNL1        0.1441
     23 F         -21.8517   52.5162  -11.8828 F       1  UNL1       -0.2042
     24 C         -22.5515   51.9907   -9.6468 C.ar    1  UNL1        0.1000
     25 C         -23.5629   51.5129   -8.7914 C.ar    1  UNL1        0.0208
     26 C         -21.2195   52.4528   -9.1055 C.3     1  UNL1        0.4207
     27 F         -20.2050   51.6979   -9.6661 F       1  UNL1       -0.1658
     28 F         -21.1513   52.3238   -7.7289 F       1  UNL1       -0.1658
     29 F         -21.0265   53.7825   -9.4329 F       1  UNL1       -0.1658
     30 C         -27.4825   51.7146   -5.4926 C.3     1  UNL1        0.0051
     31 C         -26.8562   50.3846   -5.0865 C.3     1  UNL1        0.0282
     32 N         -31.3327   48.0124   -3.1956 N.pl3   1  UNL1       -0.2814
     33 H         -32.3511   48.0528   -3.4188 H       1  UNL1        0.1551
     34 C         -30.9427   47.6764   -1.8538 C.ar    1  UNL1        0.0889
     35 C         -30.4660   46.3859   -1.5483 C.ar    1  UNL1        0.1543
     36 F         -30.3404   45.4458   -2.5187 F       1  UNL1       -0.2028
     37 C         -30.0761   46.0698   -0.2435 C.ar    1  UNL1        0.0310
     38 C         -30.1465   47.0341    0.7632 C.ar    1  UNL1        0.0033
     39 C         -30.6011   48.3208    0.4681 C.ar    1  UNL1        0.0128
     40 C         -30.9939   48.6494   -0.8348 C.ar    1  UNL1        0.0733
     41 CL        -31.5838   50.2758   -1.1533 Cl      1  UNL1       -0.0809
@<TRIPOS>BOND
     1    30    31    1
     2    31     1    1
     3     1     2   ar
     4     2    15    1
     5    15    16    2
     6    15    17   am
     7    17    19    1
     8    19    20   ar
     9    20    21   ar
    10    21    22   ar
    11    22    23    1
    12    22    24   ar
    13    24    26    1
    14    26    27    1
    15    26    28    1
    16    26    29    1
    17    24    25   ar
    18     2     3   ar
    19     3     4   ar
    20     4     5   ar
    21     5     6   ar
    22     6     7   ar
    23     7     8   ar
    24     8    32    1
    25    32    34    1
    26    34    35   ar
    27    35    36    1
    28    35    37   ar
    29    37    38   ar
    30    38    39   ar
    31    39    40   ar
    32    40    41    1
    33     8     9   ar
    34     9    10    1
    35     4    11    1
    36    11    12    1
    37    12    13    1
    38    13    14    1
    39     6     1   ar
    40    40    34   ar
    41    25    19   ar
    42    14     3    1
    43     9     5   ar
    44    17    18    1
    45    32    33    1
@<TRIPOS>MOLECULE
*****
 41 45 0 0 0
SMALL
GASTEIGER

@<TRIPOS>ATOM
      1 C         -27.6819   48.1823   -3.5252 C.ar    1  UNL1        0.0045
      2 C         -27.8823   47.5837   -4.8053 C.ar    1  UNL1        0.0882
      3 C         -28.8059   46.5146   -4.9463 C.ar    1  UNL1        0.1779
      4 C         -29.5541   46.0580   -3.8447 C.ar    1  UNL1        0.1896
      5 C         -29.3396   46.6629   -2.6064 C.ar    1  UNL1        0.1170
      6 C         -28.4401   47.6811   -2.4562 C.ar    1  UNL1        0.0993
      7 N         -28.4225   48.1019   -1.1773 N.ar    1  UNL1       -0.2137
      8 C         -29.3416   47.3058   -0.5740 C.ar    1  UNL1        0.2018
      9 N         -29.9310   46.4202   -1.4208 N.ar    1  UNL1       -0.2950
     10 C         -30.9551   45.4200   -1.1174 C.3     1  UNL1        0.1333
     11 O         -30.4761   45.0223   -4.0238 O.3     1  UNL1       -0.4669
     12 C         -30.8784   44.6112   -5.3316 C.3     1  UNL1        0.2527
     13 C         -29.6777   44.6324   -6.2844 C.3     1  UNL1        0.2526
     14 O         -28.9885   45.8805   -6.1825 O.3     1  UNL1       -0.4682
     15 C         -27.1506   48.0494   -5.9999 C.2     1  UNL1        0.2523
     16 O         -26.3105   47.2836   -6.5456 O.2     1  UNL1       -0.2697
     17 N         -27.3280   49.3900   -6.4800 N.am    1  UNL1       -0.2803
     18 H         -27.7031   50.0998   -5.8103 H       1  UNL1        0.1552
     19 C         -26.9581   49.8252   -7.7993 C.ar    1  UNL1        0.0506
     20 C         -27.8271   49.6645   -8.8915 C.ar    1  UNL1        0.0170
     21 C         -27.4582   50.1217  -10.1575 C.ar    1  UNL1        0.0309
     22 C         -26.2267   50.7527  -10.3481 C.ar    1  UNL1        0.1441
     23 F         -25.8949   51.1926  -11.5887 F       1  UNL1       -0.2042
     24 C         -25.3491   50.9392   -9.2643 C.ar    1  UNL1        0.1000
     25 C         -25.7316   50.4800   -7.9891 C.ar    1  UNL1        0.0208
     26 C         -24.0289   51.6392   -9.4826 C.3     1  UNL1        0.4207
     27 F         -24.2501   52.9875   -9.6985 F       1  UNL1       -0.1658
     28 F         -23.3498   51.1270  -10.5747 F       1  UNL1       -0.1658
     29 F         -23.2360   51.4860   -8.3599 F       1  UNL1       -0.1658
     30 C         -25.6278   49.0501   -2.3911 C.3     1  UNL1        0.0051
     31 C         -26.7940   49.3905   -3.3133 C.3     1  UNL1        0.0282
     32 N         -29.6085   47.3643    0.8358 N.pl3   1  UNL1       -0.2814
     33 H         -29.2708   46.5858    1.4428 H       1  UNL1        0.1551
     34 C         -30.1465   48.5370    1.4689 C.ar    1  UNL1        0.0889
     35 C         -29.7496   48.8926    2.7735 C.ar    1  UNL1        0.1543
     36 F         -28.8329   48.1512    3.4453 F       1  UNL1       -0.2028
     37 C         -30.2670   50.0418    3.3784 C.ar    1  UNL1        0.0310
     38 C         -31.1725   50.8504    2.6896 C.ar    1  UNL1        0.0033
     39 C         -31.5595   50.5169    1.3902 C.ar    1  UNL1        0.0128
     40 C         -31.0478   49.3689    0.7738 C.ar    1  UNL1        0.0733
     41 CL        -31.5840   48.9755   -0.8548 Cl      1  UNL1       -0.0809
@<TRIPOS>BOND
     1    30    31    1
     2    31     1    1
     3     1     2   ar
     4     2    15    1
     5    15    16    2
     6    15    17   am
     7    17    19    1
     8    19    20   ar
     9    20    21   ar
    10    21    22   ar
    11    22    23    1
    12    22    24   ar
    13    24    26    1
    14    26    27    1
    15    26    28    1
    16    26    29    1
    17    24    25   ar
    18     2     3   ar
    19     3     4   ar
    20     4     5   ar
    21     5     6   ar
    22     6     7   ar
    23     7     8   ar
    24     8    32    1
    25    32    34    1
    26    34    35   ar
    27    35    36    1
    28    35    37   ar
    29    37    38   ar
    30    38    39   ar
    31    39    40   ar
    32    40    41    1
    33     8     9   ar
    34     9    10    1
    35     4    11    1
    36    11    12    1
    37    12    13    1
    38    13    14    1
    39     6     1   ar
    40    40    34   ar
    41    25    19   ar
    42    14     3    1
    43     9     5   ar
    44    17    18    1
    45    32    33    1
@<TRIPOS>MOLECULE
*****
 41 45 0 0 0
SMALL
GASTEIGER

@<TRIPOS>ATOM
      1 C         -30.0197   47.1686   -9.1083 C.ar    1  UNL1        0.0045
      2 C         -29.9244   48.0731  -10.2083 C.ar    1  UNL1        0.0882
      3 C         -29.2977   49.3347  -10.0309 C.ar    1  UNL1        0.1779
      4 C         -28.7369   49.6931   -8.7904 C.ar    1  UNL1        0.1896
      5 C         -28.8424   48.7889   -7.7337 C.ar    1  UNL1        0.1170
      6 C         -29.4593   47.5790   -7.8892 C.ar    1  UNL1        0.0993
      7 N         -29.4231   46.8863   -6.7351 N.ar    1  UNL1       -0.2137
      8 C         -28.7625   47.7195   -5.8914 C.ar    1  UNL1        0.2018
      9 N         -28.3824   48.8889   -6.4716 N.ar    1  UNL1       -0.2950
     10 C         -27.6597   50.0081   -5.8666 C.3     1  UNL1        0.1333
     11 O         -28.1015   50.9315   -8.6571 O.3     1  UNL1       -0.4669
     12 C         -27.7623   51.7133   -9.8038 C.3     1  UNL1        0.2527
     13 C         -28.8772   51.6242  -10.8522 C.3     1  UNL1        0.2526
     14 O         -29.2304   50.2583  -11.0824 O.3     1  UNL1       -0.4682
     15 C         -30.4631   47.7311  -11.5396 C.2     1  UNL1        0.2523
     16 O         -31.5840   48.1918  -11.8880 O.2     1  UNL1       -0.2697
     17 N         -29.7607   46.8134  -12.3902 N.am    1  UNL1       -0.2803
     18 H         -29.0748   46.1640  -11.9421 H       1  UNL1        0.1552
     19 C         -29.9944   46.6899  -13.8034 C.ar    1  UNL1        0.0506
     20 C         -30.5604   45.5264  -14.3508 C.ar    1  UNL1        0.0170
     21 C         -30.8053   45.4410  -15.7222 C.ar    1  UNL1        0.0309
     22 C         -30.5001   46.5153  -16.5612 C.ar    1  UNL1        0.1441
     23 F         -30.7533   46.4079  -17.8905 F       1  UNL1       -0.2042
     24 C         -29.9488   47.6962  -16.0308 C.ar    1  UNL1        0.1000
     25 C         -29.7102   47.7760  -14.6452 C.ar    1  UNL1        0.0208
     26 C         -29.6409   48.8557  -16.9481 C.3     1  UNL1        0.4207
     27 F         -30.8201   49.3675  -17.4590 F       1  UNL1       -0.1658
     28 F         -28.8348   48.4738  -18.0067 F       1  UNL1       -0.1658
     29 F         -28.9906   49.8461  -16.2347 F       1  UNL1       -0.1658
     30 C         -29.4572   44.7513   -9.4226 C.3     1  UNL1        0.0051
     31 C         -30.5797   45.7681   -9.2425 C.3     1  UNL1        0.0282
     32 N         -28.5490   47.4068   -4.5062 N.pl3   1  UNL1       -0.2814
     33 H         -29.2708   47.6947   -3.8100 H       1  UNL1        0.1551
     34 C         -27.4839   46.5477   -4.0668 C.ar    1  UNL1        0.0889
     35 C         -27.4720   45.1835   -4.4200 C.ar    1  UNL1        0.1543
     36 F         -28.4497   44.6619   -5.2031 F       1  UNL1       -0.2028
     37 C         -26.4261   44.3564   -4.0001 C.ar    1  UNL1        0.0310
     38 C         -25.3809   44.8793   -3.2369 C.ar    1  UNL1        0.0033
     39 C         -25.3738   46.2331   -2.8957 C.ar    1  UNL1        0.0128
     40 C         -26.4153   47.0714   -3.3108 C.ar    1  UNL1        0.0733
     41 CL        -26.3761   48.7646   -2.8352 Cl      1  UNL1       -0.0809
@<TRIPOS>BOND
     1    30    31    1
     2    31     1    1
     3     1     2   ar
     4     2    15    1
     5    15    16    2
     6    15    17   am
     7    17    19    1
     8    19    20   ar
     9    20    21   ar
    10    21    22   ar
    11    22    23    1
    12    22    24   ar
    13    24    26    1
    14    26    27    1
    15    26    28    1
    16    26    29    1
    17    24    25   ar
    18     2     3   ar
    19     3     4   ar
    20     4     5   ar
    21     5     6   ar
    22     6     7   ar
    23     7     8   ar
    24     8    32    1
    25    32    34    1
    26    34    35   ar
    27    35    36    1
    28    35    37   ar
    29    37    38   ar
    30    38    39   ar
    31    39    40   ar
    32    40    41    1
    33     8     9   ar
    34     9    10    1
    35     4    11    1
    36    11    12    1
    37    12    13    1
    38    13    14    1
    39     6     1   ar
    40    40    34   ar
    41    25    19   ar
    42    14     3    1
    43     9     5   ar
    44    17    18    1
    45    32    33    1
@<TRIPOS>MOLECULE
*****
 41 45 0 0 0
SMALL
GASTEIGER

@<TRIPOS>ATOM
      1 C         -26.3216   50.5170   -8.0823 C.ar    1  UNL1        0.0045
      2 C         -27.7220   50.5697   -8.3531 C.ar    1  UNL1        0.0882
      3 C         -28.1771   50.9850   -9.6322 C.ar    1  UNL1        0.1779
      4 C         -27.2630   51.3136  -10.6512 C.ar    1  UNL1        0.1896
      5 C         -25.9005   51.2508  -10.3594 C.ar    1  UNL1        0.1170
      6 C         -25.4522   50.8692   -9.1257 C.ar    1  UNL1        0.0993
      7 N         -24.1060   50.8777   -9.0965 N.ar    1  UNL1       -0.2137
      8 C         -23.7690   51.2717  -10.3510 C.ar    1  UNL1        0.2018
      9 N         -24.8420   51.4984  -11.1547 N.ar    1  UNL1       -0.2950
     10 C         -24.8522   51.9304  -12.5527 C.3     1  UNL1        0.1333
     11 O         -27.7440   51.6911  -11.9085 O.3     1  UNL1       -0.4669
     12 C         -29.1112   51.4836  -12.2677 C.3     1  UNL1        0.2527
     13 C         -30.0220   51.7749  -11.0696 C.3     1  UNL1        0.2526
     14 O         -29.5467   51.0879   -9.9096 O.3     1  UNL1       -0.4682
     15 C         -28.7216   50.2002   -7.3316 C.2     1  UNL1        0.2523
     16 O         -29.4306   49.1722   -7.5064 O.2     1  UNL1       -0.2697
     17 N         -28.9455   51.0505   -6.1976 N.am    1  UNL1       -0.2803
     18 H         -28.6495   52.0502   -6.2745 H       1  UNL1        0.1552
     19 C         -29.6107   50.6264   -4.9957 C.ar    1  UNL1        0.0506
     20 C         -30.8157   51.2176   -4.5807 C.ar    1  UNL1        0.0170
     21 C         -31.4586   50.7690   -3.4260 C.ar    1  UNL1        0.0309
     22 C         -30.9158   49.7212   -2.6785 C.ar    1  UNL1        0.1441
     23 F         -31.5642   49.3009   -1.5625 F       1  UNL1       -0.2042
     24 C         -29.7190   49.1039   -3.0862 C.ar    1  UNL1        0.1000
     25 C         -29.0798   49.5589   -4.2556 C.ar    1  UNL1        0.0208
     26 C         -29.1540   47.9604   -2.2775 C.3     1  UNL1        0.4207
     27 F         -30.0335   46.8932   -2.3077 F       1  UNL1       -0.1658
     28 F         -28.9459   48.3184   -0.9566 F       1  UNL1       -0.1658
     29 F         -27.9457   47.5652   -2.8219 F       1  UNL1       -0.1658
     30 C         -25.8964   48.4713   -6.7066 C.3     1  UNL1        0.0051
     31 C         -25.7559   49.9882   -6.7810 C.3     1  UNL1        0.0282
     32 N         -22.4074   51.4836  -10.7550 N.pl3   1  UNL1       -0.2814
     33 H         -22.0476   50.9748  -11.5918 H       1  UNL1        0.1551
     34 C         -21.5836   52.5088  -10.1754 C.ar    1  UNL1        0.0889
     35 C         -21.1293   52.3963   -8.8461 C.ar    1  UNL1        0.1543
     36 F         -21.4376   51.3069   -8.0983 F       1  UNL1       -0.2028
     37 C         -20.3175   53.3909   -8.2929 C.ar    1  UNL1        0.0310
     38 C         -19.9430   54.4971   -9.0574 C.ar    1  UNL1        0.0033
     39 C         -20.3733   54.6102  -10.3808 C.ar    1  UNL1        0.0128
     40 C         -21.1860   53.6204  -10.9461 C.ar    1  UNL1        0.0733
     41 CL        -21.7243   53.8188  -12.6090 Cl      1  UNL1       -0.0809
@<TRIPOS>BOND
     1    30    31    1
     2    31     1    1
     3     1     2   ar
     4     2    15    1
     5    15    16    2
     6    15    17   am
     7    17    19    1
     8    19    20   ar
     9    20    21   ar
    10    21    22   ar
    11    22    23    1
    12    22    24   ar
    13    24    26    1
    14    26    27    1
    15    26    28    1
    16    26    29    1
    17    24    25   ar
    18     2     3   ar
    19     3     4   ar
    20     4     5   ar
    21     5     6   ar
    22     6     7   ar
    23     7     8   ar
    24     8    32    1
    25    32    34    1
    26    34    35   ar
    27    35    36    1
    28    35    37   ar
    29    37    38   ar
    30    38    39   ar
    31    39    40   ar
    32    40    41    1
    33     8     9   ar
    34     9    10    1
    35     4    11    1
    36    11    12    1
    37    12    13    1
    38    13    14    1
    39     6     1   ar
    40    40    34   ar
    41    25    19   ar
    42    14     3    1
    43     9     5   ar
    44    17    18    1
    45    32    33    1
@<TRIPOS>MOLECULE
*****
 41 45 0 0 0
SMALL
GASTEIGER

@<TRIPOS>ATOM
      1 C         -26.9347   50.6014   -6.8547 C.ar    1  UNL1        0.0045
      2 C         -27.1765   50.9871   -8.2074 C.ar    1  UNL1        0.0882
      3 C         -28.4265   50.6905   -8.8119 C.ar    1  UNL1        0.1779
      4 C         -29.4462   50.0499   -8.0827 C.ar    1  UNL1        0.1896
      5 C         -29.1831   49.6866   -6.7621 C.ar    1  UNL1        0.1170
      6 C         -27.9769   49.9517   -6.1762 C.ar    1  UNL1        0.0993
      7 N         -27.9725   49.5161   -4.9021 N.ar    1  UNL1       -0.2137
      8 C         -29.2136   48.9885   -4.7482 C.ar    1  UNL1        0.2018
      9 N         -29.9859   49.0851   -5.8631 N.ar    1  UNL1       -0.2950
     10 C         -31.3620   48.6265   -6.0550 C.3     1  UNL1        0.1333
     11 O         -30.6756   49.7981   -8.6991 O.3     1  UNL1       -0.4669
     12 C         -31.0183   50.4165   -9.9406 C.3     1  UNL1        0.2527
     13 C         -29.7913   50.4756  -10.8575 C.3     1  UNL1        0.2526
     14 O         -28.6732   51.0187  -10.1516 O.3     1  UNL1       -0.4682
     15 C         -26.1546   51.6939   -9.0046 C.2     1  UNL1        0.2523
     16 O         -26.3777   52.8753   -9.3848 O.2     1  UNL1       -0.2697
     17 N         -24.9607   51.0131   -9.4174 N.am    1  UNL1       -0.2803
     18 H         -24.9792   49.9679   -9.4345 H       1  UNL1        0.1552
     19 C         -23.7718   51.6820   -9.8710 C.ar    1  UNL1        0.0506
     20 C         -23.6968   52.2472  -11.1550 C.ar    1  UNL1        0.0170
     21 C         -22.5424   52.9175  -11.5625 C.ar    1  UNL1        0.0309
     22 C         -21.4557   53.0422  -10.6940 C.ar    1  UNL1        0.1441
     23 F         -20.3471   53.7038  -11.1137 F       1  UNL1       -0.2042
     24 C         -21.5167   52.4986   -9.3977 C.ar    1  UNL1        0.1000
     25 C         -22.6873   51.8287   -8.9926 C.ar    1  UNL1        0.0208
     26 C         -20.3404   52.6572   -8.4639 C.3     1  UNL1        0.4207
     27 F         -20.7062   52.2668   -7.1883 F       1  UNL1       -0.1658
     28 F         -19.8994   53.9683   -8.4105 F       1  UNL1       -0.1658
     29 F         -19.2976   51.8595   -8.8986 F       1  UNL1       -0.1658
     30 C         -25.9894   51.3967   -4.6793 C.3     1  UNL1        0.0051
     31 C         -25.6699   50.9712   -6.1086 C.3     1  UNL1        0.0282
     32 N         -29.6329   48.3390   -3.5380 N.pl3   1  UNL1       -0.2814
     33 H         -29.9850   48.9254   -2.7502 H       1  UNL1        0.1551
     34 C         -29.7705   46.9119   -3.4387 C.ar    1  UNL1        0.0889
     35 C         -29.0299   46.0604   -4.2828 C.ar    1  UNL1        0.1543
     36 F         -28.1538   46.5699   -5.1851 F       1  UNL1       -0.2028
     37 C         -29.1589   44.6728   -4.1720 C.ar    1  UNL1        0.0310
     38 C         -30.0146   44.1215   -3.2170 C.ar    1  UNL1        0.0033
     39 C         -30.7402   44.9554   -2.3640 C.ar    1  UNL1        0.0128
     40 C         -30.6190   46.3464   -2.4651 C.ar    1  UNL1        0.0733
     41 CL        -31.5723   47.3570   -1.3860 Cl      1  UNL1       -0.0809
@<TRIPOS>BOND
     1    30    31    1
     2    31     1    1
     3     1     2   ar
     4     2    15    1
     5    15    16    2
     6    15    17   am
     7    17    19    1
     8    19    20   ar
     9    20    21   ar
    10    21    22   ar
    11    22    23    1
    12    22    24   ar
    13    24    26    1
    14    26    27    1
    15    26    28    1
    16    26    29    1
    17    24    25   ar
    18     2     3   ar
    19     3     4   ar
    20     4     5   ar
    21     5     6   ar
    22     6     7   ar
    23     7     8   ar
    24     8    32    1
    25    32    34    1
    26    34    35   ar
    27    35    36    1
    28    35    37   ar
    29    37    38   ar
    30    38    39   ar
    31    39    40   ar
    32    40    41    1
    33     8     9   ar
    34     9    10    1
    35     4    11    1
    36    11    12    1
    37    12    13    1
    38    13    14    1
    39     6     1   ar
    40    40    34   ar
    41    25    19   ar
    42    14     3    1
    43     9     5   ar
    44    17    18    1
    45    32    33    1
