@<TRIPOS>MOLECULE
*****
 47 53 0 0 0
SMALL
GASTEIGER

@<TRIPOS>ATOM
      1 N          63.5094   88.2295   13.3352 N.am    1  UNL1       -0.0905
      2 C          64.3602   88.4840   14.3882 C.2     1  UNL1        0.4229
      3 O          64.6533   87.5775   15.2170 O.2     1  UNL1       -0.2135
      4 C          64.8875   89.7568   14.5896 C.2     1  UNL1        0.1157
      5 C          64.5008   90.7985   13.7643 C.2     1  UNL1        0.0173
      6 C          63.6546   90.5519   12.6833 C.ar    1  UNL1        0.0828
      7 C          63.2101   91.6194   11.8980 C.ar    1  UNL1        0.1047
      8 N          62.3877   91.3984   10.8479 N.ar    1  UNL1       -0.2434
      9 C          62.0251   90.1488   10.4688 C.ar    1  UNL1        0.0870
     10 C          61.2143   89.9959    9.3398 C.ar    1  UNL1        0.0193
     11 C          60.9020   88.7254    8.8619 C.ar    1  UNL1        0.0016
     12 C          61.4537   87.5884    9.4668 C.ar    1  UNL1        0.0018
     13 C          62.2895   87.7479   10.5862 C.ar    1  UNL1        0.0075
     14 C          62.5001   89.0146   11.1791 C.ar    1  UNL1        0.0810
     15 C          63.2295   89.2250   12.4019 C.ar    1  UNL1        0.2297
     16 C          61.1333   86.2294    8.9570 C.ar    1  UNL1        0.0192
     17 C          62.0110   85.5728    8.0761 C.ar    1  UNL1        0.0988
     18 N          61.6793   84.3677    7.5420 N.ar    1  UNL1       -0.2438
     19 C          60.5060   83.7497    7.8382 C.ar    1  UNL1        0.0810
     20 C          60.1819   82.5315    7.2318 C.ar    1  UNL1        0.0148
     21 C          58.9563   81.9056    7.5125 C.ar    1  UNL1       -0.0207
     22 C          58.0583   82.5120    8.4061 C.ar    1  UNL1       -0.0042
     23 C          58.3814   83.7247    9.0211 C.ar    1  UNL1        0.0012
     24 C          59.5992   84.3553    8.7327 C.ar    1  UNL1        0.0177
     25 C          59.9241   85.5961    9.2932 C.ar    1  UNL1        0.0030
     26 C          58.5766   80.6321    6.8065 C.3     1  UNL1        0.0264
     27 C          57.4388   80.8818    5.8219 C.3     1  UNL1        0.0050
     28 C          61.4491   84.5106   13.2100 C.ar    1  UNL1        0.0522
     29 C          60.7932   85.6995   12.8617 C.ar    1  UNL1        0.0206
     30 C          61.4516   86.9246   12.9496 C.ar    1  UNL1        0.0703
     31 C          62.7869   86.9783   13.3698 C.ar    1  UNL1        0.2271
     32 C          63.4305   85.7979   13.7774 C.ar    1  UNL1        0.0742
     33 C          62.7705   84.5557   13.7168 C.ar    1  UNL1        0.0906
     34 C          58.9402   79.4727   12.3367 C.2     1  UNL1        0.2257
     35 O          58.6657   78.8103   13.3743 O.2     1  UNL1       -0.2749
     36 N          59.4852   80.8013   12.4670 N.am    1  UNL1       -0.2760
     37 C          60.3297   81.3816   11.4127 C.3     1  UNL1        0.1148
     38 C          61.3761   82.3285   12.0090 C.3     1  UNL1        0.1123
     39 N          60.7830   83.2625   12.9729 N.pl3   1  UNL1       -0.3041
     40 C          59.4011   83.0924   13.4251 C.3     1  UNL1        0.1123
     41 C          59.0915   81.6069   13.6331 C.3     1  UNL1        0.1148
     42 C          57.5865   79.7674   10.2667 C.3     1  UNL1        0.0101
     43 C          58.5938   78.8846   10.9946 C.3     1  UNL1        0.0853
     44 C          63.5215   83.2949   14.0883 C.3     1  UNL1        0.4199
     45 F          62.7087   82.4217   14.7908 F       1  UNL1       -0.1658
     46 F          63.9672   82.6360   12.9576 F       1  UNL1       -0.1658
     47 F          64.6046   83.6236   14.8797 F       1  UNL1       -0.1658
@<TRIPOS>BOND
     1    42    43    1
     2    43    34    1
     3    34    35    2
     4    34    36   am
     5    36    37    1
     6    37    38    1
     7    38    39    1
     8    39    28    1
     9    28    29   ar
    10    29    30   ar
    11    30    31   ar
    12    31     1    1
    13     1     2    1
    14     2     3    2
    15     2     4    1
    16     4     5    2
    17     5     6    1
    18     6     7   ar
    19     7     8   ar
    20     8     9   ar
    21     9    10   ar
    22    10    11   ar
    23    11    12   ar
    24    12    16    1
    25    16    17   ar
    26    17    18   ar
    27    18    19   ar
    28    19    20   ar
    29    20    21   ar
    30    21    26    1
    31    26    27    1
    32    21    22   ar
    33    22    23   ar
    34    23    24   ar
    35    24    25   ar
    36    12    13   ar
    37    13    14   ar
    38    14    15   ar
    39    31    32   ar
    40    32    33   ar
    41    33    44    1
    42    44    45    1
    43    44    46    1
    44    44    47    1
    45    39    40    1
    46    40    41    1
    47    41    36    1
    48    33    28   ar
    49    15     1    1
    50    15     6   ar
    51    14     9   ar
    52    25    16   ar
    53    24    19   ar
@<TRIPOS>MOLECULE
*****
 47 53 0 0 0
SMALL
GASTEIGER

@<TRIPOS>ATOM
      1 N          63.9648   89.0994   13.3123 N.am    1  UNL1       -0.0905
      2 C          64.7935   89.6489   14.2656 C.2     1  UNL1        0.4229
      3 O          65.2413   88.9476   15.2155 O.2     1  UNL1       -0.2135
      4 C          65.1268   91.0002   14.2300 C.2     1  UNL1        0.1157
      5 C          64.5660   91.8203   13.2661 C.2     1  UNL1        0.0173
      6 C          63.7400   91.2746   12.2837 C.ar    1  UNL1        0.0828
      7 C          63.1193   92.1181   11.3581 C.ar    1  UNL1        0.1047
      8 N          62.3136   91.6059   10.4007 N.ar    1  UNL1       -0.2434
      9 C          62.1350   90.2711   10.2493 C.ar    1  UNL1        0.0870
     10 C          61.3285   89.8137    9.2026 C.ar    1  UNL1        0.0193
     11 C          61.2002   88.4491    8.9546 C.ar    1  UNL1        0.0016
     12 C          61.9329   87.5229    9.7086 C.ar    1  UNL1        0.0018
     13 C          62.7630   87.9887   10.7436 C.ar    1  UNL1        0.0075
     14 C          62.7941   89.3542   11.1104 C.ar    1  UNL1        0.0810
     15 C          63.5138   89.8717   12.2443 C.ar    1  UNL1        0.2297
     16 C          61.8094   86.0654    9.4441 C.ar    1  UNL1        0.0192
     17 C          60.7712   85.5731    8.6334 C.ar    1  UNL1        0.0988
     18 N          60.6058   84.2350    8.4604 N.ar    1  UNL1       -0.2438
     19 C          61.4296   83.3281    9.0478 C.ar    1  UNL1        0.0810
     20 C          61.1978   81.9586    8.8817 C.ar    1  UNL1        0.0148
     21 C          62.0292   81.0188    9.5127 C.ar    1  UNL1       -0.0207
     22 C          63.0947   81.4640   10.3122 C.ar    1  UNL1       -0.0042
     23 C          63.3357   82.8311   10.4740 C.ar    1  UNL1        0.0012
     24 C          62.4995   83.7693    9.8538 C.ar    1  UNL1        0.0177
     25 C          62.6859   85.1437   10.0428 C.ar    1  UNL1        0.0030
     26 C          61.7374   79.5474    9.3924 C.3     1  UNL1        0.0264
     27 C          62.4239   78.7699   10.5106 C.3     1  UNL1        0.0050
     28 C          62.4300   85.1743   13.8851 C.ar    1  UNL1        0.0522
     29 C          61.5607   86.2573   13.6943 C.ar    1  UNL1        0.0206
     30 C          62.0597   87.5512   13.5560 C.ar    1  UNL1        0.0703
     31 C          63.4413   87.7806   13.5868 C.ar    1  UNL1        0.2271
     32 C          64.3138   86.7085   13.8378 C.ar    1  UNL1        0.0742
     33 C          63.8230   85.3993   14.0032 C.ar    1  UNL1        0.0906
     34 C          60.3520   79.8738   13.7279 C.2     1  UNL1        0.2257
     35 O          61.2062   78.9484   13.7952 O.2     1  UNL1       -0.2749
     36 N          60.7794   81.2445   13.8606 N.am    1  UNL1       -0.2760
     37 C          60.0131   82.3407   13.2501 C.3     1  UNL1        0.1148
     38 C          60.9391   83.4839   12.8226 C.3     1  UNL1        0.1123
     39 N          61.8860   83.8469   13.8831 N.pl3   1  UNL1       -0.3041
     40 C          62.0187   83.0181   15.0824 C.3     1  UNL1        0.1123
     41 C          61.9443   81.5340   14.7109 C.3     1  UNL1        0.1148
     42 C          58.5418   79.1853   12.1615 C.3     1  UNL1        0.0101
     43 C          58.8973   79.5036   13.6094 C.3     1  UNL1        0.0853
     44 C          64.7982   84.2570   14.1923 C.3     1  UNL1        0.4199
     45 F          66.1046   84.7151   14.1970 F       1  UNL1       -0.1658
     46 F          64.5748   83.6128   15.3949 F       1  UNL1       -0.1658
     47 F          64.6508   83.3534   13.1582 F       1  UNL1       -0.1658
@<TRIPOS>BOND
     1    42    43    1
     2    43    34    1
     3    34    35    2
     4    34    36   am
     5    36    37    1
     6    37    38    1
     7    38    39    1
     8    39    28    1
     9    28    29   ar
    10    29    30   ar
    11    30    31   ar
    12    31     1    1
    13     1     2    1
    14     2     3    2
    15     2     4    1
    16     4     5    2
    17     5     6    1
    18     6     7   ar
    19     7     8   ar
    20     8     9   ar
    21     9    10   ar
    22    10    11   ar
    23    11    12   ar
    24    12    16    1
    25    16    17   ar
    26    17    18   ar
    27    18    19   ar
    28    19    20   ar
    29    20    21   ar
    30    21    26    1
    31    26    27    1
    32    21    22   ar
    33    22    23   ar
    34    23    24   ar
    35    24    25   ar
    36    12    13   ar
    37    13    14   ar
    38    14    15   ar
    39    31    32   ar
    40    32    33   ar
    41    33    44    1
    42    44    45    1
    43    44    46    1
    44    44    47    1
    45    39    40    1
    46    40    41    1
    47    41    36    1
    48    33    28   ar
    49    15     1    1
    50    15     6   ar
    51    14     9   ar
    52    25    16   ar
    53    24    19   ar
@<TRIPOS>MOLECULE
*****
 47 53 0 0 0
SMALL
GASTEIGER

@<TRIPOS>ATOM
      1 N          62.5637   85.3180   13.9715 N.am    1  UNL1       -0.0905
      2 C          62.4484   83.9553   13.8070 C.2     1  UNL1        0.4229
      3 O          62.2379   83.4568   12.6660 O.2     1  UNL1       -0.2135
      4 C          62.5210   83.0947   14.8990 C.2     1  UNL1        0.1157
      5 C          62.6417   83.6149   16.1761 C.2     1  UNL1        0.0173
      6 C          62.7778   84.9912   16.3563 C.ar    1  UNL1        0.0828
      7 C          62.8259   85.5157   17.6510 C.ar    1  UNL1        0.1047
      8 N          62.9552   86.8477   17.8437 N.ar    1  UNL1       -0.2434
      9 C          63.1184   87.7111   16.8120 C.ar    1  UNL1        0.0870
     10 C          63.2992   89.0692   17.0922 C.ar    1  UNL1        0.0193
     11 C          63.5680   89.9719   16.0662 C.ar    1  UNL1        0.0016
     12 C          63.7284   89.5177   14.7505 C.ar    1  UNL1        0.0018
     13 C          63.5714   88.1475   14.4770 C.ar    1  UNL1        0.0075
     14 C          63.1520   87.2363   15.4741 C.ar    1  UNL1        0.0810
     15 C          62.8409   85.8529   15.2275 C.ar    1  UNL1        0.2297
     16 C          64.0251   90.4732   13.6512 C.ar    1  UNL1        0.0192
     17 C          63.4570   90.2938   12.3774 C.ar    1  UNL1        0.0988
     18 N          63.7943   91.1162   11.3490 N.ar    1  UNL1       -0.2438
     19 C          64.6758   92.1381   11.5067 C.ar    1  UNL1        0.0810
     20 C          65.0313   92.9334   10.4121 C.ar    1  UNL1        0.0148
     21 C          65.9654   93.9709   10.5652 C.ar    1  UNL1       -0.0207
     22 C          66.5406   94.2037   11.8253 C.ar    1  UNL1       -0.0042
     23 C          66.1821   93.4176   12.9237 C.ar    1  UNL1        0.0012
     24 C          65.2586   92.3749   12.7690 C.ar    1  UNL1        0.0177
     25 C          64.9226   91.5386   13.8400 C.ar    1  UNL1        0.0030
     26 C          66.4014   94.7800    9.3737 C.3     1  UNL1        0.0264
     27 C          67.7960   94.3608    8.9202 C.3     1  UNL1        0.0050
     28 C          61.2753   87.5984   10.6203 C.ar    1  UNL1        0.0522
     29 C          62.2054   86.5619   10.4605 C.ar    1  UNL1        0.0206
     30 C          62.6662   85.8462   11.5639 C.ar    1  UNL1        0.0703
     31 C          62.1878   86.1437   12.8465 C.ar    1  UNL1        0.2271
     32 C          61.3019   87.2201   13.0205 C.ar    1  UNL1        0.0742
     33 C          60.8458   87.9676   11.9181 C.ar    1  UNL1        0.0906
     34 C          59.2445   90.0565    5.9010 C.2     1  UNL1        0.2257
     35 O          59.4008   89.4041    4.8330 O.2     1  UNL1       -0.2749
     36 N          59.6384   89.4666    7.1564 N.am    1  UNL1       -0.2760
     37 C          60.0220   90.3051    8.3015 C.3     1  UNL1        0.1148
     38 C          61.0826   89.6078    9.1594 C.3     1  UNL1        0.1123
     39 N          60.7237   88.2146    9.4482 N.pl3   1  UNL1       -0.3041
     40 C          59.5922   87.5786    8.7713 C.3     1  UNL1        0.1123
     41 C          59.5472   88.0055    7.3011 C.3     1  UNL1        0.1148
     42 C          59.0253   92.1754    4.6102 C.3     1  UNL1        0.0101
     43 C          58.5579   91.3947    5.8333 C.3     1  UNL1        0.0853
     44 C          59.8299   89.0690   12.1344 C.3     1  UNL1        0.4199
     45 F          60.3129   90.2855   11.6834 F       1  UNL1       -0.1658
     46 F          58.6599   88.8014   11.4484 F       1  UNL1       -0.1658
     47 F          59.5519   89.1768   13.4830 F       1  UNL1       -0.1658
@<TRIPOS>BOND
     1    42    43    1
     2    43    34    1
     3    34    35    2
     4    34    36   am
     5    36    37    1
     6    37    38    1
     7    38    39    1
     8    39    28    1
     9    28    29   ar
    10    29    30   ar
    11    30    31   ar
    12    31     1    1
    13     1     2    1
    14     2     3    2
    15     2     4    1
    16     4     5    2
    17     5     6    1
    18     6     7   ar
    19     7     8   ar
    20     8     9   ar
    21     9    10   ar
    22    10    11   ar
    23    11    12   ar
    24    12    16    1
    25    16    17   ar
    26    17    18   ar
    27    18    19   ar
    28    19    20   ar
    29    20    21   ar
    30    21    26    1
    31    26    27    1
    32    21    22   ar
    33    22    23   ar
    34    23    24   ar
    35    24    25   ar
    36    12    13   ar
    37    13    14   ar
    38    14    15   ar
    39    31    32   ar
    40    32    33   ar
    41    33    44    1
    42    44    45    1
    43    44    46    1
    44    44    47    1
    45    39    40    1
    46    40    41    1
    47    41    36    1
    48    33    28   ar
    49    15     1    1
    50    15     6   ar
    51    14     9   ar
    52    25    16   ar
    53    24    19   ar
@<TRIPOS>MOLECULE
*****
 47 53 0 0 0
SMALL
GASTEIGER

@<TRIPOS>ATOM
      1 N          62.7524   83.5014   12.3354 N.am    1  UNL1       -0.0905
      2 C          62.7436   82.2531   11.7529 C.2     1  UNL1        0.4229
      3 O          62.5452   82.1191   10.5131 O.2     1  UNL1       -0.2135
      4 C          62.9132   81.1045   12.5213 C.2     1  UNL1        0.1157
      5 C          63.0237   81.2091   13.8971 C.2     1  UNL1        0.0173
      6 C          63.0526   82.4670   14.4987 C.ar    1  UNL1        0.0828
      7 C          63.0909   82.5640   15.8926 C.ar    1  UNL1        0.1047
      8 N          63.1169   83.7755   16.4922 N.ar    1  UNL1       -0.2434
      9 C          63.1835   84.9281   15.7824 C.ar    1  UNL1        0.0870
     10 C          63.2609   86.1413   16.4734 C.ar    1  UNL1        0.0193
     11 C          63.4298   87.3383   15.7813 C.ar    1  UNL1        0.0016
     12 C          63.5930   87.3320   14.3898 C.ar    1  UNL1        0.0018
     13 C          63.5404   86.1071   13.7014 C.ar    1  UNL1        0.0075
     14 C          63.2216   84.8985   14.3632 C.ar    1  UNL1        0.0810
     15 C          63.0172   83.6397   13.6960 C.ar    1  UNL1        0.2297
     16 C          63.7835   88.6040   13.6447 C.ar    1  UNL1        0.0192
     17 C          63.1765   88.7938   12.3906 C.ar    1  UNL1        0.0988
     18 N          63.4188   89.9205   11.6698 N.ar    1  UNL1       -0.2438
     19 C          64.2394   90.9023   12.1268 C.ar    1  UNL1        0.0810
     20 C          64.4989   92.0255   11.3342 C.ar    1  UNL1        0.0148
     21 C          65.3709   93.0273   11.7910 C.ar    1  UNL1       -0.0207
     22 C          65.9810   92.8929   13.0489 C.ar    1  UNL1       -0.0042
     23 C          65.7182   91.7769   13.8479 C.ar    1  UNL1        0.0012
     24 C          64.8570   90.7715   13.3880 C.ar    1  UNL1        0.0177
     25 C          64.6186   89.6183   14.1447 C.ar    1  UNL1        0.0030
     26 C          65.7058   94.2000   10.9094 C.3     1  UNL1        0.0264
     27 C          66.8988   93.8774   10.0156 C.3     1  UNL1        0.0050
     28 C          61.2671   86.5793    9.8036 C.ar    1  UNL1        0.0522
     29 C          62.5328   86.0210    9.5775 C.ar    1  UNL1        0.0206
     30 C          63.0419   85.0475   10.4351 C.ar    1  UNL1        0.0703
     31 C          62.2826   84.6015   11.5245 C.ar    1  UNL1        0.2271
     32 C          61.0397   85.1998   11.7910 C.ar    1  UNL1        0.0742
     33 C          60.5226   86.2012   10.9472 C.ar    1  UNL1        0.0906
     34 C          59.2707   90.1900    5.8773 C.2     1  UNL1        0.2257
     35 O          59.6817   90.0010    4.7000 O.2     1  UNL1       -0.2749
     36 N          59.6458   89.2637    6.9167 N.am    1  UNL1       -0.2760
     37 C          59.7088   89.6866    8.3234 C.3     1  UNL1        0.1148
     38 C          60.7972   88.9164    9.0781 C.3     1  UNL1        0.1123
     39 N          60.7242   87.4734    8.8219 N.pl3   1  UNL1       -0.3041
     40 C          59.8407   86.9427    7.7823 C.3     1  UNL1        0.1123
     41 C          59.8630   87.8551    6.5524 C.3     1  UNL1        0.1148
     42 C          57.3428   91.4814    4.9718 C.3     1  UNL1        0.0101
     43 C          58.3181   91.3275    6.1334 C.3     1  UNL1        0.0853
     44 C          59.1450   86.7663   11.2199 C.3     1  UNL1        0.4199
     45 F          58.6085   86.2298   12.3779 F       1  UNL1       -0.1658
     46 F          59.1982   88.1386   11.3784 F       1  UNL1       -0.1658
     47 F          58.3084   86.4626   10.1637 F       1  UNL1       -0.1658
@<TRIPOS>BOND
     1    42    43    1
     2    43    34    1
     3    34    35    2
     4    34    36   am
     5    36    37    1
     6    37    38    1
     7    38    39    1
     8    39    28    1
     9    28    29   ar
    10    29    30   ar
    11    30    31   ar
    12    31     1    1
    13     1     2    1
    14     2     3    2
    15     2     4    1
    16     4     5    2
    17     5     6    1
    18     6     7   ar
    19     7     8   ar
    20     8     9   ar
    21     9    10   ar
    22    10    11   ar
    23    11    12   ar
    24    12    16    1
    25    16    17   ar
    26    17    18   ar
    27    18    19   ar
    28    19    20   ar
    29    20    21   ar
    30    21    26    1
    31    26    27    1
    32    21    22   ar
    33    22    23   ar
    34    23    24   ar
    35    24    25   ar
    36    12    13   ar
    37    13    14   ar
    38    14    15   ar
    39    31    32   ar
    40    32    33   ar
    41    33    44    1
    42    44    45    1
    43    44    46    1
    44    44    47    1
    45    39    40    1
    46    40    41    1
    47    41    36    1
    48    33    28   ar
    49    15     1    1
    50    15     6   ar
    51    14     9   ar
    52    25    16   ar
    53    24    19   ar
@<TRIPOS>MOLECULE
*****
 47 53 0 0 0
SMALL
GASTEIGER

@<TRIPOS>ATOM
      1 N          62.2933   82.6534   11.3637 N.am    1  UNL1       -0.0905
      2 C          62.2547   81.5540   10.5348 C.2     1  UNL1        0.4229
      3 O          62.0676   81.6861    9.2930 O.2     1  UNL1       -0.2135
      4 C          62.3807   80.2662   11.0490 C.2     1  UNL1        0.1157
      5 C          62.4774   80.0799   12.4172 C.2     1  UNL1        0.0173
      6 C          62.5362   81.1842   13.2670 C.ar    1  UNL1        0.0828
      7 C          62.5602   80.9890   14.6508 C.ar    1  UNL1        0.1047
      8 N          62.6148   82.0485   15.4890 N.ar    1  UNL1       -0.2434
      9 C          62.7242   83.3205   15.0342 C.ar    1  UNL1        0.0870
     10 C          62.8291   84.3611   15.9624 C.ar    1  UNL1        0.0193
     11 C          63.0418   85.6696   15.5348 C.ar    1  UNL1        0.0016
     12 C          63.2218   85.9467   14.1732 C.ar    1  UNL1        0.0018
     13 C          63.1414   84.8933   13.2453 C.ar    1  UNL1        0.0075
     14 C          62.7788   83.5845   13.6400 C.ar    1  UNL1        0.0810
     15 C          62.5454   82.4983   12.7249 C.ar    1  UNL1        0.2297
     16 C          63.4590   87.3388   13.7095 C.ar    1  UNL1        0.0192
     17 C          62.9367   87.7801   12.4807 C.ar    1  UNL1        0.0988
     18 N          63.2243   89.0244   12.0153 N.ar    1  UNL1       -0.2438
     19 C          64.0106   89.8870   12.7110 C.ar    1  UNL1        0.0810
     20 C          64.3201   91.1419   12.1759 C.ar    1  UNL1        0.0148
     21 C          65.1576   92.0235   12.8787 C.ar    1  UNL1       -0.0207
     22 C          65.6827   91.6358   14.1223 C.ar    1  UNL1       -0.0042
     23 C          65.3693   90.3866   14.6650 C.ar    1  UNL1        0.0012
     24 C          64.5428   89.5020   13.9590 C.ar    1  UNL1        0.0177
     25 C          64.2568   88.2245   14.4547 C.ar    1  UNL1        0.0030
     26 C          65.5482   93.3438   12.2713 C.3     1  UNL1        0.0264
     27 C          65.7668   93.2007   10.7686 C.3     1  UNL1        0.0050
     28 C          60.9612   86.2373    9.5005 C.ar    1  UNL1        0.0522
     29 C          62.2735   85.7824    9.3114 C.ar    1  UNL1        0.0206
     30 C          62.7269   84.6355    9.9604 C.ar    1  UNL1        0.0703
     31 C          61.8663   83.9120   10.7961 C.ar    1  UNL1        0.2271
     32 C          60.5694   84.3958   11.0368 C.ar    1  UNL1        0.0742
     33 C          60.1050   85.5661   10.4069 C.ar    1  UNL1        0.0906
     34 C          58.9432   90.5537    6.3806 C.2     1  UNL1        0.2257
     35 O          58.2218   91.3847    6.9969 O.2     1  UNL1       -0.2749
     36 N          59.5773   89.4852    7.1122 N.am    1  UNL1       -0.2760
     37 C          59.9253   88.2174    6.4541 C.3     1  UNL1        0.1148
     38 C          59.8240   87.0455    7.4358 C.3     1  UNL1        0.1123
     39 N          60.4937   87.3381    8.7083 N.pl3   1  UNL1       -0.3041
     40 C          60.9728   88.6886    9.0075 C.3     1  UNL1        0.1123
     41 C          59.9657   89.7297    8.5097 C.3     1  UNL1        0.1148
     42 C          58.9084   92.2156    4.5255 C.3     1  UNL1        0.0101
     43 C          59.1948   90.7690    4.9118 C.3     1  UNL1        0.0853
     44 C          58.6757   86.0133   10.6277 C.3     1  UNL1        0.4199
     45 F          57.9200   85.8456    9.4798 F       1  UNL1       -0.1658
     46 F          58.0793   85.2770   11.6343 F       1  UNL1       -0.1658
     47 F          58.6626   87.3504   10.9735 F       1  UNL1       -0.1658
@<TRIPOS>BOND
     1    42    43    1
     2    43    34    1
     3    34    35    2
     4    34    36   am
     5    36    37    1
     6    37    38    1
     7    38    39    1
     8    39    28    1
     9    28    29   ar
    10    29    30   ar
    11    30    31   ar
    12    31     1    1
    13     1     2    1
    14     2     3    2
    15     2     4    1
    16     4     5    2
    17     5     6    1
    18     6     7   ar
    19     7     8   ar
    20     8     9   ar
    21     9    10   ar
    22    10    11   ar
    23    11    12   ar
    24    12    16    1
    25    16    17   ar
    26    17    18   ar
    27    18    19   ar
    28    19    20   ar
    29    20    21   ar
    30    21    26    1
    31    26    27    1
    32    21    22   ar
    33    22    23   ar
    34    23    24   ar
    35    24    25   ar
    36    12    13   ar
    37    13    14   ar
    38    14    15   ar
    39    31    32   ar
    40    32    33   ar
    41    33    44    1
    42    44    45    1
    43    44    46    1
    44    44    47    1
    45    39    40    1
    46    40    41    1
    47    41    36    1
    48    33    28   ar
    49    15     1    1
    50    15     6   ar
    51    14     9   ar
    52    25    16   ar
    53    24    19   ar
@<TRIPOS>MOLECULE
*****
 47 53 0 0 0
SMALL
GASTEIGER

@<TRIPOS>ATOM
      1 N          62.1754   88.7182   11.7916 N.am    1  UNL1       -0.0905
      2 C          61.7685   89.8717   11.1580 C.2     1  UNL1        0.4229
      3 O          60.9409   89.8291   10.2052 O.2     1  UNL1       -0.2135
      4 C          62.2887   91.1101   11.5243 C.2     1  UNL1        0.1157
      5 C          63.2779   91.1807   12.4900 C.2     1  UNL1        0.0173
      6 C          63.6866   90.0235   13.1527 C.ar    1  UNL1        0.0828
      7 C          64.7358   90.0904   14.0737 C.ar    1  UNL1        0.1047
      8 N          65.1461   88.9778   14.7232 N.ar    1  UNL1       -0.2434
      9 C          64.5211   87.7849   14.5718 C.ar    1  UNL1        0.0870
     10 C          64.9693   86.6901   15.3174 C.ar    1  UNL1        0.0193
     11 C          64.2919   85.4743   15.2632 C.ar    1  UNL1        0.0016
     12 C          63.1138   85.3555   14.5142 C.ar    1  UNL1        0.0018
     13 C          62.6522   86.4665   13.7863 C.ar    1  UNL1        0.0075
     14 C          63.4018   87.6631   13.7064 C.ar    1  UNL1        0.0810
     15 C          63.0540   88.7821   12.8707 C.ar    1  UNL1        0.2297
     16 C          62.3794   84.0644   14.4588 C.ar    1  UNL1        0.0192
     17 C          62.9001   82.9200   15.0887 C.ar    1  UNL1        0.0988
     18 N          62.2739   81.7197   14.9668 N.ar    1  UNL1       -0.2438
     19 C          61.1294   81.5769   14.2486 C.ar    1  UNL1        0.0810
     20 C          60.5409   80.3154   14.1097 C.ar    1  UNL1        0.0148
     21 C          59.3749   80.1595   13.3424 C.ar    1  UNL1       -0.0207
     22 C          58.8044   81.2792   12.7150 C.ar    1  UNL1       -0.0042
     23 C          59.3837   82.5429   12.8581 C.ar    1  UNL1        0.0012
     24 C          60.5535   82.6972   13.6142 C.ar    1  UNL1        0.0177
     25 C          61.1840   83.9417   13.7293 C.ar    1  UNL1        0.0030
     26 C          58.7822   78.7921   13.1340 C.3     1  UNL1        0.0264
     27 C          58.4933   78.5508   11.6559 C.3     1  UNL1        0.0050
     28 C          60.9809   85.1633    9.7851 C.ar    1  UNL1        0.0522
     29 C          60.2322   85.6584   10.8617 C.ar    1  UNL1        0.0206
     30 C          60.6489   86.7951   11.5520 C.ar    1  UNL1        0.0703
     31 C          61.8143   87.4681   11.1629 C.ar    1  UNL1        0.2271
     32 C          62.6007   86.9427   10.1240 C.ar    1  UNL1        0.0742
     33 C          62.2051   85.7817    9.4327 C.ar    1  UNL1        0.0906
     34 C          58.9504   80.9015    6.5990 C.2     1  UNL1        0.2257
     35 O          59.7973   80.0439    6.2273 O.2     1  UNL1       -0.2749
     36 N          59.3569   81.9595    7.4903 N.am    1  UNL1       -0.2760
     37 C          58.6514   83.2493    7.5082 C.3     1  UNL1        0.1148
     38 C          59.6112   84.3932    7.8512 C.3     1  UNL1        0.1123
     39 N          60.4453   84.0770    9.0164 N.pl3   1  UNL1       -0.3041
     40 C          60.4600   82.7263    9.5806 C.3     1  UNL1        0.1123
     41 C          60.4292   81.6840    8.4588 C.3     1  UNL1        0.1148
     42 C          57.2608   79.2956    5.7211 C.3     1  UNL1        0.0101
     43 C          57.5166   80.7288    6.1732 C.3     1  UNL1        0.0853
     44 C          63.0357   85.2902    8.2666 C.3     1  UNL1        0.4199
     45 F          63.4822   83.9980    8.4848 F       1  UNL1       -0.1658
     46 F          62.2936   85.2867    7.1002 F       1  UNL1       -0.1658
     47 F          64.1319   86.1148    8.1056 F       1  UNL1       -0.1658
@<TRIPOS>BOND
     1    42    43    1
     2    43    34    1
     3    34    35    2
     4    34    36   am
     5    36    37    1
     6    37    38    1
     7    38    39    1
     8    39    28    1
     9    28    29   ar
    10    29    30   ar
    11    30    31   ar
    12    31     1    1
    13     1     2    1
    14     2     3    2
    15     2     4    1
    16     4     5    2
    17     5     6    1
    18     6     7   ar
    19     7     8   ar
    20     8     9   ar
    21     9    10   ar
    22    10    11   ar
    23    11    12   ar
    24    12    16    1
    25    16    17   ar
    26    17    18   ar
    27    18    19   ar
    28    19    20   ar
    29    20    21   ar
    30    21    26    1
    31    26    27    1
    32    21    22   ar
    33    22    23   ar
    34    23    24   ar
    35    24    25   ar
    36    12    13   ar
    37    13    14   ar
    38    14    15   ar
    39    31    32   ar
    40    32    33   ar
    41    33    44    1
    42    44    45    1
    43    44    46    1
    44    44    47    1
    45    39    40    1
    46    40    41    1
    47    41    36    1
    48    33    28   ar
    49    15     1    1
    50    15     6   ar
    51    14     9   ar
    52    25    16   ar
    53    24    19   ar
@<TRIPOS>MOLECULE
*****
 47 53 0 0 0
SMALL
GASTEIGER

@<TRIPOS>ATOM
      1 N          63.0979   89.9481   11.2873 N.am    1  UNL1       -0.0905
      2 C          63.1486   91.1729   10.6591 C.2     1  UNL1        0.4229
      3 O          62.6020   91.3462    9.5341 O.2     1  UNL1       -0.2135
      4 C          63.8375   92.2405   11.2286 C.2     1  UNL1        0.1157
      5 C          64.5391   92.0543   12.4071 C.2     1  UNL1        0.0173
      6 C          64.4818   90.8251   13.0637 C.ar    1  UNL1        0.0828
      7 C          65.2502   90.6210   14.2133 C.ar    1  UNL1        0.1047
      8 N          65.2083   89.4347   14.8608 N.ar    1  UNL1       -0.2434
      9 C          64.3778   88.4349   14.4772 C.ar    1  UNL1        0.0870
     10 C          64.3515   87.2555   15.2281 C.ar    1  UNL1        0.0193
     11 C          63.4418   86.2455   14.9243 C.ar    1  UNL1        0.0016
     12 C          62.4969   86.4294   13.9062 C.ar    1  UNL1        0.0018
     13 C          62.5100   87.6276   13.1704 C.ar    1  UNL1        0.0075
     14 C          63.5167   88.6026   13.3605 C.ar    1  UNL1        0.0810
     15 C          63.6655   89.7816   12.5485 C.ar    1  UNL1        0.2297
     16 C          61.5163   85.3604   13.5820 C.ar    1  UNL1        0.0192
     17 C          60.1483   85.5414   13.8528 C.ar    1  UNL1        0.0988
     18 N          59.2625   84.5333   13.6367 N.ar    1  UNL1       -0.2438
     19 C          59.6532   83.3268   13.1488 C.ar    1  UNL1        0.0810
     20 C          58.7174   82.3001   12.9839 C.ar    1  UNL1        0.0148
     21 C          59.1236   81.0424   12.5088 C.ar    1  UNL1       -0.0207
     22 C          60.4764   80.8227   12.2012 C.ar    1  UNL1       -0.0042
     23 C          61.4134   81.8479   12.3560 C.ar    1  UNL1        0.0012
     24 C          61.0106   83.0997   12.8407 C.ar    1  UNL1        0.0177
     25 C          61.9372   84.1266   13.0559 C.ar    1  UNL1        0.0030
     26 C          58.1307   79.9170   12.3992 C.3     1  UNL1        0.0264
     27 C          58.6866   78.7920   11.5321 C.3     1  UNL1        0.0050
     28 C          61.5526   86.6069    9.1569 C.ar    1  UNL1        0.0522
     29 C          62.6888   86.4709    9.9666 C.ar    1  UNL1        0.0206
     30 C          63.2258   87.5749   10.6261 C.ar    1  UNL1        0.0703
     31 C          62.6217   88.8326   10.5016 C.ar    1  UNL1        0.2271
     32 C          61.5194   88.9873    9.6444 C.ar    1  UNL1        0.0742
     33 C          60.9801   87.8858    8.9529 C.ar    1  UNL1        0.0906
     34 C          59.0175   81.9966    6.9761 C.2     1  UNL1        0.2257
     35 O          58.5751   82.1189    5.8013 O.2     1  UNL1       -0.2749
     36 N          59.7611   83.0798    7.5702 N.am    1  UNL1       -0.2760
     37 C          59.8038   83.2604    9.0287 C.3     1  UNL1        0.1148
     38 C          59.9143   84.7443    9.3932 C.3     1  UNL1        0.1123
     39 N          60.9520   85.4245    8.6099 N.pl3   1  UNL1       -0.3041
     40 C          61.5957   84.7531    7.4795 C.3     1  UNL1        0.1123
     41 C          60.5648   83.9413    6.6895 C.3     1  UNL1        0.1148
     42 C          57.8228   80.8112    8.8123 C.3     1  UNL1        0.0101
     43 C          58.8352   80.6783    7.6803 C.3     1  UNL1        0.0853
     44 C          59.7433   88.0748    8.1007 C.3     1  UNL1        0.4199
     45 F          59.8877   87.4545    6.8715 F       1  UNL1       -0.1658
     46 F          58.6323   87.5306    8.7177 F       1  UNL1       -0.1658
     47 F          59.5327   89.4239    7.8925 F       1  UNL1       -0.1658
@<TRIPOS>BOND
     1    42    43    1
     2    43    34    1
     3    34    35    2
     4    34    36   am
     5    36    37    1
     6    37    38    1
     7    38    39    1
     8    39    28    1
     9    28    29   ar
    10    29    30   ar
    11    30    31   ar
    12    31     1    1
    13     1     2    1
    14     2     3    2
    15     2     4    1
    16     4     5    2
    17     5     6    1
    18     6     7   ar
    19     7     8   ar
    20     8     9   ar
    21     9    10   ar
    22    10    11   ar
    23    11    12   ar
    24    12    16    1
    25    16    17   ar
    26    17    18   ar
    27    18    19   ar
    28    19    20   ar
    29    20    21   ar
    30    21    26    1
    31    26    27    1
    32    21    22   ar
    33    22    23   ar
    34    23    24   ar
    35    24    25   ar
    36    12    13   ar
    37    13    14   ar
    38    14    15   ar
    39    31    32   ar
    40    32    33   ar
    41    33    44    1
    42    44    45    1
    43    44    46    1
    44    44    47    1
    45    39    40    1
    46    40    41    1
    47    41    36    1
    48    33    28   ar
    49    15     1    1
    50    15     6   ar
    51    14     9   ar
    52    25    16   ar
    53    24    19   ar
