@<TRIPOS>MOLECULE
*****
 52 57 0 0 0
SMALL
GASTEIGER

@<TRIPOS>ATOM
      1 N          -8.2257  -11.4385   32.0391 N.am    1  UNL1       -0.2945
      2 C          -8.9420  -11.5962   30.8011 C.2     1  UNL1        0.2483
      3 O          -9.9852  -10.9186   30.5913 O.2     1  UNL1       -0.2701
      4 H          -7.3936  -12.0413   32.2188 H       1  UNL1        0.1501
      5 C          -8.4373  -12.4834   29.7276 C.ar    1  UNL1        0.0808
      6 C          -9.3245  -13.3840   29.1146 C.ar    1  UNL1        0.0080
      7 C          -8.8877  -14.2338   28.0965 C.ar    1  UNL1        0.0148
      8 C          -7.5504  -14.2053   27.6707 C.ar    1  UNL1        0.0502
      9 C          -6.6629  -13.3020   28.2771 C.ar    1  UNL1        0.0443
     10 C          -7.0943  -12.4557   29.3042 C.ar    1  UNL1        0.1457
     11 F          -6.1815  -11.6594   29.9147 F       1  UNL1       -0.2040
     12 N          -7.0857  -15.1023   26.6407 N.pl3   1  UNL1       -0.3040
     13 C          -5.7745  -15.7504   26.7606 C.3     1  UNL1        0.1123
     14 C          -5.0880  -15.7863   25.3968 C.3     1  UNL1        0.1136
     15 N          -6.0049  -16.3214   24.3814 N.pl3   1  UNL1       -0.2897
     16 C          -7.3405  -15.7171   24.2723 C.3     1  UNL1        0.1136
     17 C          -8.0139  -15.6510   25.6456 C.3     1  UNL1        0.1123
     18 C          -5.4948  -17.1924   23.3514 C.ar    1  UNL1        0.1318
     19 C          -6.3321  -17.7028   22.3459 C.ar    1  UNL1        0.0343
     20 C          -5.7999  -18.5409   21.3650 C.ar    1  UNL1        0.0083
     21 C          -4.4401  -18.8850   21.3907 C.ar    1  UNL1        0.0906
     22 C          -3.6306  -18.3267   22.3918 C.ar    1  UNL1        0.1041
     23 N          -4.1709  -17.5117   23.3358 N.ar    1  UNL1       -0.2292
     24 C          -3.8430  -19.7475   20.3083 C.3     1  UNL1        0.4200
     25 F          -4.8131  -20.5501   19.7332 F       1  UNL1       -0.1658
     26 F          -2.8547  -20.5666   20.8265 F       1  UNL1       -0.1658
     27 F          -3.2917  -18.9378   19.3330 F       1  UNL1       -0.1658
     28 C          -8.3758  -10.2414   32.8755 C.3     1  UNL1        0.1535
     29 C          -8.2590   -9.0045   32.0233 C.2     1  UNL1        0.2443
     30 O          -7.1122   -8.5869   31.7060 O.2     1  UNL1       -0.2730
     31 N          -9.4347   -8.3418   31.5255 N.am    1  UNL1       -0.2825
     32 H         -10.3392   -8.8644   31.5389 H       1  UNL1        0.1549
     33 C          -9.4256   -7.0404   30.9146 C.ar    1  UNL1        0.0535
     34 C          -8.2249   -6.3581   30.6541 C.ar    1  UNL1        0.0353
     35 C          -8.2669   -5.0836   30.0830 C.ar    1  UNL1        0.1002
     36 N          -9.4619   -4.5033   29.7954 N.ar    1  UNL1       -0.2422
     37 C         -10.6389   -5.1320   30.0537 C.ar    1  UNL1        0.1002
     38 C         -10.6419   -6.4066   30.6254 C.ar    1  UNL1        0.0353
     39 C          -9.7219  -10.2671   33.6263 C.3     1  UNL1        0.0569
     40 C         -12.6034  -14.7354   33.3262 C.ar    1  UNL1        0.0361
     41 C         -12.8440  -13.5016   32.6602 C.ar    1  UNL1        0.0029
     42 C         -12.0319  -12.3812   32.9000 C.ar    1  UNL1        0.0013
     43 C         -10.9877  -12.5130   33.8120 C.ar    1  UNL1        0.0131
     44 C          -9.9997  -11.6277   34.2006 C.ar    1  UNL1       -0.0017
     45 C          -9.1842  -12.3380   35.0760 C.ar    1  UNL1        0.0681
     46 N          -9.6506  -13.5974   35.2378 N.ar    1  UNL1       -0.3523
     47 C         -10.7429  -13.6934   34.4597 C.ar    1  UNL1        0.0564
     48 C         -11.5264  -14.8252   34.2423 C.ar    1  UNL1        0.0198
     49 H          -9.2213  -14.3524   35.8176 H       1  UNL1        0.1660
     50 C         -13.0386  -17.0079   32.1200 C.3     1  UNL1        0.0773
     51 C         -13.4566  -15.9250   33.0691 C.2     1  UNL1        0.1735
     52 O         -14.5671  -16.0374   33.6562 O.2     1  UNL1       -0.2913
@<TRIPOS>BOND
     1    50    51    1
     2    51    52    2
     3    51    40    1
     4    40    41   ar
     5    41    42   ar
     6    42    43   ar
     7    43    44   ar
     8    44    39    1
     9    39    28    1
    10    28     1    1
    11     1     2   am
    12     2     3    2
    13     2     5    1
    14     5     6   ar
    15     6     7   ar
    16     7     8   ar
    17     8    12    1
    18    12    13    1
    19    13    14    1
    20    14    15    1
    21    15    18    1
    22    18    19   ar
    23    19    20   ar
    24    20    21   ar
    25    21    24    1
    26    24    25    1
    27    24    26    1
    28    24    27    1
    29    21    22   ar
    30    22    23   ar
    31    15    16    1
    32    16    17    1
    33     8     9   ar
    34     9    10   ar
    35    10    11    1
    36    28    29    1
    37    29    30    2
    38    29    31   am
    39    31    33    1
    40    33    34   ar
    41    34    35   ar
    42    35    36   ar
    43    36    37   ar
    44    37    38   ar
    45    44    45   ar
    46    45    46   ar
    47    46    47   ar
    48    47    48   ar
    49    48    40   ar
    50    47    43   ar
    51    10     5   ar
    52    38    33   ar
    53    17    12    1
    54    23    18   ar
    55     1     4    1
    56    31    32    1
    57    46    49    1
@<TRIPOS>MOLECULE
*****
 52 57 0 0 0
SMALL
GASTEIGER

@<TRIPOS>ATOM
      1 N          -7.9215  -11.3911   32.0536 N.am    1  UNL1       -0.2945
      2 C          -8.6645  -11.3823   30.8214 C.2     1  UNL1        0.2483
      3 O          -9.4936  -10.4584   30.5974 O.2     1  UNL1       -0.2701
      4 H          -7.2764  -12.1879   32.2461 H       1  UNL1        0.1501
      5 C          -8.4207  -12.3955   29.7686 C.ar    1  UNL1        0.0808
      6 C          -7.1237  -12.5380   29.2474 C.ar    1  UNL1        0.0080
      7 C          -6.8532  -13.4843   28.2570 C.ar    1  UNL1        0.0148
      8 C          -7.8762  -14.3079   27.7613 C.ar    1  UNL1        0.0502
      9 C          -9.1719  -14.1721   28.2848 C.ar    1  UNL1        0.0443
     10 C          -9.4491  -13.2185   29.2701 C.ar    1  UNL1        0.1457
     11 F         -10.7319  -13.0689   29.6851 F       1  UNL1       -0.2040
     12 N          -7.6096  -15.2662   26.7163 N.pl3   1  UNL1       -0.3040
     13 C          -6.2287  -15.5548   26.3121 C.3     1  UNL1        0.1123
     14 C          -6.1554  -15.7121   24.7948 C.3     1  UNL1        0.1136
     15 N          -7.1933  -16.6423   24.3307 N.pl3   1  UNL1       -0.2897
     16 C          -8.5783  -16.3987   24.7590 C.3     1  UNL1        0.1136
     17 C          -8.6453  -16.2077   26.2765 C.3     1  UNL1        0.1123
     18 C          -6.8949  -17.5654   23.2636 C.ar    1  UNL1        0.1318
     19 C          -5.7347  -17.4296   22.4837 C.ar    1  UNL1        0.0343
     20 C          -5.4799  -18.3449   21.4614 C.ar    1  UNL1        0.0083
     21 C          -6.3840  -19.3859   21.2030 C.ar    1  UNL1        0.0906
     22 C          -7.5136  -19.5070   22.0268 C.ar    1  UNL1        0.1041
     23 N          -7.7402  -18.6044   23.0173 N.ar    1  UNL1       -0.2292
     24 C          -6.0949  -20.4105   20.1358 C.3     1  UNL1        0.4200
     25 F          -5.0479  -19.9949   19.3314 F       1  UNL1       -0.1658
     26 F          -7.2059  -20.6066   19.3337 F       1  UNL1       -0.1658
     27 F          -5.7545  -21.6087   20.7352 F       1  UNL1       -0.1658
     28 C          -7.7434  -10.1780   32.8611 C.3     1  UNL1        0.1535
     29 C          -7.6468   -8.9741   31.9605 C.2     1  UNL1        0.2443
     30 O          -6.6296   -8.8392   31.2276 O.2     1  UNL1       -0.2730
     31 N          -8.7231   -8.0226   31.8884 N.am    1  UNL1       -0.2825
     32 H          -9.6588   -8.3064   32.2562 H       1  UNL1        0.1549
     33 C          -8.6197   -6.7395   31.2479 C.ar    1  UNL1        0.0535
     34 C          -9.6596   -6.2280   30.4528 C.ar    1  UNL1        0.0353
     35 C          -9.5030   -4.9877   29.8288 C.ar    1  UNL1        0.1002
     36 N          -8.3470   -4.2888   29.9790 N.ar    1  UNL1       -0.2422
     37 C          -7.3179   -4.7676   30.7266 C.ar    1  UNL1        0.1002
     38 C          -7.4325   -6.0041   31.3665 C.ar    1  UNL1        0.0353
     39 C          -8.8994  -10.0201   33.8686 C.3     1  UNL1        0.0569
     40 C         -12.3828  -13.9923   33.2002 C.ar    1  UNL1        0.0361
     41 C         -12.4173  -12.6994   32.6079 C.ar    1  UNL1        0.0029
     42 C         -11.4614  -11.7262   32.9422 C.ar    1  UNL1        0.0013
     43 C         -10.4825  -12.0633   33.8736 C.ar    1  UNL1        0.0131
     44 C          -9.3924  -11.3568   34.3463 C.ar    1  UNL1       -0.0017
     45 C          -8.7218  -12.2294   35.1976 C.ar    1  UNL1        0.0681
     46 N          -9.3711  -13.4142   35.2651 N.ar    1  UNL1       -0.3523
     47 C         -10.4355  -13.3030   34.4512 C.ar    1  UNL1        0.0564
     48 C         -11.3655  -14.2929   34.1394 C.ar    1  UNL1        0.0198
     49 H          -9.0776  -14.2569   35.8075 H       1  UNL1        0.1660
     50 C         -13.0018  -16.4544   32.5972 C.3     1  UNL1        0.0773
     51 C         -13.3886  -15.0267   32.8430 C.2     1  UNL1        0.1735
     52 O         -14.6040  -14.7076   32.7370 O.2     1  UNL1       -0.2913
@<TRIPOS>BOND
     1    50    51    1
     2    51    52    2
     3    51    40    1
     4    40    41   ar
     5    41    42   ar
     6    42    43   ar
     7    43    44   ar
     8    44    39    1
     9    39    28    1
    10    28     1    1
    11     1     2   am
    12     2     3    2
    13     2     5    1
    14     5     6   ar
    15     6     7   ar
    16     7     8   ar
    17     8    12    1
    18    12    13    1
    19    13    14    1
    20    14    15    1
    21    15    18    1
    22    18    19   ar
    23    19    20   ar
    24    20    21   ar
    25    21    24    1
    26    24    25    1
    27    24    26    1
    28    24    27    1
    29    21    22   ar
    30    22    23   ar
    31    15    16    1
    32    16    17    1
    33     8     9   ar
    34     9    10   ar
    35    10    11    1
    36    28    29    1
    37    29    30    2
    38    29    31   am
    39    31    33    1
    40    33    34   ar
    41    34    35   ar
    42    35    36   ar
    43    36    37   ar
    44    37    38   ar
    45    44    45   ar
    46    45    46   ar
    47    46    47   ar
    48    47    48   ar
    49    48    40   ar
    50    47    43   ar
    51    10     5   ar
    52    38    33   ar
    53    17    12    1
    54    23    18   ar
    55     1     4    1
    56    31    32    1
    57    46    49    1
@<TRIPOS>MOLECULE
*****
 52 57 0 0 0
SMALL
GASTEIGER

@<TRIPOS>ATOM
      1 N          -8.6597  -11.7542   32.3385 N.am    1  UNL1       -0.2945
      2 C          -8.6488  -11.3239   30.9655 C.2     1  UNL1        0.2483
      3 O          -8.9130  -10.1229   30.6842 O.2     1  UNL1       -0.2701
      4 H          -8.4882  -12.7608   32.5514 H       1  UNL1        0.1501
      5 C          -8.2557  -12.2445   29.8737 C.ar    1  UNL1        0.0808
      6 C          -9.2286  -13.0865   29.3090 C.ar    1  UNL1        0.0080
      7 C          -8.8980  -13.9653   28.2755 C.ar    1  UNL1        0.0148
      8 C          -7.5839  -14.0253   27.7856 C.ar    1  UNL1        0.0502
      9 C          -6.6110  -13.1807   28.3437 C.ar    1  UNL1        0.0443
     10 C          -6.9360  -12.3058   29.3858 C.ar    1  UNL1        0.1457
     11 F          -5.9446  -11.5696   29.9473 F       1  UNL1       -0.2040
     12 N          -7.2292  -14.9531   26.7392 N.pl3   1  UNL1       -0.3040
     13 C          -5.8353  -15.3796   26.5700 C.3     1  UNL1        0.1123
     14 C          -5.4970  -15.4660   25.0832 C.3     1  UNL1        0.1136
     15 N          -6.5221  -16.2437   24.3743 N.pl3   1  UNL1       -0.2897
     16 C          -7.9292  -15.8626   24.5632 C.3     1  UNL1        0.1136
     17 C          -8.2579  -15.7435   26.0537 C.3     1  UNL1        0.1123
     18 C          -6.1285  -17.1391   23.3145 C.ar    1  UNL1        0.1318
     19 C          -7.0819  -17.8500   22.5673 C.ar    1  UNL1        0.0343
     20 C          -6.6611  -18.7052   21.5479 C.ar    1  UNL1        0.0083
     21 C          -5.2936  -18.8669   21.2800 C.ar    1  UNL1        0.0906
     22 C          -4.3750  -18.1128   22.0262 C.ar    1  UNL1        0.1041
     23 N          -4.8084  -17.2850   23.0132 N.ar    1  UNL1       -0.2292
     24 C          -4.8289  -19.7479   20.1486 C.3     1  UNL1        0.4200
     25 F          -3.9426  -19.0667   19.3322 F       1  UNL1       -0.1658
     26 F          -5.9022  -20.1571   19.3762 F       1  UNL1       -0.1658
     27 F          -4.1973  -20.8620   20.6689 F       1  UNL1       -0.1658
     28 C          -8.5267  -10.8048   33.4505 C.3     1  UNL1        0.1535
     29 C          -7.7837   -9.5781   32.9890 C.2     1  UNL1        0.2443
     30 O          -8.3968   -8.4777   32.9315 O.2     1  UNL1       -0.2730
     31 N          -6.3811   -9.6431   32.6767 N.am    1  UNL1       -0.2825
     32 H          -5.8367  -10.4667   33.0183 H       1  UNL1        0.1549
     33 C          -5.6567   -8.5949   32.0107 C.ar    1  UNL1        0.0535
     34 C          -5.0388   -7.5565   32.7285 C.ar    1  UNL1        0.0353
     35 C          -4.3682   -6.5450   32.0362 C.ar    1  UNL1        0.1002
     36 N          -4.3270   -6.5588   30.6777 N.ar    1  UNL1       -0.2422
     37 C          -4.9315   -7.5400   29.9573 C.ar    1  UNL1        0.1002
     38 C          -5.6138   -8.5696   30.6100 C.ar    1  UNL1        0.0353
     39 C          -9.9114  -10.4296   34.0145 C.3     1  UNL1        0.0569
     40 C         -12.9704  -14.6872   33.0795 C.ar    1  UNL1        0.0361
     41 C         -11.7943  -14.6224   33.8772 C.ar    1  UNL1        0.0029
     42 C         -11.0479  -13.4361   33.9681 C.ar    1  UNL1        0.0013
     43 C         -11.4910  -12.3276   33.2509 C.ar    1  UNL1        0.0131
     44 C         -11.0161  -11.0308   33.1921 C.ar    1  UNL1       -0.0017
     45 C         -11.9094  -10.3419   32.3777 C.ar    1  UNL1        0.0681
     46 N         -12.8825  -11.1720   31.9375 N.ar    1  UNL1       -0.3523
     47 C         -12.6208  -12.3741   32.4802 C.ar    1  UNL1        0.0564
     48 C         -13.3867  -13.5332   32.3708 C.ar    1  UNL1        0.0198
     49 H         -13.6949  -10.9166   31.3332 H       1  UNL1        0.1660
     50 C         -13.2740  -17.1352   32.2288 C.3     1  UNL1        0.0773
     51 C         -13.7664  -15.9390   32.9871 C.2     1  UNL1        0.1735
     52 O         -14.8904  -16.0093   33.5545 O.2     1  UNL1       -0.2913
@<TRIPOS>BOND
     1    50    51    1
     2    51    52    2
     3    51    40    1
     4    40    41   ar
     5    41    42   ar
     6    42    43   ar
     7    43    44   ar
     8    44    39    1
     9    39    28    1
    10    28     1    1
    11     1     2   am
    12     2     3    2
    13     2     5    1
    14     5     6   ar
    15     6     7   ar
    16     7     8   ar
    17     8    12    1
    18    12    13    1
    19    13    14    1
    20    14    15    1
    21    15    18    1
    22    18    19   ar
    23    19    20   ar
    24    20    21   ar
    25    21    24    1
    26    24    25    1
    27    24    26    1
    28    24    27    1
    29    21    22   ar
    30    22    23   ar
    31    15    16    1
    32    16    17    1
    33     8     9   ar
    34     9    10   ar
    35    10    11    1
    36    28    29    1
    37    29    30    2
    38    29    31   am
    39    31    33    1
    40    33    34   ar
    41    34    35   ar
    42    35    36   ar
    43    36    37   ar
    44    37    38   ar
    45    44    45   ar
    46    45    46   ar
    47    46    47   ar
    48    47    48   ar
    49    48    40   ar
    50    47    43   ar
    51    10     5   ar
    52    38    33   ar
    53    17    12    1
    54    23    18   ar
    55     1     4    1
    56    31    32    1
    57    46    49    1
@<TRIPOS>MOLECULE
*****
 52 57 0 0 0
SMALL
GASTEIGER

@<TRIPOS>ATOM
      1 N         -10.4994  -11.0564   30.0624 N.am    1  UNL1       -0.2945
      2 C          -9.4118  -11.9315   30.4114 C.2     1  UNL1        0.2483
      3 O          -9.0595  -12.0414   31.6177 O.2     1  UNL1       -0.2701
      4 H         -10.7466  -10.9382   29.0560 H       1  UNL1        0.1501
      5 C          -8.7426  -12.7718   29.3914 C.ar    1  UNL1        0.0808
      6 C          -9.4969  -13.7352   28.7007 C.ar    1  UNL1        0.0080
      7 C          -8.9030  -14.5438   27.7295 C.ar    1  UNL1        0.0148
      8 C          -7.5383  -14.4100   27.4296 C.ar    1  UNL1        0.0502
      9 C          -6.7834  -13.4438   28.1137 C.ar    1  UNL1        0.0443
     10 C          -7.3724  -12.6384   29.0943 C.ar    1  UNL1        0.1457
     11 F          -6.5844  -11.7769   29.7851 F       1  UNL1       -0.2040
     12 N          -6.9121  -15.2633   26.4492 N.pl3   1  UNL1       -0.3040
     13 C          -5.6422  -15.9325   26.7543 C.3     1  UNL1        0.1123
     14 C          -4.7378  -15.9129   25.5238 C.3     1  UNL1        0.1136
     15 N          -5.4747  -16.3884   24.3452 N.pl3   1  UNL1       -0.2897
     16 C          -6.7707  -15.7631   24.0446 C.3     1  UNL1        0.1136
     17 C          -7.6636  -15.7532   25.2881 C.3     1  UNL1        0.1123
     18 C          -4.8036  -17.2163   23.3737 C.ar    1  UNL1        0.1318
     19 C          -3.4169  -17.1255   23.1702 C.ar    1  UNL1        0.0343
     20 C          -2.8039  -17.9459   22.2221 C.ar    1  UNL1        0.0083
     21 C          -3.5690  -18.8455   21.4650 C.ar    1  UNL1        0.0906
     22 C          -4.9459  -18.9299   21.7227 C.ar    1  UNL1        0.1041
     23 N          -5.5207  -18.1218   22.6520 N.ar    1  UNL1       -0.2292
     24 C          -2.9118  -19.7726   20.4746 C.3     1  UNL1        0.4200
     25 F          -3.7636  -20.8107   20.1387 F       1  UNL1       -0.1658
     26 F          -1.7558  -20.3162   21.0078 F       1  UNL1       -0.1658
     27 F          -2.5914  -19.0647   19.3314 F       1  UNL1       -0.1658
     28 C         -11.4975  -10.6270   31.0498 C.3     1  UNL1        0.1535
     29 C         -12.2382  -11.8260   31.5823 C.2     1  UNL1        0.2443
     30 O         -13.4890  -11.8871   31.4341 O.2     1  UNL1       -0.2730
     31 N         -11.5273  -12.9154   32.1962 N.am    1  UNL1       -0.2825
     32 H         -10.4976  -12.9865   32.0350 H       1  UNL1        0.1549
     33 C         -12.1610  -13.9733   32.9354 C.ar    1  UNL1        0.0535
     34 C         -12.8178  -15.0331   32.2868 C.ar    1  UNL1        0.0353
     35 C         -13.4422  -16.0249   33.0476 C.ar    1  UNL1        0.1002
     36 N         -13.4260  -15.9560   34.4049 N.ar    1  UNL1       -0.2422
     37 C         -12.8147  -14.9330   35.0583 C.ar    1  UNL1        0.1002
     38 C         -12.1796  -13.9200   34.3359 C.ar    1  UNL1        0.0353
     39 C         -10.8279   -9.8410   32.1943 C.3     1  UNL1        0.0569
     40 C          -6.1179   -7.3634   32.0023 C.ar    1  UNL1        0.0361
     41 C          -6.5118   -8.4113   32.8802 C.ar    1  UNL1        0.0029
     42 C          -7.8225   -8.9154   32.8604 C.ar    1  UNL1        0.0013
     43 C          -8.7253   -8.3561   31.9596 C.ar    1  UNL1        0.0131
     44 C         -10.0376   -8.6769   31.6666 C.ar    1  UNL1       -0.0017
     45 C         -10.4045   -7.8337   30.6224 C.ar    1  UNL1        0.0681
     46 N          -9.3777   -7.0170   30.2929 N.ar    1  UNL1       -0.3523
     47 C          -8.3612   -7.3487   31.1081 C.ar    1  UNL1        0.0564
     48 C          -7.0686   -6.8279   31.0986 C.ar    1  UNL1        0.0198
     49 H          -9.3673   -6.3040   29.5302 H       1  UNL1        0.1660
     50 C          -3.8904   -6.8446   33.2582 C.3     1  UNL1        0.0773
     51 C          -4.7296   -6.8327   32.0157 C.2     1  UNL1        0.1735
     52 O          -4.2327   -6.3530   30.9606 O.2     1  UNL1       -0.2913
@<TRIPOS>BOND
     1    50    51    1
     2    51    52    2
     3    51    40    1
     4    40    41   ar
     5    41    42   ar
     6    42    43   ar
     7    43    44   ar
     8    44    39    1
     9    39    28    1
    10    28     1    1
    11     1     2   am
    12     2     3    2
    13     2     5    1
    14     5     6   ar
    15     6     7   ar
    16     7     8   ar
    17     8    12    1
    18    12    13    1
    19    13    14    1
    20    14    15    1
    21    15    18    1
    22    18    19   ar
    23    19    20   ar
    24    20    21   ar
    25    21    24    1
    26    24    25    1
    27    24    26    1
    28    24    27    1
    29    21    22   ar
    30    22    23   ar
    31    15    16    1
    32    16    17    1
    33     8     9   ar
    34     9    10   ar
    35    10    11    1
    36    28    29    1
    37    29    30    2
    38    29    31   am
    39    31    33    1
    40    33    34   ar
    41    34    35   ar
    42    35    36   ar
    43    36    37   ar
    44    37    38   ar
    45    44    45   ar
    46    45    46   ar
    47    46    47   ar
    48    47    48   ar
    49    48    40   ar
    50    47    43   ar
    51    10     5   ar
    52    38    33   ar
    53    17    12    1
    54    23    18   ar
    55     1     4    1
    56    31    32    1
    57    46    49    1
@<TRIPOS>MOLECULE
*****
 52 57 0 0 0
SMALL
GASTEIGER

@<TRIPOS>ATOM
      1 N          -8.6549  -11.1365   31.5802 N.am    1  UNL1       -0.2945
      2 C          -7.6955  -11.0651   30.5102 C.2     1  UNL1        0.2483
      3 O          -6.8894  -10.0962   30.4564 O.2     1  UNL1       -0.2701
      4 H          -9.3471  -11.9169   31.5836 H       1  UNL1        0.1501
      5 C          -7.5787  -12.1493   29.5077 C.ar    1  UNL1        0.0808
      6 C          -6.3502  -12.3433   28.8539 C.ar    1  UNL1        0.0080
      7 C          -6.1994  -13.3571   27.9057 C.ar    1  UNL1        0.0148
      8 C          -7.2767  -14.1983   27.5859 C.ar    1  UNL1        0.0502
      9 C          -8.5037  -14.0108   28.2421 C.ar    1  UNL1        0.0443
     10 C          -8.6617  -12.9901   29.1857 C.ar    1  UNL1        0.1457
     11 F          -9.8881  -12.7963   29.7321 F       1  UNL1       -0.2040
     12 N          -7.1361  -15.2275   26.5847 N.pl3   1  UNL1       -0.3040
     13 C          -5.8065  -15.5971   26.0856 C.3     1  UNL1        0.1123
     14 C          -5.8696  -15.8477   24.5804 C.3     1  UNL1        0.1136
     15 N          -6.9769  -16.7598   24.2642 N.pl3   1  UNL1       -0.2897
     16 C          -8.3101  -16.4335   24.7905 C.3     1  UNL1        0.1136
     17 C          -8.2395  -16.1496   26.2932 C.3     1  UNL1        0.1123
     18 C          -6.8051  -17.7566   23.2362 C.ar    1  UNL1        0.1318
     19 C          -7.8930  -18.2173   22.4766 C.ar    1  UNL1        0.0343
     20 C          -7.6855  -19.1812   21.4889 C.ar    1  UNL1        0.0083
     21 C          -6.4012  -19.6993   21.2653 C.ar    1  UNL1        0.0906
     22 C          -5.3357  -19.1880   22.0219 C.ar    1  UNL1        0.1041
     23 N          -5.5617  -18.2483   22.9775 N.ar    1  UNL1       -0.2292
     24 C          -6.1555  -20.7027   20.1676 C.3     1  UNL1        0.4200
     25 F          -5.9471  -21.9644   20.6975 F       1  UNL1       -0.1658
     26 F          -5.0384  -20.3536   19.4284 F       1  UNL1       -0.1658
     27 F          -7.2554  -20.7412   19.3313 F       1  UNL1       -0.1658
     28 C          -8.4708  -10.4021   32.8380 C.3     1  UNL1        0.1535
     29 C          -8.1236   -8.9657   32.5449 C.2     1  UNL1        0.2443
     30 O          -7.5867   -8.2699   33.4493 O.2     1  UNL1       -0.2730
     31 N          -8.3423   -8.4093   31.2366 N.am    1  UNL1       -0.2825
     32 H          -8.4929   -9.0670   30.4391 H       1  UNL1        0.1549
     33 C          -8.2652   -7.0052   30.9374 C.ar    1  UNL1        0.0535
     34 C          -9.3998   -6.2718   30.5501 C.ar    1  UNL1        0.0353
     35 C          -9.2710   -4.9148   30.2435 C.ar    1  UNL1        0.1002
     36 N          -8.0538   -4.3131   30.3060 N.ar    1  UNL1       -0.2422
     37 C          -6.9367   -5.0019   30.6593 C.ar    1  UNL1        0.1002
     38 C          -7.0210   -6.3607   30.9724 C.ar    1  UNL1        0.0353
     39 C          -9.7367  -10.4947   33.7127 C.3     1  UNL1        0.0569
     40 C         -13.0115  -14.6398   33.0398 C.ar    1  UNL1        0.0361
     41 C         -11.8134  -14.5961   33.8056 C.ar    1  UNL1        0.0029
     42 C         -11.0112  -13.4435   33.8262 C.ar    1  UNL1        0.0013
     43 C         -11.4212  -12.3473   33.0715 C.ar    1  UNL1        0.0131
     44 C         -10.8888  -11.0779   32.9442 C.ar    1  UNL1       -0.0017
     45 C         -11.7703  -10.3834   32.1218 C.ar    1  UNL1        0.0681
     46 N         -12.7916  -11.1850   31.7420 N.ar    1  UNL1       -0.3523
     47 C         -12.5715  -12.3736   32.3308 C.ar    1  UNL1        0.0564
     48 C         -13.3925  -13.4990   32.2910 C.ar    1  UNL1        0.0198
     49 H         -13.6067  -10.9178   31.1465 H       1  UNL1        0.1660
     50 C         -15.3263  -15.8009   33.3592 C.3     1  UNL1        0.0773
     51 C         -13.8663  -15.8555   33.0218 C.2     1  UNL1        0.1735
     52 O         -13.3617  -16.9711   32.7194 O.2     1  UNL1       -0.2913
@<TRIPOS>BOND
     1    50    51    1
     2    51    52    2
     3    51    40    1
     4    40    41   ar
     5    41    42   ar
     6    42    43   ar
     7    43    44   ar
     8    44    39    1
     9    39    28    1
    10    28     1    1
    11     1     2   am
    12     2     3    2
    13     2     5    1
    14     5     6   ar
    15     6     7   ar
    16     7     8   ar
    17     8    12    1
    18    12    13    1
    19    13    14    1
    20    14    15    1
    21    15    18    1
    22    18    19   ar
    23    19    20   ar
    24    20    21   ar
    25    21    24    1
    26    24    25    1
    27    24    26    1
    28    24    27    1
    29    21    22   ar
    30    22    23   ar
    31    15    16    1
    32    16    17    1
    33     8     9   ar
    34     9    10   ar
    35    10    11    1
    36    28    29    1
    37    29    30    2
    38    29    31   am
    39    31    33    1
    40    33    34   ar
    41    34    35   ar
    42    35    36   ar
    43    36    37   ar
    44    37    38   ar
    45    44    45   ar
    46    45    46   ar
    47    46    47   ar
    48    47    48   ar
    49    48    40   ar
    50    47    43   ar
    51    10     5   ar
    52    38    33   ar
    53    17    12    1
    54    23    18   ar
    55     1     4    1
    56    31    32    1
    57    46    49    1
