@<TRIPOS>MOLECULE
*****
 37 41 0 0 0
SMALL
GASTEIGER

@<TRIPOS>ATOM
      1 C          -8.8652   -7.5007   31.0056 C.ar    1  UNL1        0.1317
      2 C          -9.0215   -6.1026   30.9298 C.ar    1  UNL1        0.0294
      3 C         -10.2595   -5.5054   31.2299 C.ar    1  UNL1        0.0842
      4 C         -11.3413   -6.3094   31.6176 C.ar    1  UNL1        0.2935
      5 CL        -12.8933   -5.5802   32.0048 Cl      1  UNL1       -0.0100
      6 N         -11.1480   -7.6533   31.6911 N.ar    1  UNL1       -0.1177
      7 C         -11.9900   -8.6331   32.0553 C.ar    1  UNL1        0.3143
      8 C         -11.2826   -9.8287   31.9851 C.ar    1  UNL1        0.1320
      9 N         -10.0116   -9.5863   31.5803 N.ar    1  UNL1       -0.2940
     10 C          -9.9781   -8.2501   31.4067 C.ar    1  UNL1        0.3128
     11 H          -9.2834  -10.2348   31.4447 H       1  UNL1        0.1718
     12 N          -6.2709  -10.2912   29.7441 N.3     1  UNL1       -0.2647
     13 C          -5.8411   -9.8162   31.0730 C.3     1  UNL1        0.0941
     14 C          -6.9723   -9.0004   31.7068 C.3     1  UNL1        0.1084
     15 N          -7.6037   -8.1260   30.7115 N.pl3   1  UNL1       -0.2988
     16 C          -6.9161   -7.8715   29.4412 C.3     1  UNL1        0.1084
     17 C          -6.5153   -9.1985   28.7701 C.3     1  UNL1        0.0941
     18 C          -5.4178  -11.3707   29.2001 C.3     1  UNL1        0.1199
     19 C          -6.7292  -14.3194   27.6158 C.ar    1  UNL1        0.1165
     20 N          -5.7100  -13.4541   27.8060 N.ar    1  UNL1       -0.2344
     21 C          -6.2003  -12.5555   28.6841 C.ar    1  UNL1        0.0878
     22 C          -7.5070  -12.8882   28.9953 C.ar    1  UNL1        0.0499
     23 C          -8.4550  -12.1242   29.8645 C.3     1  UNL1        0.0511
     24 N          -7.8368  -13.9951   28.3111 N.ar    1  UNL1       -0.3443
     25 H          -8.7584  -14.4867   28.3019 H       1  UNL1        0.1668
     26 C          -8.0461  -15.7972   26.1170 C.3     1  UNL1        0.0084
     27 C          -6.6605  -15.4681   26.6591 C.3     1  UNL1        0.0637
     28 C         -11.7917  -11.1863   32.2993 C.ar    1  UNL1        0.0218
     29 C         -12.9447  -11.6656   31.6595 C.ar    1  UNL1        0.0013
     30 C         -13.4420  -12.9408   31.9403 C.ar    1  UNL1       -0.0042
     31 C         -12.7990  -13.7835   32.8758 C.ar    1  UNL1       -0.0228
     32 C         -11.6401  -13.2892   33.5126 C.ar    1  UNL1       -0.0042
     33 C         -11.1450  -12.0139   33.2300 C.ar    1  UNL1        0.0013
     34 C         -13.3121  -15.1980   33.2171 C.3     1  UNL1        0.0189
     35 C         -12.6171  -16.2319   32.3045 C.3     1  UNL1        0.0044
     36 C         -14.8399  -15.3526   33.0234 C.3     1  UNL1        0.0044
     37 C         -12.9920  -15.5196   34.6931 C.3     1  UNL1        0.0044
@<TRIPOS>BOND
     1    26    27    1
     2    27    19    1
     3    19    20   ar
     4    20    21   ar
     5    21    18    1
     6    18    12    1
     7    12    13    1
     8    13    14    1
     9    14    15    1
    10    15     1    1
    11     1     2   ar
    12     2     3   ar
    13     3     4   ar
    14     4     5    1
    15     4     6   ar
    16     6     7   ar
    17     7     8   ar
    18     8    28    1
    19    28    29   ar
    20    29    30   ar
    21    30    31   ar
    22    31    34    1
    23    34    35    1
    24    34    36    1
    25    34    37    1
    26    31    32   ar
    27    32    33   ar
    28     8     9   ar
    29     9    10   ar
    30    15    16    1
    31    16    17    1
    32    21    22   ar
    33    22    23    1
    34    22    24   ar
    35    24    19   ar
    36    17    12    1
    37    10     1   ar
    38    10     6   ar
    39    33    28   ar
    40    24    25    1
    41     9    11    1
@<TRIPOS>MOLECULE
*****
 37 41 0 0 0
SMALL
GASTEIGER

@<TRIPOS>ATOM
      1 C          -7.2972  -17.0909   23.4985 C.ar    1  UNL1        0.1317
      2 C          -7.9713  -18.1520   22.8626 C.ar    1  UNL1        0.0294
      3 C          -9.1501  -18.6833   23.4171 C.ar    1  UNL1        0.0842
      4 C          -9.6617  -18.1434   24.6061 C.ar    1  UNL1        0.2935
      5 CL        -11.1382  -18.7884   25.3090 Cl      1  UNL1       -0.0100
      6 N          -8.9898  -17.1117   25.1835 N.ar    1  UNL1       -0.1177
      7 C          -9.2694  -16.4039   26.2891 C.ar    1  UNL1        0.3143
      8 C          -8.2757  -15.4395   26.4207 C.ar    1  UNL1        0.1320
      9 N          -7.3892  -15.5527   25.4012 N.ar    1  UNL1       -0.2940
     10 C          -7.8605  -16.5878   24.6779 C.ar    1  UNL1        0.3128
     11 H          -6.5883  -15.0064   25.2294 H       1  UNL1        0.1718
     12 N          -3.8739  -16.8905   21.4129 N.3     1  UNL1       -0.2647
     13 C          -3.6451  -16.3091   22.7493 C.3     1  UNL1        0.0941
     14 C          -4.8249  -16.6609   23.6609 C.3     1  UNL1        0.1084
     15 N          -6.0964  -16.5301   22.9398 N.pl3   1  UNL1       -0.2988
     16 C          -6.1297  -15.7920   21.6727 C.3     1  UNL1        0.1084
     17 C          -5.0523  -16.3251   20.7100 C.3     1  UNL1        0.0941
     18 C          -2.6588  -16.9248   20.5694 C.3     1  UNL1        0.1199
     19 C          -0.0565  -19.3410   21.1303 C.ar    1  UNL1        0.1165
     20 N          -0.4309  -18.0653   20.8933 N.ar    1  UNL1       -0.2344
     21 C          -1.7769  -18.1231   20.8311 C.ar    1  UNL1        0.0878
     22 C          -2.1862  -19.4318   21.0182 C.ar    1  UNL1        0.0499
     23 C          -3.5825  -19.9641   20.9485 C.3     1  UNL1        0.0511
     24 N          -1.0964  -20.1951   21.1964 N.ar    1  UNL1       -0.3443
     25 H          -1.0598  -21.2299   21.3345 H       1  UNL1        0.1668
     26 C           1.4727  -21.2907   21.2858 C.3     1  UNL1        0.0084
     27 C           1.3740  -19.7716   21.2189 C.3     1  UNL1        0.0637
     28 C          -8.1602  -14.4175   27.4898 C.ar    1  UNL1        0.0218
     29 C          -9.3097  -13.9790   28.1643 C.ar    1  UNL1        0.0013
     30 C          -9.2244  -13.0171   29.1742 C.ar    1  UNL1       -0.0042
     31 C          -7.9797  -12.4587   29.5448 C.ar    1  UNL1       -0.0228
     32 C          -6.8309  -12.9082   28.8582 C.ar    1  UNL1       -0.0042
     33 C          -6.9190  -13.8700   27.8490 C.ar    1  UNL1        0.0013
     34 C          -7.8379  -11.3948   30.6531 C.3     1  UNL1        0.0189
     35 C          -8.2053  -10.0068   30.0846 C.3     1  UNL1        0.0044
     36 C          -6.4030  -11.3027   31.2262 C.3     1  UNL1        0.0044
     37 C          -8.7877  -11.7384   31.8212 C.3     1  UNL1        0.0044
@<TRIPOS>BOND
     1    26    27    1
     2    27    19    1
     3    19    20   ar
     4    20    21   ar
     5    21    18    1
     6    18    12    1
     7    12    13    1
     8    13    14    1
     9    14    15    1
    10    15     1    1
    11     1     2   ar
    12     2     3   ar
    13     3     4   ar
    14     4     5    1
    15     4     6   ar
    16     6     7   ar
    17     7     8   ar
    18     8    28    1
    19    28    29   ar
    20    29    30   ar
    21    30    31   ar
    22    31    34    1
    23    34    35    1
    24    34    36    1
    25    34    37    1
    26    31    32   ar
    27    32    33   ar
    28     8     9   ar
    29     9    10   ar
    30    15    16    1
    31    16    17    1
    32    21    22   ar
    33    22    23    1
    34    22    24   ar
    35    24    19   ar
    36    17    12    1
    37    10     1   ar
    38    10     6   ar
    39    33    28   ar
    40    24    25    1
    41     9    11    1
@<TRIPOS>MOLECULE
*****
 37 41 0 0 0
SMALL
GASTEIGER

@<TRIPOS>ATOM
      1 C         -10.2849   -6.8846   30.6590 C.ar    1  UNL1        0.1317
      2 C         -10.5785   -5.5171   30.8274 C.ar    1  UNL1        0.0294
      3 C         -11.6886   -5.1141   31.5921 C.ar    1  UNL1        0.0842
      4 C         -12.5009   -6.0830   32.1991 C.ar    1  UNL1        0.2935
      5 CL        -13.8870   -5.5982   33.1655 Cl      1  UNL1       -0.0100
      6 N         -12.1780   -7.3922   32.0239 N.ar    1  UNL1       -0.1177
      7 C         -12.7583   -8.5019   32.5071 C.ar    1  UNL1        0.3143
      8 C         -12.0155   -9.5854   32.0497 C.ar    1  UNL1        0.1320
      9 N         -10.9830   -9.1451   31.2894 N.ar    1  UNL1       -0.2940
     10 C         -11.1265   -7.8049   31.2961 C.ar    1  UNL1        0.3128
     11 H         -10.2903   -9.6794   30.8378 H       1  UNL1        0.1718
     12 N          -7.0137   -8.9832   29.6568 N.3     1  UNL1       -0.2647
     13 C          -6.7266   -7.5480   29.4720 C.3     1  UNL1        0.0941
     14 C          -7.8290   -6.7228   30.1431 C.3     1  UNL1        0.1084
     15 N          -9.1484   -7.3129   29.8885 N.pl3   1  UNL1       -0.2988
     16 C          -9.2955   -8.3072   28.8203 C.3     1  UNL1        0.1084
     17 C          -8.2587   -9.4339   28.9864 C.3     1  UNL1        0.0941
     18 C          -5.8545   -9.8574   29.3721 C.3     1  UNL1        0.1199
     19 C          -4.0122  -11.5683   31.9418 C.ar    1  UNL1        0.1165
     20 N          -4.0451  -10.9804   30.7265 N.ar    1  UNL1       -0.2344
     21 C          -5.3232  -10.5710   30.5931 C.ar    1  UNL1        0.0878
     22 C          -6.0375  -10.9309   31.7224 C.ar    1  UNL1        0.0499
     23 C          -7.5019  -10.7466   31.9662 C.3     1  UNL1        0.0511
     24 N          -5.2075  -11.5675   32.5637 N.ar    1  UNL1       -0.3443
     25 H          -5.4411  -11.9902   33.4899 H       1  UNL1        0.1668
     26 C          -2.5268  -11.7598   33.9220 C.3     1  UNL1        0.0084
     27 C          -2.7915  -12.2321   32.4976 C.3     1  UNL1        0.0637
     28 C         -12.2680  -11.0208   32.3267 C.ar    1  UNL1        0.0218
     29 C         -13.3370  -11.6763   31.6975 C.ar    1  UNL1        0.0013
     30 C         -13.5933  -13.0276   31.9438 C.ar    1  UNL1       -0.0042
     31 C         -12.7846  -13.7720   32.8329 C.ar    1  UNL1       -0.0228
     32 C         -11.7125  -13.1006   33.4596 C.ar    1  UNL1       -0.0042
     33 C         -11.4584  -11.7496   33.2116 C.ar    1  UNL1        0.0013
     34 C         -13.0301  -15.2650   33.1350 C.3     1  UNL1        0.0189
     35 C         -12.3619  -16.1281   32.0427 C.3     1  UNL1        0.0044
     36 C         -14.5320  -15.6373   33.1742 C.3     1  UNL1        0.0044
     37 C         -12.4237  -15.6186   34.5104 C.3     1  UNL1        0.0044
@<TRIPOS>BOND
     1    26    27    1
     2    27    19    1
     3    19    20   ar
     4    20    21   ar
     5    21    18    1
     6    18    12    1
     7    12    13    1
     8    13    14    1
     9    14    15    1
    10    15     1    1
    11     1     2   ar
    12     2     3   ar
    13     3     4   ar
    14     4     5    1
    15     4     6   ar
    16     6     7   ar
    17     7     8   ar
    18     8    28    1
    19    28    29   ar
    20    29    30   ar
    21    30    31   ar
    22    31    34    1
    23    34    35    1
    24    34    36    1
    25    34    37    1
    26    31    32   ar
    27    32    33   ar
    28     8     9   ar
    29     9    10   ar
    30    15    16    1
    31    16    17    1
    32    21    22   ar
    33    22    23    1
    34    22    24   ar
    35    24    19   ar
    36    17    12    1
    37    10     1   ar
    38    10     6   ar
    39    33    28   ar
    40    24    25    1
    41     9    11    1
@<TRIPOS>MOLECULE
*****
 37 41 0 0 0
SMALL
GASTEIGER

@<TRIPOS>ATOM
      1 C          -5.3884   -9.0397   29.3181 C.ar    1  UNL1        0.1317
      2 C          -4.2983   -9.1381   28.4312 C.ar    1  UNL1        0.0294
      3 C          -4.0233  -10.3489   27.7695 C.ar    1  UNL1        0.0842
      4 C          -4.8487  -11.4615   27.9882 C.ar    1  UNL1        0.2935
      5 CL         -4.5258  -12.9800   27.1636 Cl      1  UNL1       -0.0100
      6 N          -5.8983  -11.3239   28.8416 N.ar    1  UNL1       -0.1177
      7 C          -6.8448  -12.2043   29.2030 C.ar    1  UNL1        0.3143
      8 C          -7.7023  -11.5476   30.0795 C.ar    1  UNL1        0.1320
      9 N          -7.2864  -10.2694   30.2564 N.ar    1  UNL1       -0.2940
     10 C          -6.1816  -10.1811   29.4893 C.ar    1  UNL1        0.3128
     11 H          -7.6956   -9.5694   30.8146 H       1  UNL1        0.1718
     12 N          -7.5721   -6.0216   30.8120 N.3     1  UNL1       -0.2647
     13 C          -6.4318   -5.4537   30.0680 C.3     1  UNL1        0.0941
     14 C          -5.7763   -6.5566   29.2311 C.3     1  UNL1        0.1084
     15 N          -5.6889   -7.8067   29.9950 N.pl3   1  UNL1       -0.2988
     16 C          -5.8720   -7.7726   31.4499 C.3     1  UNL1        0.1084
     17 C          -7.1815   -7.0470   31.8113 C.3     1  UNL1        0.0941
     18 C          -8.4859   -4.9964   31.3623 C.3     1  UNL1        0.1199
     19 C         -11.8845   -6.1600   31.2193 C.ar    1  UNL1        0.1165
     20 N         -10.6508   -6.2297   31.7642 N.ar    1  UNL1       -0.2344
     21 C          -9.9454   -5.2886   31.1041 C.ar    1  UNL1        0.0878
     22 C         -10.7621   -4.6802   30.1671 C.ar    1  UNL1        0.0499
     23 C         -10.3737   -3.6404   29.1642 C.3     1  UNL1        0.0511
     24 N         -11.9797   -5.2410   30.2386 N.ar    1  UNL1       -0.3443
     25 H         -12.8144   -5.0275   29.6480 H       1  UNL1        0.1668
     26 C         -12.5270   -8.5223   31.6324 C.3     1  UNL1        0.0084
     27 C         -13.0035   -7.0752   31.6062 C.3     1  UNL1        0.0637
     28 C          -8.9041  -12.1113   30.7419 C.ar    1  UNL1        0.0218
     29 C          -9.0596  -11.9867   32.1307 C.ar    1  UNL1        0.0013
     30 C         -10.1833  -12.5102   32.7754 C.ar    1  UNL1       -0.0042
     31 C         -11.1942  -13.1797   32.0484 C.ar    1  UNL1       -0.0228
     32 C         -11.0255  -13.2985   30.6518 C.ar    1  UNL1       -0.0042
     33 C          -9.9011  -12.7741   30.0097 C.ar    1  UNL1        0.0013
     34 C         -12.4511  -13.7733   32.7177 C.3     1  UNL1        0.0189
     35 C         -12.1893  -13.9632   34.2277 C.3     1  UNL1        0.0044
     36 C         -12.8572  -15.1485   32.1349 C.3     1  UNL1        0.0044
     37 C         -13.6425  -12.8108   32.5209 C.3     1  UNL1        0.0044
@<TRIPOS>BOND
     1    26    27    1
     2    27    19    1
     3    19    20   ar
     4    20    21   ar
     5    21    18    1
     6    18    12    1
     7    12    13    1
     8    13    14    1
     9    14    15    1
    10    15     1    1
    11     1     2   ar
    12     2     3   ar
    13     3     4   ar
    14     4     5    1
    15     4     6   ar
    16     6     7   ar
    17     7     8   ar
    18     8    28    1
    19    28    29   ar
    20    29    30   ar
    21    30    31   ar
    22    31    34    1
    23    34    35    1
    24    34    36    1
    25    34    37    1
    26    31    32   ar
    27    32    33   ar
    28     8     9   ar
    29     9    10   ar
    30    15    16    1
    31    16    17    1
    32    21    22   ar
    33    22    23    1
    34    22    24   ar
    35    24    19   ar
    36    17    12    1
    37    10     1   ar
    38    10     6   ar
    39    33    28   ar
    40    24    25    1
    41     9    11    1
@<TRIPOS>MOLECULE
*****
 37 41 0 0 0
SMALL
GASTEIGER

@<TRIPOS>ATOM
      1 C          -7.6670   -8.6094   29.9522 C.ar    1  UNL1        0.1317
      2 C          -7.5663   -7.2190   29.7489 C.ar    1  UNL1        0.0294
      3 C          -8.6425   -6.3710   30.0686 C.ar    1  UNL1        0.0842
      4 C          -9.8191   -6.9155   30.6035 C.ar    1  UNL1        0.2935
      5 CL        -11.1709   -5.8706   31.0171 Cl      1  UNL1       -0.0100
      6 N          -9.8736   -8.2604   30.7969 N.ar    1  UNL1       -0.1177
      7 C         -10.8500   -9.0250   31.3103 C.ar    1  UNL1        0.3143
      8 C         -10.3856  -10.3361   31.3126 C.ar    1  UNL1        0.1320
      9 N          -9.1297  -10.3786   30.8038 N.ar    1  UNL1       -0.2940
     10 C          -8.8628   -9.0935   30.4972 C.ar    1  UNL1        0.3128
     11 H          -8.5485  -11.1644   30.6859 H       1  UNL1        0.1718
     12 N          -5.6397  -11.5819   28.1736 N.3     1  UNL1       -0.2647
     13 C          -5.4356  -11.6801   29.6314 C.3     1  UNL1        0.0941
     14 C          -6.4412  -10.7700   30.3436 C.3     1  UNL1        0.1084
     15 N          -6.5726   -9.4889   29.6397 N.pl3   1  UNL1       -0.2988
     16 C          -5.5589   -9.1063   28.6511 C.3     1  UNL1        0.1084
     17 C          -5.3583  -10.2336   27.6211 C.3     1  UNL1        0.0941
     18 C          -4.9831  -12.6674   27.4124 C.3     1  UNL1        0.1199
     19 C          -7.4600  -15.2684   27.2566 C.ar    1  UNL1        0.1165
     20 N          -6.9262  -14.2042   27.8940 N.ar    1  UNL1       -0.2344
     21 C          -5.9002  -13.8275   27.1037 C.ar    1  UNL1        0.0878
     22 C          -5.8275  -14.6780   26.0145 C.ar    1  UNL1        0.0499
     23 C          -4.7965  -14.6774   24.9306 C.3     1  UNL1        0.0511
     24 N          -6.8073  -15.5894   26.1224 N.ar    1  UNL1       -0.3443
     25 H          -7.0077  -16.3876   25.4793 H       1  UNL1        0.1668
     26 C          -8.9613  -17.2066   26.8644 C.3     1  UNL1        0.0084
     27 C          -8.6038  -16.0624   27.8052 C.3     1  UNL1        0.0637
     28 C         -11.1104  -11.5385   31.7921 C.ar    1  UNL1        0.0218
     29 C         -12.4225  -11.7823   31.3591 C.ar    1  UNL1        0.0013
     30 C         -13.1240  -12.9081   31.7981 C.ar    1  UNL1       -0.0042
     31 C         -12.5332  -13.8325   32.6898 C.ar    1  UNL1       -0.0228
     32 C         -11.2127  -13.5754   33.1180 C.ar    1  UNL1       -0.0042
     33 C         -10.5136  -12.4491   32.6776 C.ar    1  UNL1        0.0013
     34 C         -13.2695  -15.0884   33.2006 C.3     1  UNL1        0.0189
     35 C         -12.7545  -16.3312   32.4425 C.3     1  UNL1        0.0044
     36 C         -14.8025  -15.0173   32.9991 C.3     1  UNL1        0.0044
     37 C         -13.0032  -15.2626   34.7117 C.3     1  UNL1        0.0044
@<TRIPOS>BOND
     1    26    27    1
     2    27    19    1
     3    19    20   ar
     4    20    21   ar
     5    21    18    1
     6    18    12    1
     7    12    13    1
     8    13    14    1
     9    14    15    1
    10    15     1    1
    11     1     2   ar
    12     2     3   ar
    13     3     4   ar
    14     4     5    1
    15     4     6   ar
    16     6     7   ar
    17     7     8   ar
    18     8    28    1
    19    28    29   ar
    20    29    30   ar
    21    30    31   ar
    22    31    34    1
    23    34    35    1
    24    34    36    1
    25    34    37    1
    26    31    32   ar
    27    32    33   ar
    28     8     9   ar
    29     9    10   ar
    30    15    16    1
    31    16    17    1
    32    21    22   ar
    33    22    23    1
    34    22    24   ar
    35    24    19   ar
    36    17    12    1
    37    10     1   ar
    38    10     6   ar
    39    33    28   ar
    40    24    25    1
    41     9    11    1
@<TRIPOS>MOLECULE
*****
 37 41 0 0 0
SMALL
GASTEIGER

@<TRIPOS>ATOM
      1 C          -7.3273  -16.7727   23.6537 C.ar    1  UNL1        0.1317
      2 C          -8.0191  -17.8369   23.0425 C.ar    1  UNL1        0.0294
      3 C          -9.1657  -18.3838   23.6472 C.ar    1  UNL1        0.0842
      4 C          -9.6274  -17.8566   24.8620 C.ar    1  UNL1        0.2935
      5 CL        -11.0633  -18.5213   25.6278 Cl      1  UNL1       -0.0100
      6 N          -8.9401  -16.8215   25.4146 N.ar    1  UNL1       -0.1177
      7 C          -9.1757  -16.1234   26.5365 C.ar    1  UNL1        0.3143
      8 C          -8.1868  -15.1496   26.6286 C.ar    1  UNL1        0.1320
      9 N          -7.3471  -15.2472   25.5687 N.ar    1  UNL1       -0.2940
     10 C          -7.8407  -16.2827   24.8610 C.ar    1  UNL1        0.3128
     11 H          -6.5606  -14.6916   25.3638 H       1  UNL1        0.1718
     12 N          -4.1222  -16.4521   21.2592 N.3     1  UNL1       -0.2647
     13 C          -3.7306  -16.0545   22.6248 C.3     1  UNL1        0.0941
     14 C          -4.8314  -16.4696   23.6060 C.3     1  UNL1        0.1084
     15 N          -6.1593  -16.1960   23.0440 N.pl3   1  UNL1       -0.2988
     16 C          -6.2782  -15.3027   21.8866 C.3     1  UNL1        0.1084
     17 C          -5.3322  -15.7540   20.7582 C.3     1  UNL1        0.0941
     18 C          -3.0006  -16.4298   20.2946 C.3     1  UNL1        0.1199
     19 C          -0.3553  -18.8393   20.6430 C.ar    1  UNL1        0.1165
     20 N          -0.7681  -17.5534   20.6451 N.ar    1  UNL1       -0.2344
     21 C          -2.0918  -17.6321   20.3987 C.ar    1  UNL1        0.0878
     22 C          -2.4480  -18.9599   20.2402 C.ar    1  UNL1        0.0499
     23 C          -3.7946  -19.5004   19.8761 C.3     1  UNL1        0.0511
     24 N          -1.3471  -19.7142   20.3857 N.ar    1  UNL1       -0.3443
     25 H          -1.2705  -20.7521   20.2972 H       1  UNL1        0.1668
     26 C           1.1722  -20.6784   21.3129 C.3     1  UNL1        0.0084
     27 C           1.0758  -19.2401   20.8188 C.3     1  UNL1        0.0637
     28 C          -8.0326  -14.1329   27.6980 C.ar    1  UNL1        0.0218
     29 C          -6.7740  -13.5643   27.9453 C.ar    1  UNL1        0.0013
     30 C          -6.6057  -12.6054   28.9476 C.ar    1  UNL1       -0.0042
     31 C          -7.6968  -12.1811   29.7401 C.ar    1  UNL1       -0.0228
     32 C          -8.9576  -12.7612   29.4813 C.ar    1  UNL1       -0.0042
     33 C          -9.1231  -13.7197   28.4787 C.ar    1  UNL1        0.0013
     34 C          -7.5579  -11.1258   30.8570 C.3     1  UNL1        0.0189
     35 C          -6.1562  -11.2339   31.4961 C.3     1  UNL1        0.0044
     36 C          -8.6030  -11.2957   31.9860 C.3     1  UNL1        0.0044
     37 C          -7.7409   -9.7145   30.2577 C.3     1  UNL1        0.0044
@<TRIPOS>BOND
     1    26    27    1
     2    27    19    1
     3    19    20   ar
     4    20    21   ar
     5    21    18    1
     6    18    12    1
     7    12    13    1
     8    13    14    1
     9    14    15    1
    10    15     1    1
    11     1     2   ar
    12     2     3   ar
    13     3     4   ar
    14     4     5    1
    15     4     6   ar
    16     6     7   ar
    17     7     8   ar
    18     8    28    1
    19    28    29   ar
    20    29    30   ar
    21    30    31   ar
    22    31    34    1
    23    34    35    1
    24    34    36    1
    25    34    37    1
    26    31    32   ar
    27    32    33   ar
    28     8     9   ar
    29     9    10   ar
    30    15    16    1
    31    16    17    1
    32    21    22   ar
    33    22    23    1
    34    22    24   ar
    35    24    19   ar
    36    17    12    1
    37    10     1   ar
    38    10     6   ar
    39    33    28   ar
    40    24    25    1
    41     9    11    1
@<TRIPOS>MOLECULE
*****
 37 41 0 0 0
SMALL
GASTEIGER

@<TRIPOS>ATOM
      1 C         -10.3516   -6.6798   31.1127 C.ar    1  UNL1        0.1317
      2 C         -10.7928   -5.3456   31.2118 C.ar    1  UNL1        0.0294
      3 C         -12.0704   -5.0523   31.7228 C.ar    1  UNL1        0.0842
      4 C         -12.9045   -6.0973   32.1461 C.ar    1  UNL1        0.2935
      5 CL        -14.5006   -5.7495   32.7956 Cl      1  UNL1       -0.0100
      6 N         -12.4385   -7.3708   32.0464 N.ar    1  UNL1       -0.1177
      7 C         -13.0082   -8.5340   32.3983 C.ar    1  UNL1        0.3143
      8 C         -12.0936   -9.5419   32.1113 C.ar    1  UNL1        0.1320
      9 N         -10.9663   -9.0020   31.5861 N.ar    1  UNL1       -0.2940
     10 C         -11.2249   -7.6795   31.5590 C.ar    1  UNL1        0.3128
     11 H         -10.1497   -9.4673   31.2929 H       1  UNL1        0.1718
     12 N          -6.5011   -7.8125   31.1146 N.3     1  UNL1       -0.2647
     13 C          -6.6286   -6.5811   30.3122 C.3     1  UNL1        0.0941
     14 C          -8.0068   -5.9594   30.5585 C.3     1  UNL1        0.1084
     15 N          -9.0449   -6.9961   30.6016 N.pl3   1  UNL1       -0.2988
     16 C          -8.7434   -8.3350   30.0840 C.3     1  UNL1        0.1084
     17 C          -7.4529   -8.8815   30.7225 C.3     1  UNL1        0.0941
     18 C          -5.1076   -8.2947   31.2362 C.3     1  UNL1        0.1199
     19 C          -4.2571  -10.1616   28.2839 C.ar    1  UNL1        0.1165
     20 N          -4.6014   -8.9916   28.8640 N.ar    1  UNL1       -0.2344
     21 C          -4.7211   -9.2955   30.1726 C.ar    1  UNL1        0.0878
     22 C          -4.4602  -10.6424   30.3536 C.ar    1  UNL1        0.0499
     23 C          -4.5558  -11.4215   31.6271 C.3     1  UNL1        0.0511
     24 N          -4.1782  -11.1838   29.1581 N.ar    1  UNL1       -0.3443
     25 H          -3.9652  -12.1844   28.9467 H       1  UNL1        0.1668
     26 C          -4.1306   -8.9658   26.1117 C.3     1  UNL1        0.0084
     27 C          -4.0724  -10.3203   26.8073 C.3     1  UNL1        0.0637
     28 C         -12.2721  -10.9981   32.3320 C.ar    1  UNL1        0.0218
     29 C         -13.3809  -11.6575   31.7805 C.ar    1  UNL1        0.0013
     30 C         -13.5691  -13.0282   31.9758 C.ar    1  UNL1       -0.0042
     31 C         -12.6494  -13.7889   32.7336 C.ar    1  UNL1       -0.0228
     32 C         -11.5383  -13.1133   33.2831 C.ar    1  UNL1       -0.0042
     33 C         -11.3525  -11.7429   33.0863 C.ar    1  UNL1        0.0013
     34 C         -12.8167  -15.3035   32.9752 C.3     1  UNL1        0.0189
     35 C         -12.0788  -15.7028   34.2716 C.3     1  UNL1        0.0044
     36 C         -12.2466  -16.1683   31.8250 C.3     1  UNL1        0.0044
     37 C         -14.3173  -15.6400   33.1149 C.3     1  UNL1        0.0044
@<TRIPOS>BOND
     1    26    27    1
     2    27    19    1
     3    19    20   ar
     4    20    21   ar
     5    21    18    1
     6    18    12    1
     7    12    13    1
     8    13    14    1
     9    14    15    1
    10    15     1    1
    11     1     2   ar
    12     2     3   ar
    13     3     4   ar
    14     4     5    1
    15     4     6   ar
    16     6     7   ar
    17     7     8   ar
    18     8    28    1
    19    28    29   ar
    20    29    30   ar
    21    30    31   ar
    22    31    34    1
    23    34    35    1
    24    34    36    1
    25    34    37    1
    26    31    32   ar
    27    32    33   ar
    28     8     9   ar
    29     9    10   ar
    30    15    16    1
    31    16    17    1
    32    21    22   ar
    33    22    23    1
    34    22    24   ar
    35    24    19   ar
    36    17    12    1
    37    10     1   ar
    38    10     6   ar
    39    33    28   ar
    40    24    25    1
    41     9    11    1
@<TRIPOS>MOLECULE
*****
 37 41 0 0 0
SMALL
GASTEIGER

@<TRIPOS>ATOM
      1 C         -11.7462  -10.4284   31.3659 C.ar    1  UNL1        0.1317
      2 C         -12.7480  -10.5255   32.3517 C.ar    1  UNL1        0.0294
      3 C         -13.1907  -11.7842   32.7980 C.ar    1  UNL1        0.0842
      4 C         -12.6211  -12.9491   32.2635 C.ar    1  UNL1        0.2935
      5 CL        -13.1553  -14.5303   32.8152 Cl      1  UNL1       -0.0100
      6 N         -11.6481  -12.8143   31.3232 N.ar    1  UNL1       -0.1177
      7 C         -10.9283  -13.7461   30.6788 C.ar    1  UNL1        0.3143
      8 C         -10.0443  -13.0743   29.8410 C.ar    1  UNL1        0.1320
      9 N         -10.2184  -11.7359   29.9693 N.ar    1  UNL1       -0.2940
     10 C         -11.2093  -11.6255   30.8764 C.ar    1  UNL1        0.3128
     11 H          -9.7343  -11.0135   29.5078 H       1  UNL1        0.1718
     12 N          -9.1632   -7.5063   30.4178 N.3     1  UNL1       -0.2647
     13 C         -10.2493   -6.9280   31.2317 C.3     1  UNL1        0.0941
     14 C         -11.0614   -8.0611   31.8669 C.3     1  UNL1        0.1084
     15 N         -11.2757   -9.1494   30.9058 N.pl3   1  UNL1       -0.2988
     16 C         -11.0426   -8.9026   29.4789 C.3     1  UNL1        0.1084
     17 C          -9.6433   -8.2983   29.2582 C.3     1  UNL1        0.0941
     18 C          -8.1137   -6.5283   30.0556 C.3     1  UNL1        0.1199
     19 C          -5.0200   -8.2411   29.4079 C.ar    1  UNL1        0.1165
     20 N          -6.2890   -7.9513   29.0482 N.ar    1  UNL1       -0.2344
     21 C          -6.7246   -7.1210   30.0177 C.ar    1  UNL1        0.0878
     22 C          -5.7166   -6.9373   30.9478 C.ar    1  UNL1        0.0499
     23 C          -5.7906   -6.1602   32.2239 C.3     1  UNL1        0.0511
     24 N          -4.6488   -7.6538   30.5623 N.ar    1  UNL1       -0.3443
     25 H          -3.7356   -7.7529   31.0596 H       1  UNL1        0.1668
     26 C          -4.9878  -10.0503   27.7079 C.3     1  UNL1        0.0084
     27 C          -4.1496   -9.1908   28.6463 C.3     1  UNL1        0.0637
     28 C          -9.0413  -13.6810   28.9316 C.ar    1  UNL1        0.0218
     29 C          -7.7251  -13.1953   28.9194 C.ar    1  UNL1        0.0013
     30 C          -6.7643  -13.7514   28.0708 C.ar    1  UNL1       -0.0042
     31 C          -7.0902  -14.8176   27.2014 C.ar    1  UNL1       -0.0228
     32 C          -8.4179  -15.2967   27.2233 C.ar    1  UNL1       -0.0042
     33 C          -9.3765  -14.7389   28.0726 C.ar    1  UNL1        0.0013
     34 C          -6.0626  -15.4621   26.2479 C.3     1  UNL1        0.0189
     35 C          -6.7503  -15.8123   24.9103 C.3     1  UNL1        0.0044
     36 C          -5.4437  -16.7636   26.8125 C.3     1  UNL1        0.0044
     37 C          -4.9089  -14.4694   25.9869 C.3     1  UNL1        0.0044
@<TRIPOS>BOND
     1    26    27    1
     2    27    19    1
     3    19    20   ar
     4    20    21   ar
     5    21    18    1
     6    18    12    1
     7    12    13    1
     8    13    14    1
     9    14    15    1
    10    15     1    1
    11     1     2   ar
    12     2     3   ar
    13     3     4   ar
    14     4     5    1
    15     4     6   ar
    16     6     7   ar
    17     7     8   ar
    18     8    28    1
    19    28    29   ar
    20    29    30   ar
    21    30    31   ar
    22    31    34    1
    23    34    35    1
    24    34    36    1
    25    34    37    1
    26    31    32   ar
    27    32    33   ar
    28     8     9   ar
    29     9    10   ar
    30    15    16    1
    31    16    17    1
    32    21    22   ar
    33    22    23    1
    34    22    24   ar
    35    24    19   ar
    36    17    12    1
    37    10     1   ar
    38    10     6   ar
    39    33    28   ar
    40    24    25    1
    41     9    11    1
@<TRIPOS>MOLECULE
*****
 37 41 0 0 0
SMALL
GASTEIGER

@<TRIPOS>ATOM
      1 C          -7.3422  -10.5667   30.8220 C.ar    1  UNL1        0.1317
      2 C          -6.3200   -9.7558   31.3531 C.ar    1  UNL1        0.0294
      3 C          -4.9862   -9.9255   30.9388 C.ar    1  UNL1        0.0842
      4 C          -4.6765  -10.9028   29.9818 C.ar    1  UNL1        0.2935
      5 CL         -3.0169  -11.1234   29.4456 Cl      1  UNL1       -0.0100
      6 N          -5.6920  -11.6573   29.4834 N.ar    1  UNL1       -0.1177
      7 C          -5.6791  -12.6256   28.5540 C.ar    1  UNL1        0.3143
      8 C          -6.9924  -13.0533   28.3893 C.ar    1  UNL1        0.1320
      9 N          -7.8097  -12.3516   29.2125 N.ar    1  UNL1       -0.2940
     10 C          -6.9734  -11.5190   29.8638 C.ar    1  UNL1        0.3128
     11 H          -8.7860  -12.4315   29.3115 H       1  UNL1        0.1718
     12 N         -10.8833  -11.4284   32.5035 N.3     1  UNL1       -0.2647
     13 C         -11.1212  -10.9300   31.1355 C.3     1  UNL1        0.0941
     14 C          -9.7937  -10.9007   30.3716 C.3     1  UNL1        0.1084
     15 N          -8.7120  -10.3996   31.2277 N.pl3   1  UNL1       -0.2988
     16 C          -9.0479   -9.6983   32.4713 C.3     1  UNL1        0.1084
     17 C         -10.0183  -10.5409   33.3200 C.3     1  UNL1        0.0941
     18 C         -12.1203  -11.8357   33.2055 C.3     1  UNL1        0.1199
     19 C         -12.8690  -15.3520   33.2015 C.ar    1  UNL1        0.1165
     20 N         -13.0816  -14.1147   32.7039 N.ar    1  UNL1       -0.2344
     21 C         -12.2376  -13.3289   33.4032 C.ar    1  UNL1        0.0878
     22 C         -11.5437  -14.1038   34.3159 C.ar    1  UNL1        0.0499
     23 C         -10.5665  -13.6344   35.3468 C.3     1  UNL1        0.0511
     24 N         -11.9537  -15.3759   34.1899 N.ar    1  UNL1       -0.3443
     25 H         -11.6467  -16.2020   34.7505 H       1  UNL1        0.1668
     26 C         -12.8578  -17.3376   31.7110 C.3     1  UNL1        0.0084
     27 C         -13.6400  -16.5560   32.7594 C.3     1  UNL1        0.0637
     28 C          -7.4783  -14.1070   27.4649 C.ar    1  UNL1        0.0218
     29 C          -6.7435  -14.4169   26.3106 C.ar    1  UNL1        0.0013
     30 C          -7.1825  -15.4054   25.4260 C.ar    1  UNL1       -0.0042
     31 C          -8.3778  -16.1205   25.6679 C.ar    1  UNL1       -0.0228
     32 C          -9.1078  -15.7989   26.8327 C.ar    1  UNL1       -0.0042
     33 C          -8.6667  -14.8102   27.7154 C.ar    1  UNL1        0.0013
     34 C          -8.9007  -17.2194   24.7195 C.3     1  UNL1        0.0189
     35 C          -7.7503  -17.7062   23.8116 C.3     1  UNL1        0.0044
     36 C         -10.0491  -16.7336   23.8024 C.3     1  UNL1        0.0044
     37 C          -9.4350  -18.4058   25.5509 C.3     1  UNL1        0.0044
@<TRIPOS>BOND
     1    26    27    1
     2    27    19    1
     3    19    20   ar
     4    20    21   ar
     5    21    18    1
     6    18    12    1
     7    12    13    1
     8    13    14    1
     9    14    15    1
    10    15     1    1
    11     1     2   ar
    12     2     3   ar
    13     3     4   ar
    14     4     5    1
    15     4     6   ar
    16     6     7   ar
    17     7     8   ar
    18     8    28    1
    19    28    29   ar
    20    29    30   ar
    21    30    31   ar
    22    31    34    1
    23    34    35    1
    24    34    36    1
    25    34    37    1
    26    31    32   ar
    27    32    33   ar
    28     8     9   ar
    29     9    10   ar
    30    15    16    1
    31    16    17    1
    32    21    22   ar
    33    22    23    1
    34    22    24   ar
    35    24    19   ar
    36    17    12    1
    37    10     1   ar
    38    10     6   ar
    39    33    28   ar
    40    24    25    1
    41     9    11    1
