@<TRIPOS>MOLECULE
*****
 47 52 0 0 0
SMALL
GASTEIGER

@<TRIPOS>ATOM
      1 C          61.8659   88.1164   10.1334 C.ar    1  UNL1        0.1036
      2 N          61.8713   87.2825   11.2104 N.ar    1  UNL1       -0.2313
      3 C          61.1076   86.1577   11.2846 C.ar    1  UNL1        0.1314
      4 C          60.2807   85.8296   10.1980 C.ar    1  UNL1        0.0356
      5 C          60.2581   86.6539    9.0739 C.ar    1  UNL1        0.0188
      6 C          61.0442   87.8147    9.0271 C.ar    1  UNL1        0.0669
      7 N          61.1578   85.3315   12.4712 N.pl3   1  UNL1       -0.2933
      8 C          62.3861   85.2544   13.2823 C.3     1  UNL1        0.0923
      9 C          62.3582   84.0609   14.2493 C.3     1  UNL1        0.0252
     10 C          61.7952   82.8186   13.5366 C.3     1  UNL1        0.0472
     11 C          60.3459   83.0573   13.0326 C.3     1  UNL1        0.0252
     12 C          59.9856   84.5454   12.8873 C.3     1  UNL1        0.0923
     13 C          61.8751   81.5849   14.4559 C.3     1  UNL1        0.2054
     14 O          62.2694   80.4231   13.7237 O.3     1  UNL1       -0.4755
     15 C          61.7517   80.0255   12.4799 C.ar    1  UNL1        0.1388
     16 C          62.4595   80.1859   11.2737 C.ar    1  UNL1        0.0369
     17 C          61.8923   79.7732   10.0665 C.ar    1  UNL1        0.0033
     18 C          60.6213   79.1952   10.0468 C.ar    1  UNL1        0.0066
     19 C          59.9016   79.0210   11.2416 C.ar    1  UNL1        0.0785
     20 C          60.4799   79.4392   12.4533 C.ar    1  UNL1        0.0433
     21 C          58.5551   78.4077   11.2287 C.2     1  UNL1        0.3381
     22 O          58.3707   77.2612   11.7202 O.2     1  UNL1       -0.2451
     23 O          57.4772   79.0919   10.6726 O.3     1  UNL1       -0.4771
     24 H          56.5514   78.6811   10.6586 H       1  UNL1        0.2954
     25 N          61.0542   88.6439    7.8506 N.am    1  UNL1       -0.2769
     26 C          59.9505   88.7306    6.9351 C.2     1  UNL1        0.2839
     27 O          58.8366   88.2233    7.2364 O.2     1  UNL1       -0.2665
     28 H          61.8824   89.2580    7.6828 H       1  UNL1        0.1553
     29 C          60.1134   89.4452    5.6547 C.ar    1  UNL1        0.1946
     30 O          61.2893   89.6364    5.0837 O.2     1  UNL1       -0.4492
     31 C          61.0934   90.2974    3.9691 C.ar    1  UNL1        0.1452
     32 C          62.0546   90.7128    3.0543 C.ar    1  UNL1        0.0375
     33 C          61.6227   91.4164    1.9167 C.ar    1  UNL1        0.0031
     34 C          60.2440   91.6929    1.7110 C.ar    1  UNL1        0.0002
     35 C          59.2976   91.2515    2.6668 C.ar    1  UNL1        0.0028
     36 C          59.7617   90.5556    3.7841 C.ar    1  UNL1        0.0337
     37 C          59.1024   90.0103    4.8692 C.ar    1  UNL1        0.0202
     38 C          57.6286   90.0229    5.1435 C.3     1  UNL1        0.0345
     39 C          59.7996   92.4372    0.5053 C.ar    1  UNL1        0.0000
     40 C          60.7358   93.0939   -0.3160 C.ar    1  UNL1        0.0000
     41 C          60.3143   93.7949   -1.4501 C.ar    1  UNL1        0.0000
     42 C          58.9577   93.8479   -1.7775 C.ar    1  UNL1        0.0000
     43 C          58.0192   93.2004   -0.9711 C.ar    1  UNL1        0.0000
     44 C          58.4348   92.4988    0.1647 C.ar    1  UNL1        0.0000
     45 C          62.7530   89.3326   10.1412 C.3     1  UNL1        0.1889
     46 C          64.4271   90.0495   11.5521 C.3     1  UNL1        0.1747
     47 O          63.0640   89.6990   11.4701 O.3     1  UNL1       -0.3447
@<TRIPOS>BOND
     1    46    47    1
     2    47    45    1
     3    45     1    1
     4     1     2   ar
     5     2     3   ar
     6     3     7    1
     7     7     8    1
     8     8     9    1
     9     9    10    1
    10    10    13    1
    11    13    14    1
    12    14    15    1
    13    15    16   ar
    14    16    17   ar
    15    17    18   ar
    16    18    19   ar
    17    19    21    1
    18    21    22    2
    19    21    23    1
    20    19    20   ar
    21    10    11    1
    22    11    12    1
    23     3     4   ar
    24     4     5   ar
    25     5     6   ar
    26     6    25    1
    27    25    26   am
    28    26    27    2
    29    26    29    1
    30    29    30   ar
    31    30    31   ar
    32    31    32   ar
    33    32    33   ar
    34    33    34   ar
    35    34    39    1
    36    39    40   ar
    37    40    41   ar
    38    41    42   ar
    39    42    43   ar
    40    43    44   ar
    41    34    35   ar
    42    35    36   ar
    43    36    37   ar
    44    37    38    1
    45     6     1   ar
    46    37    29   ar
    47    12     7    1
    48    36    31   ar
    49    20    15   ar
    50    44    39   ar
    51    23    24    1
    52    25    28    1
@<TRIPOS>MOLECULE
*****
 47 52 0 0 0
SMALL
GASTEIGER

@<TRIPOS>ATOM
      1 C          61.2889   86.3623    9.0243 C.ar    1  UNL1        0.1036
      2 N          61.2812   85.6085   10.1586 N.ar    1  UNL1       -0.2313
      3 C          61.2382   86.1458   11.4091 C.ar    1  UNL1        0.1314
      4 C          61.1881   87.5429   11.5428 C.ar    1  UNL1        0.0356
      5 C          61.1828   88.3458   10.4031 C.ar    1  UNL1        0.0188
      6 C          61.2413   87.7686    9.1260 C.ar    1  UNL1        0.0669
      7 N          61.2492   85.2768   12.5658 N.pl3   1  UNL1       -0.2933
      8 C          62.4464   85.1766   13.4197 C.3     1  UNL1        0.0923
      9 C          62.3900   83.9482   14.3406 C.3     1  UNL1        0.0252
     10 C          61.8630   82.7299   13.5620 C.3     1  UNL1        0.0472
     11 C          60.4322   82.9791   13.0122 C.3     1  UNL1        0.0252
     12 C          60.0675   84.4695   12.9078 C.3     1  UNL1        0.0923
     13 C          61.9165   81.4637   14.4380 C.3     1  UNL1        0.2054
     14 O          62.2691   80.3168   13.6623 O.3     1  UNL1       -0.4755
     15 C          61.7245   79.9752   12.4133 C.ar    1  UNL1        0.1388
     16 C          62.4083   80.1855   11.2009 C.ar    1  UNL1        0.0369
     17 C          61.8148   79.8274    9.9889 C.ar    1  UNL1        0.0033
     18 C          60.5413   79.2549    9.9703 C.ar    1  UNL1        0.0066
     19 C          59.8454   79.0315   11.1709 C.ar    1  UNL1        0.0785
     20 C          60.4500   79.3948   12.3875 C.ar    1  UNL1        0.0433
     21 C          58.4963   78.4237   11.1592 C.2     1  UNL1        0.3381
     22 O          57.5131   79.0603   10.6922 O.2     1  UNL1       -0.2451
     23 O          58.2996   77.1412   11.6647 O.3     1  UNL1       -0.4771
     24 H          57.3801   76.7160   11.6614 H       1  UNL1        0.2954
     25 N          61.1931   88.5940    7.9478 N.am    1  UNL1       -0.2769
     26 C          60.0505   88.6673    7.0801 C.2     1  UNL1        0.2839
     27 O          58.9553   88.1504    7.4303 O.2     1  UNL1       -0.2665
     28 H          62.0074   89.2154    7.7429 H       1  UNL1        0.1553
     29 C          60.1515   89.3792    5.7919 C.ar    1  UNL1        0.1946
     30 O          61.3050   89.6292    5.1983 O.2     1  UNL1       -0.4492
     31 C          61.0538   90.2695    4.0827 C.ar    1  UNL1        0.1452
     32 C          61.9746   90.7290    3.1477 C.ar    1  UNL1        0.0375
     33 C          61.4850   91.3988    2.0131 C.ar    1  UNL1        0.0031
     34 C          60.0899   91.5985    1.8304 C.ar    1  UNL1        0.0002
     35 C          59.1859   91.1143    2.8065 C.ar    1  UNL1        0.0028
     36 C          59.7069   90.4537    3.9201 C.ar    1  UNL1        0.0337
     37 C          59.0975   89.8824    5.0209 C.ar    1  UNL1        0.0202
     38 C          57.6303   89.8172    5.3217 C.3     1  UNL1        0.0345
     39 C          59.5843   92.3078    0.6278 C.ar    1  UNL1        0.0000
     40 C          58.2601   92.1183    0.1888 C.ar    1  UNL1        0.0000
     41 C          57.7872   92.7867   -0.9447 C.ar    1  UNL1        0.0000
     42 C          58.6273   93.6503   -1.6509 C.ar    1  UNL1        0.0000
     43 C          59.9429   93.8471   -1.2254 C.ar    1  UNL1        0.0000
     44 C          60.4215   93.1805   -0.0933 C.ar    1  UNL1        0.0000
     45 C          61.3288   85.6751    7.6855 C.3     1  UNL1        0.1889
     46 C          59.2709   84.6585    7.8825 C.3     1  UNL1        0.1747
     47 O          60.6569   84.4339    7.7559 O.3     1  UNL1       -0.3447
@<TRIPOS>BOND
     1    46    47    1
     2    47    45    1
     3    45     1    1
     4     1     2   ar
     5     2     3   ar
     6     3     7    1
     7     7     8    1
     8     8     9    1
     9     9    10    1
    10    10    13    1
    11    13    14    1
    12    14    15    1
    13    15    16   ar
    14    16    17   ar
    15    17    18   ar
    16    18    19   ar
    17    19    21    1
    18    21    22    2
    19    21    23    1
    20    19    20   ar
    21    10    11    1
    22    11    12    1
    23     3     4   ar
    24     4     5   ar
    25     5     6   ar
    26     6    25    1
    27    25    26   am
    28    26    27    2
    29    26    29    1
    30    29    30   ar
    31    30    31   ar
    32    31    32   ar
    33    32    33   ar
    34    33    34   ar
    35    34    39    1
    36    39    40   ar
    37    40    41   ar
    38    41    42   ar
    39    42    43   ar
    40    43    44   ar
    41    34    35   ar
    42    35    36   ar
    43    36    37   ar
    44    37    38    1
    45     6     1   ar
    46    37    29   ar
    47    12     7    1
    48    36    31   ar
    49    20    15   ar
    50    44    39   ar
    51    23    24    1
    52    25    28    1
