@<TRIPOS>MOLECULE
*****
 49 54 0 0 0
SMALL
GASTEIGER

@<TRIPOS>ATOM
      1 O         -60.8599  -42.6163  -19.9216 O.2     1  UNL1       -0.2701
      2 C         -61.7961  -42.3649  -20.7291 C.2     1  UNL1        0.2483
      3 N         -62.8911  -41.5333  -20.3158 N.am    1  UNL1       -0.2945
      4 H         -63.5057  -41.1158  -21.0505 H       1  UNL1        0.1501
      5 C         -61.7332  -42.9055  -22.1049 C.ar    1  UNL1        0.0808
      6 C         -61.0309  -42.2022  -23.0964 C.ar    1  UNL1        0.0080
      7 C         -60.9655  -42.6911  -24.4036 C.ar    1  UNL1        0.0148
      8 C         -61.5956  -43.8991  -24.7470 C.ar    1  UNL1        0.0502
      9 C         -62.2795  -44.6143  -23.7483 C.ar    1  UNL1        0.0443
     10 C         -62.3467  -44.1272  -22.4396 C.ar    1  UNL1        0.1457
     11 F         -62.9636  -44.8804  -21.4951 F       1  UNL1       -0.2040
     12 N         -61.5239  -44.4064  -26.0974 N.pl3   1  UNL1       -0.3040
     13 C         -62.7563  -44.7666  -26.8182 C.3     1  UNL1        0.1122
     14 C         -62.6203  -44.4689  -28.3184 C.3     1  UNL1        0.1122
     15 N         -61.3193  -44.9041  -28.8481 N.pl3   1  UNL1       -0.3041
     16 C         -60.3517  -45.5545  -27.9574 C.3     1  UNL1        0.1122
     17 C         -60.2087  -44.7320  -26.6763 C.3     1  UNL1        0.1122
     18 C         -60.9722  -44.6048  -30.2131 C.ar    1  UNL1        0.0479
     19 C         -59.6955  -44.9178  -30.7060 C.ar    1  UNL1        0.0145
     20 C         -59.3523  -44.6161  -32.0268 C.ar    1  UNL1        0.0051
     21 C         -60.2856  -44.0098  -32.8848 C.ar    1  UNL1        0.0715
     22 C         -61.5522  -43.6683  -32.3807 C.ar    1  UNL1        0.0051
     23 C         -61.8943  -43.9693  -31.0592 C.ar    1  UNL1        0.0145
     24 C         -59.8993  -43.6394  -34.2946 C.3     1  UNL1        0.4186
     25 F         -59.0604  -42.5383  -34.2983 F       1  UNL1       -0.1659
     26 F         -59.2389  -44.6877  -34.9118 F       1  UNL1       -0.1659
     27 F         -61.0401  -43.3390  -35.0150 F       1  UNL1       -0.1659
     28 C         -63.0666  -41.1136  -18.9221 C.3     1  UNL1        0.1535
     29 C         -63.0207  -39.6120  -18.8324 C.2     1  UNL1        0.2443
     30 O         -62.9708  -39.0653  -17.6972 O.2     1  UNL1       -0.2730
     31 N         -62.9951  -38.8137  -20.0279 N.am    1  UNL1       -0.2825
     32 H         -62.7609  -39.2886  -20.9289 H       1  UNL1        0.1549
     33 C         -63.1647  -37.3864  -20.0470 C.ar    1  UNL1        0.0535
     34 C         -62.2404  -36.5440  -20.6880 C.ar    1  UNL1        0.0353
     35 C         -62.4333  -35.1605  -20.6576 C.ar    1  UNL1        0.1002
     36 N         -63.4999  -34.6340  -19.9998 N.ar    1  UNL1       -0.2422
     37 C         -64.3990  -35.4236  -19.3552 C.ar    1  UNL1        0.1002
     38 C         -64.2427  -36.8118  -19.3599 C.ar    1  UNL1        0.0353
     39 C         -64.3953  -41.6390  -18.3500 C.3     1  UNL1        0.0569
     40 C         -65.3149  -42.0986  -19.4453 C.ar    1  UNL1       -0.0017
     41 C         -65.6033  -43.4187  -19.7791 C.ar    1  UNL1        0.0681
     42 N         -66.3972  -43.4669  -20.8727 N.ar    1  UNL1       -0.3523
     43 C         -66.6054  -42.1900  -21.2377 C.ar    1  UNL1        0.0563
     44 C         -67.3440  -41.7340  -22.3288 C.ar    1  UNL1        0.0170
     45 C         -67.4133  -40.3454  -22.5422 C.ar    1  UNL1        0.0015
     46 C         -66.7497  -39.4535  -21.6712 C.ar    1  UNL1        0.0001
     47 C         -66.0105  -39.9417  -20.5785 C.ar    1  UNL1        0.0012
     48 C         -65.9597  -41.3243  -20.3916 C.ar    1  UNL1        0.0131
     49 H         -66.7584  -44.3251  -21.3453 H       1  UNL1        0.1660
@<TRIPOS>BOND
     1     1     2    2
     2     2     3   am
     3     3    28    1
     4    28    39    1
     5    39    40    1
     6    40    41   ar
     7    41    42   ar
     8    42    43   ar
     9    43    44   ar
    10    44    45   ar
    11    45    46   ar
    12    46    47   ar
    13    47    48   ar
    14    28    29    1
    15    29    30    2
    16    29    31   am
    17    31    33    1
    18    33    34   ar
    19    34    35   ar
    20    35    36   ar
    21    36    37   ar
    22    37    38   ar
    23     2     5    1
    24     5     6   ar
    25     6     7   ar
    26     7     8   ar
    27     8    12    1
    28    12    13    1
    29    13    14    1
    30    14    15    1
    31    15    18    1
    32    18    19   ar
    33    19    20   ar
    34    20    21   ar
    35    21    24    1
    36    24    25    1
    37    24    26    1
    38    24    27    1
    39    21    22   ar
    40    22    23   ar
    41    15    16    1
    42    16    17    1
    43     8     9   ar
    44     9    10   ar
    45    10    11    1
    46    48    40   ar
    47    38    33   ar
    48    10     5   ar
    49    48    43   ar
    50    17    12    1
    51    23    18   ar
    52     3     4    1
    53    42    49    1
    54    31    32    1
@<TRIPOS>MOLECULE
*****
 49 54 0 0 0
SMALL
GASTEIGER

@<TRIPOS>ATOM
      1 O         -61.3485  -45.1167  -27.9060 O.2     1  UNL1       -0.2701
      2 C         -62.3522  -44.3714  -27.7362 C.2     1  UNL1        0.2483
      3 N         -63.3433  -44.2624  -28.7692 N.am    1  UNL1       -0.2945
      4 H         -64.2806  -43.8720  -28.5225 H       1  UNL1        0.1501
      5 C         -62.5092  -43.6452  -26.4568 C.ar    1  UNL1        0.0808
      6 C         -61.9896  -44.1982  -25.2756 C.ar    1  UNL1        0.0080
      7 C         -62.1335  -43.5326  -24.0556 C.ar    1  UNL1        0.0148
      8 C         -62.7946  -42.2945  -23.9907 C.ar    1  UNL1        0.0502
      9 C         -63.2947  -41.7306  -25.1776 C.ar    1  UNL1        0.0443
     10 C         -63.1523  -42.3946  -26.3996 C.ar    1  UNL1        0.1457
     11 F         -63.5947  -41.7849  -27.5277 F       1  UNL1       -0.2040
     12 N         -62.9392  -41.6047  -22.7301 N.pl3   1  UNL1       -0.3040
     13 C         -61.7535  -41.3094  -21.9085 C.3     1  UNL1        0.1122
     14 C         -61.9225  -39.9788  -21.1613 C.3     1  UNL1        0.1122
     15 N         -63.2625  -39.8481  -20.5701 N.pl3   1  UNL1       -0.3041
     16 C         -64.2349  -40.9361  -20.7235 C.3     1  UNL1        0.1122
     17 C         -64.2891  -41.3649  -22.1903 C.3     1  UNL1        0.1122
     18 C         -63.6375  -38.6162  -19.9257 C.ar    1  UNL1        0.0479
     19 C         -64.7027  -38.5887  -19.0117 C.ar    1  UNL1        0.0145
     20 C         -65.0767  -37.3914  -18.3953 C.ar    1  UNL1        0.0051
     21 C         -64.3815  -36.2013  -18.6694 C.ar    1  UNL1        0.0715
     22 C         -63.3361  -36.2245  -19.6085 C.ar    1  UNL1        0.0051
     23 C         -62.9635  -37.4221  -20.2255 C.ar    1  UNL1        0.0145
     24 C         -64.8163  -34.9007  -18.0424 C.3     1  UNL1        0.4186
     25 F         -65.1364  -35.0842  -16.7082 F       1  UNL1       -0.1659
     26 F         -63.8045  -33.9592  -18.1184 F       1  UNL1       -0.1659
     27 F         -65.9278  -34.4225  -18.7107 F       1  UNL1       -0.1659
     28 C         -63.1435  -44.8376  -30.1030 C.3     1  UNL1        0.1535
     29 C         -64.0206  -46.0488  -30.2724 C.2     1  UNL1        0.2443
     30 O         -63.9293  -46.9944  -29.4433 O.2     1  UNL1       -0.2730
     31 N         -64.9771  -46.1084  -31.3442 N.am    1  UNL1       -0.2825
     32 H         -65.2194  -45.2178  -31.8344 H       1  UNL1        0.1549
     33 C         -65.7008  -47.2945  -31.7126 C.ar    1  UNL1        0.0535
     34 C         -66.2001  -47.4777  -33.0133 C.ar    1  UNL1        0.0353
     35 C         -66.9204  -48.6356  -33.3177 C.ar    1  UNL1        0.1002
     36 N         -67.1483  -49.5703  -32.3575 N.ar    1  UNL1       -0.2422
     37 C         -66.6936  -49.4104  -31.0866 C.ar    1  UNL1        0.1002
     38 C         -65.9703  -48.2668  -30.7397 C.ar    1  UNL1        0.0353
     39 C         -63.4484  -43.8038  -31.2018 C.3     1  UNL1        0.0569
     40 C         -62.2920  -43.6608  -32.1498 C.ar    1  UNL1       -0.0017
     41 C         -62.3604  -43.2436  -33.4758 C.ar    1  UNL1        0.0681
     42 N         -61.1425  -43.3192  -34.0584 N.ar    1  UNL1       -0.3523
     43 C         -60.3075  -43.7887  -33.1153 C.ar    1  UNL1        0.0563
     44 C         -58.9469  -44.0602  -33.2523 C.ar    1  UNL1        0.0170
     45 C         -58.2626  -44.5729  -32.1354 C.ar    1  UNL1        0.0015
     46 C         -58.9457  -44.8014  -30.9206 C.ar    1  UNL1        0.0001
     47 C         -60.3194  -44.5194  -30.8111 C.ar    1  UNL1        0.0012
     48 C         -60.9720  -44.0113  -31.9358 C.ar    1  UNL1        0.0131
     49 H         -60.9064  -43.0777  -35.0465 H       1  UNL1        0.1660
@<TRIPOS>BOND
     1     1     2    2
     2     2     3   am
     3     3    28    1
     4    28    39    1
     5    39    40    1
     6    40    41   ar
     7    41    42   ar
     8    42    43   ar
     9    43    44   ar
    10    44    45   ar
    11    45    46   ar
    12    46    47   ar
    13    47    48   ar
    14    28    29    1
    15    29    30    2
    16    29    31   am
    17    31    33    1
    18    33    34   ar
    19    34    35   ar
    20    35    36   ar
    21    36    37   ar
    22    37    38   ar
    23     2     5    1
    24     5     6   ar
    25     6     7   ar
    26     7     8   ar
    27     8    12    1
    28    12    13    1
    29    13    14    1
    30    14    15    1
    31    15    18    1
    32    18    19   ar
    33    19    20   ar
    34    20    21   ar
    35    21    24    1
    36    24    25    1
    37    24    26    1
    38    24    27    1
    39    21    22   ar
    40    22    23   ar
    41    15    16    1
    42    16    17    1
    43     8     9   ar
    44     9    10   ar
    45    10    11    1
    46    48    40   ar
    47    38    33   ar
    48    10     5   ar
    49    48    43   ar
    50    17    12    1
    51    23    18   ar
    52     3     4    1
    53    42    49    1
    54    31    32    1
@<TRIPOS>MOLECULE
*****
 49 54 0 0 0
SMALL
GASTEIGER

@<TRIPOS>ATOM
      1 O         -61.1183  -42.1587  -19.5287 O.2     1  UNL1       -0.2701
      2 C         -61.9803  -41.8239  -20.3868 C.2     1  UNL1        0.2483
      3 N         -63.0104  -40.8874  -20.0360 N.am    1  UNL1       -0.2945
      4 H         -63.5408  -40.4178  -20.8042 H       1  UNL1        0.1501
      5 C         -61.8955  -42.3783  -21.7560 C.ar    1  UNL1        0.0808
      6 C         -63.0443  -42.4176  -22.5621 C.ar    1  UNL1        0.0080
      7 C         -62.9878  -42.9439  -23.8551 C.ar    1  UNL1        0.0148
      8 C         -61.7785  -43.4365  -24.3739 C.ar    1  UNL1        0.0502
      9 C         -60.6236  -43.3759  -23.5743 C.ar    1  UNL1        0.0443
     10 C         -60.6774  -42.8500  -22.2801 C.ar    1  UNL1        0.1457
     11 F         -59.5271  -42.7540  -21.5676 F       1  UNL1       -0.2040
     12 N         -61.7196  -43.9763  -25.7123 N.pl3   1  UNL1       -0.3040
     13 C         -62.9607  -44.2256  -26.4642 C.3     1  UNL1        0.1122
     14 C         -62.7519  -43.9742  -27.9645 C.3     1  UNL1        0.1122
     15 N         -61.4869  -44.5489  -28.4461 N.pl3   1  UNL1       -0.3041
     16 C         -60.6161  -45.2747  -27.5147 C.3     1  UNL1        0.1122
     17 C         -60.4278  -44.4444  -26.2445 C.3     1  UNL1        0.1122
     18 C         -61.0721  -44.3144  -29.8048 C.ar    1  UNL1        0.0479
     19 C         -61.9213  -43.6461  -30.7011 C.ar    1  UNL1        0.0145
     20 C         -61.5260  -43.4292  -32.0239 C.ar    1  UNL1        0.0051
     21 C         -60.2663  -43.8627  -32.4714 C.ar    1  UNL1        0.0715
     22 C         -59.4307  -44.5595  -31.5818 C.ar    1  UNL1        0.0051
     23 C         -59.8273  -44.7771  -30.2592 C.ar    1  UNL1        0.0145
     24 C         -59.8600  -43.6728  -33.9110 C.3     1  UNL1        0.4186
     25 F         -60.9736  -43.4980  -34.7143 F       1  UNL1       -0.1659
     26 F         -59.0498  -42.5587  -34.0473 F       1  UNL1       -0.1659
     27 F         -59.1664  -44.7892  -34.3392 F       1  UNL1       -0.1659
     28 C         -63.2200  -40.4423  -18.6549 C.3     1  UNL1        0.1535
     29 C         -63.4513  -38.9554  -18.6281 C.2     1  UNL1        0.2443
     30 O         -62.7777  -38.2429  -17.8353 O.2     1  UNL1       -0.2730
     31 N         -64.4012  -38.3522  -19.5231 N.am    1  UNL1       -0.2825
     32 H         -64.7314  -38.9156  -20.3390 H       1  UNL1        0.1549
     33 C         -64.8428  -36.9875  -19.4283 C.ar    1  UNL1        0.0535
     34 C         -64.0071  -35.9770  -18.9229 C.ar    1  UNL1        0.0353
     35 C         -64.4893  -34.6693  -18.8254 C.ar    1  UNL1        0.1002
     36 N         -65.7627  -34.3811  -19.2032 N.ar    1  UNL1       -0.2422
     37 C         -66.5990  -35.3419  -19.6775 C.ar    1  UNL1        0.1002
     38 C         -66.1572  -36.6623  -19.7900 C.ar    1  UNL1        0.0353
     39 C         -64.4106  -41.1762  -18.0125 C.3     1  UNL1        0.0569
     40 C         -65.1537  -41.9984  -19.0266 C.ar    1  UNL1       -0.0017
     41 C         -65.1931  -43.3881  -19.0914 C.ar    1  UNL1        0.0681
     42 N         -65.8808  -43.7909  -20.1838 N.ar    1  UNL1       -0.3523
     43 C         -66.2682  -42.6686  -20.8142 C.ar    1  UNL1        0.0563
     44 C         -66.9850  -42.5750  -22.0064 C.ar    1  UNL1        0.0170
     45 C         -67.2661  -41.2904  -22.5058 C.ar    1  UNL1        0.0015
     46 C         -66.8287  -40.1411  -21.8113 C.ar    1  UNL1        0.0001
     47 C         -66.1061  -40.2653  -20.6109 C.ar    1  UNL1        0.0012
     48 C         -65.8422  -41.5526  -20.1395 C.ar    1  UNL1        0.0131
     49 H         -66.0574  -44.7756  -20.4831 H       1  UNL1        0.1660
@<TRIPOS>BOND
     1     1     2    2
     2     2     3   am
     3     3    28    1
     4    28    39    1
     5    39    40    1
     6    40    41   ar
     7    41    42   ar
     8    42    43   ar
     9    43    44   ar
    10    44    45   ar
    11    45    46   ar
    12    46    47   ar
    13    47    48   ar
    14    28    29    1
    15    29    30    2
    16    29    31   am
    17    31    33    1
    18    33    34   ar
    19    34    35   ar
    20    35    36   ar
    21    36    37   ar
    22    37    38   ar
    23     2     5    1
    24     5     6   ar
    25     6     7   ar
    26     7     8   ar
    27     8    12    1
    28    12    13    1
    29    13    14    1
    30    14    15    1
    31    15    18    1
    32    18    19   ar
    33    19    20   ar
    34    20    21   ar
    35    21    24    1
    36    24    25    1
    37    24    26    1
    38    24    27    1
    39    21    22   ar
    40    22    23   ar
    41    15    16    1
    42    16    17    1
    43     8     9   ar
    44     9    10   ar
    45    10    11    1
    46    48    40   ar
    47    38    33   ar
    48    10     5   ar
    49    48    43   ar
    50    17    12    1
    51    23    18   ar
    52     3     4    1
    53    42    49    1
    54    31    32    1
@<TRIPOS>MOLECULE
*****
 49 54 0 0 0
SMALL
GASTEIGER

@<TRIPOS>ATOM
      1 O         -63.0414  -54.6981  -22.3117 O.2     1  UNL1       -0.2701
      2 C         -63.9910  -53.9428  -22.6572 C.2     1  UNL1        0.2483
      3 N         -65.3460  -54.3258  -22.3767 N.am    1  UNL1       -0.2945
      4 H         -66.0902  -53.5934  -22.4164 H       1  UNL1        0.1501
      5 C         -63.6901  -52.6539  -23.3185 C.ar    1  UNL1        0.0808
      6 C         -64.5374  -52.1785  -24.3320 C.ar    1  UNL1        0.0080
      7 C         -64.2674  -50.9676  -24.9746 C.ar    1  UNL1        0.0148
      8 C         -63.1470  -50.2009  -24.6126 C.ar    1  UNL1        0.0502
      9 C         -62.3117  -50.6666  -23.5820 C.ar    1  UNL1        0.0443
     10 C         -62.5794  -51.8780  -22.9376 C.ar    1  UNL1        0.1457
     11 F         -61.7828  -52.2578  -21.9074 F       1  UNL1       -0.2040
     12 N         -62.8707  -48.9470  -25.2740 N.pl3   1  UNL1       -0.3040
     13 C         -61.8946  -48.0068  -24.6984 C.3     1  UNL1        0.1122
     14 C         -61.1421  -47.2532  -25.8045 C.3     1  UNL1        0.1122
     15 N         -62.0471  -46.7944  -26.8689 N.pl3   1  UNL1       -0.3041
     16 C         -63.4856  -47.0648  -26.7678 C.3     1  UNL1        0.1122
     17 C         -63.7017  -48.5381  -26.4200 C.3     1  UNL1        0.1122
     18 C         -61.5009  -46.1654  -28.0434 C.ar    1  UNL1        0.0479
     19 C         -60.1147  -46.1591  -28.2657 C.ar    1  UNL1        0.0145
     20 C         -59.5815  -45.5376  -29.3982 C.ar    1  UNL1        0.0051
     21 C         -60.4265  -44.9243  -30.3388 C.ar    1  UNL1        0.0715
     22 C         -61.8111  -44.9038  -30.0986 C.ar    1  UNL1        0.0051
     23 C         -62.3435  -45.5246  -28.9649 C.ar    1  UNL1        0.0145
     24 C         -59.8482  -44.2111  -31.5349 C.3     1  UNL1        0.4186
     25 F         -60.1095  -44.9154  -32.6975 F       1  UNL1       -0.1659
     26 F         -60.3975  -42.9470  -31.6628 F       1  UNL1       -0.1659
     27 F         -58.4799  -44.0938  -31.3771 F       1  UNL1       -0.1659
     28 C         -65.6890  -55.6583  -21.8702 C.3     1  UNL1        0.1535
     29 C         -66.7229  -55.5398  -20.7830 C.2     1  UNL1        0.2443
     30 O         -66.7660  -56.4164  -19.8777 O.2     1  UNL1       -0.2730
     31 N         -67.6240  -54.4198  -20.7572 N.am    1  UNL1       -0.2825
     32 H         -67.3881  -53.5877  -21.3438 H       1  UNL1        0.1549
     33 C         -68.7702  -54.3282  -19.8945 C.ar    1  UNL1        0.0535
     34 C         -68.7718  -54.8978  -18.6098 C.ar    1  UNL1        0.0353
     35 C         -69.9188  -54.8060  -17.8172 C.ar    1  UNL1        0.1002
     36 N         -71.0292  -54.1826  -18.2926 N.ar    1  UNL1       -0.2422
     37 C         -71.0623  -53.6395  -19.5381 C.ar    1  UNL1        0.1002
     38 C         -69.9376  -53.7104  -20.3636 C.ar    1  UNL1        0.0353
     39 C         -66.2100  -56.5622  -23.0018 C.3     1  UNL1        0.0569
     40 C         -67.2900  -55.8779  -23.7905 C.ar    1  UNL1       -0.0017
     41 C         -67.1031  -54.9414  -24.8030 C.ar    1  UNL1        0.0681
     42 N         -68.2939  -54.4652  -25.2319 N.ar    1  UNL1       -0.3523
     43 C         -69.2303  -55.0857  -24.4935 C.ar    1  UNL1        0.0563
     44 C         -70.6110  -54.9024  -24.5545 C.ar    1  UNL1        0.0170
     45 C         -71.4128  -55.6429  -23.6671 C.ar    1  UNL1        0.0015
     46 C         -70.8236  -56.5390  -22.7482 C.ar    1  UNL1        0.0001
     47 C         -69.4271  -56.7032  -22.7079 C.ar    1  UNL1        0.0012
     48 C         -68.6571  -55.9553  -23.6005 C.ar    1  UNL1        0.0131
     49 H         -68.4491  -53.7476  -25.9743 H       1  UNL1        0.1660
@<TRIPOS>BOND
     1     1     2    2
     2     2     3   am
     3     3    28    1
     4    28    39    1
     5    39    40    1
     6    40    41   ar
     7    41    42   ar
     8    42    43   ar
     9    43    44   ar
    10    44    45   ar
    11    45    46   ar
    12    46    47   ar
    13    47    48   ar
    14    28    29    1
    15    29    30    2
    16    29    31   am
    17    31    33    1
    18    33    34   ar
    19    34    35   ar
    20    35    36   ar
    21    36    37   ar
    22    37    38   ar
    23     2     5    1
    24     5     6   ar
    25     6     7   ar
    26     7     8   ar
    27     8    12    1
    28    12    13    1
    29    13    14    1
    30    14    15    1
    31    15    18    1
    32    18    19   ar
    33    19    20   ar
    34    20    21   ar
    35    21    24    1
    36    24    25    1
    37    24    26    1
    38    24    27    1
    39    21    22   ar
    40    22    23   ar
    41    15    16    1
    42    16    17    1
    43     8     9   ar
    44     9    10   ar
    45    10    11    1
    46    48    40   ar
    47    38    33   ar
    48    10     5   ar
    49    48    43   ar
    50    17    12    1
    51    23    18   ar
    52     3     4    1
    53    42    49    1
    54    31    32    1
@<TRIPOS>MOLECULE
*****
 49 54 0 0 0
SMALL
GASTEIGER

@<TRIPOS>ATOM
      1 O         -62.9606  -54.5855  -22.4797 O.2     1  UNL1       -0.2701
      2 C         -63.9077  -53.7955  -22.7454 C.2     1  UNL1        0.2483
      3 N         -65.2552  -54.1570  -22.4064 N.am    1  UNL1       -0.2945
      4 H         -65.9815  -53.4063  -22.3789 H       1  UNL1        0.1501
      5 C         -63.6095  -52.4898  -23.3740 C.ar    1  UNL1        0.0808
      6 C         -64.4641  -51.9855  -24.3673 C.ar    1  UNL1        0.0080
      7 C         -64.1968  -50.7582  -24.9791 C.ar    1  UNL1        0.0148
      8 C         -63.0719  -50.0037  -24.6059 C.ar    1  UNL1        0.0502
      9 C         -62.2291  -50.4986  -23.5952 C.ar    1  UNL1        0.0443
     10 C         -62.4941  -51.7265  -22.9815 C.ar    1  UNL1        0.1457
     11 F         -61.6899  -52.1356  -21.9686 F       1  UNL1       -0.2040
     12 N         -62.7984  -48.7329  -25.2354 N.pl3   1  UNL1       -0.3040
     13 C         -61.8218  -48.6470  -26.3340 C.3     1  UNL1        0.1122
     14 C         -62.2401  -47.5806  -27.3565 C.3     1  UNL1        0.1122
     15 N         -62.7046  -46.3474  -26.7039 N.pl3   1  UNL1       -0.3041
     16 C         -62.7043  -46.2544  -25.2397 C.3     1  UNL1        0.1122
     17 C         -63.3623  -47.5031  -24.6517 C.3     1  UNL1        0.1122
     18 C         -63.2413  -45.2785  -27.5056 C.ar    1  UNL1        0.0479
     19 C         -62.8895  -43.9458  -27.2393 C.ar    1  UNL1        0.0145
     20 C         -63.4196  -42.9058  -28.0078 C.ar    1  UNL1        0.0051
     21 C         -64.2998  -43.1806  -29.0683 C.ar    1  UNL1        0.0715
     22 C         -64.6757  -44.5124  -29.3132 C.ar    1  UNL1        0.0051
     23 C         -64.1460  -45.5519  -28.5433 C.ar    1  UNL1        0.0145
     24 C         -64.9102  -42.0556  -29.8656 C.3     1  UNL1        0.4186
     25 F         -64.0244  -41.6013  -30.8273 F       1  UNL1       -0.1659
     26 F         -66.0625  -42.4791  -30.5052 F       1  UNL1       -0.1659
     27 F         -65.2247  -41.0130  -29.0143 F       1  UNL1       -0.1659
     28 C         -65.6047  -55.4994  -21.9315 C.3     1  UNL1        0.1535
     29 C         -66.6383  -55.4015  -20.8421 C.2     1  UNL1        0.2443
     30 O         -66.6350  -56.2544  -19.9133 O.2     1  UNL1       -0.2730
     31 N         -67.5925  -54.3260  -20.8410 N.am    1  UNL1       -0.2825
     32 H         -67.3997  -53.4997  -21.4511 H       1  UNL1        0.1549
     33 C         -68.7380  -54.2666  -19.9746 C.ar    1  UNL1        0.0535
     34 C         -68.7233  -54.8462  -18.6945 C.ar    1  UNL1        0.0353
     35 C         -69.8698  -54.7859  -17.8981 C.ar    1  UNL1        0.1002
     36 N         -70.9951  -54.1836  -18.3656 N.ar    1  UNL1       -0.2422
     37 C         -71.0437  -53.6317  -19.6067 C.ar    1  UNL1        0.1002
     38 C         -69.9200  -53.6712  -20.4357 C.ar    1  UNL1        0.0353
     39 C         -66.1297  -56.3738  -23.0842 C.3     1  UNL1        0.0569
     40 C         -67.3390  -55.7569  -23.7273 C.ar    1  UNL1       -0.0017
     41 C         -67.3383  -54.7393  -24.6768 C.ar    1  UNL1        0.0681
     42 N         -68.6044  -54.3650  -24.9693 N.ar    1  UNL1       -0.3523
     43 C         -69.4041  -55.1305  -24.2067 C.ar    1  UNL1        0.0563
     44 C         -70.7962  -55.0920  -24.1405 C.ar    1  UNL1        0.0170
     45 C         -71.4371  -55.9724  -23.2501 C.ar    1  UNL1        0.0015
     46 C         -70.6811  -56.8607  -22.4539 C.ar    1  UNL1        0.0001
     47 C         -69.2773  -56.8771  -22.5404 C.ar    1  UNL1        0.0012
     48 C         -68.6690  -55.9925  -23.4329 C.ar    1  UNL1        0.0131
     49 H         -68.8965  -53.6193  -25.6393 H       1  UNL1        0.1660
@<TRIPOS>BOND
     1     1     2    2
     2     2     3   am
     3     3    28    1
     4    28    39    1
     5    39    40    1
     6    40    41   ar
     7    41    42   ar
     8    42    43   ar
     9    43    44   ar
    10    44    45   ar
    11    45    46   ar
    12    46    47   ar
    13    47    48   ar
    14    28    29    1
    15    29    30    2
    16    29    31   am
    17    31    33    1
    18    33    34   ar
    19    34    35   ar
    20    35    36   ar
    21    36    37   ar
    22    37    38   ar
    23     2     5    1
    24     5     6   ar
    25     6     7   ar
    26     7     8   ar
    27     8    12    1
    28    12    13    1
    29    13    14    1
    30    14    15    1
    31    15    18    1
    32    18    19   ar
    33    19    20   ar
    34    20    21   ar
    35    21    24    1
    36    24    25    1
    37    24    26    1
    38    24    27    1
    39    21    22   ar
    40    22    23   ar
    41    15    16    1
    42    16    17    1
    43     8     9   ar
    44     9    10   ar
    45    10    11    1
    46    48    40   ar
    47    38    33   ar
    48    10     5   ar
    49    48    43   ar
    50    17    12    1
    51    23    18   ar
    52     3     4    1
    53    42    49    1
    54    31    32    1
@<TRIPOS>MOLECULE
*****
 49 54 0 0 0
SMALL
GASTEIGER

@<TRIPOS>ATOM
      1 O         -60.4424  -41.7680  -21.6063 O.2     1  UNL1       -0.2701
      2 C         -61.5089  -41.4888  -22.2195 C.2     1  UNL1        0.2483
      3 N         -62.4380  -40.5556  -21.6473 N.am    1  UNL1       -0.2945
      4 H         -63.1651  -40.1318  -22.2666 H       1  UNL1        0.1501
      5 C         -61.7702  -42.1044  -23.5393 C.ar    1  UNL1        0.0808
      6 C         -60.7982  -42.9310  -24.1251 C.ar    1  UNL1        0.0080
      7 C         -61.0215  -43.5161  -25.3740 C.ar    1  UNL1        0.0148
      8 C         -62.2259  -43.2932  -26.0624 C.ar    1  UNL1        0.0502
      9 C         -63.2080  -42.4837  -25.4649 C.ar    1  UNL1        0.0443
     10 C         -62.9870  -41.8968  -24.2154 C.ar    1  UNL1        0.1457
     11 F         -63.9859  -41.1746  -23.6491 F       1  UNL1       -0.2040
     12 N         -62.4582  -43.9019  -27.3514 N.pl3   1  UNL1       -0.3040
     13 C         -61.5970  -45.0024  -27.8154 C.3     1  UNL1        0.1122
     14 C         -62.3967  -46.0050  -28.6598 C.3     1  UNL1        0.1122
     15 N         -63.2857  -45.3297  -29.6169 N.pl3   1  UNL1       -0.3041
     16 C         -63.3060  -43.8641  -29.6820 C.3     1  UNL1        0.1122
     17 C         -63.4386  -43.2952  -28.2689 C.3     1  UNL1        0.1122
     18 C         -64.1938  -46.1110  -30.4159 C.ar    1  UNL1        0.0479
     19 C         -64.4694  -47.4453  -30.0772 C.ar    1  UNL1        0.0145
     20 C         -65.3402  -48.2093  -30.8589 C.ar    1  UNL1        0.0051
     21 C         -65.9647  -47.6481  -31.9858 C.ar    1  UNL1        0.0715
     22 C         -65.6631  -46.3223  -32.3415 C.ar    1  UNL1        0.0051
     23 C         -64.7910  -45.5592  -31.5598 C.ar    1  UNL1        0.0145
     24 C         -66.8653  -48.4867  -32.8572 C.3     1  UNL1        0.4186
     25 F         -67.1359  -49.7025  -32.2534 F       1  UNL1       -0.1659
     26 F         -68.0678  -47.8394  -33.0832 F       1  UNL1       -0.1659
     27 F         -66.2417  -48.7148  -34.0696 F       1  UNL1       -0.1659
     28 C         -62.2906  -40.0508  -20.2787 C.3     1  UNL1        0.1535
     29 C         -62.7587  -38.6222  -20.2092 C.2     1  UNL1        0.2443
     30 O         -62.2018  -37.7569  -20.9380 O.2     1  UNL1       -0.2730
     31 N         -63.8529  -38.2577  -19.3507 N.am    1  UNL1       -0.2825
     32 H         -64.4604  -39.0229  -18.9799 H       1  UNL1        0.1549
     33 C         -64.2292  -36.9017  -19.0575 C.ar    1  UNL1        0.0535
     34 C         -63.3979  -36.0532  -18.3065 C.ar    1  UNL1        0.0353
     35 C         -63.8178  -34.7508  -18.0244 C.ar    1  UNL1        0.1002
     36 N         -65.0285  -34.3140  -18.4614 N.ar    1  UNL1       -0.2422
     37 C         -65.8609  -35.1188  -19.1733 C.ar    1  UNL1        0.1002
     38 C         -65.4802  -36.4283  -19.4760 C.ar    1  UNL1        0.0353
     39 C         -63.0811  -40.9173  -19.2821 C.3     1  UNL1        0.0569
     40 C         -64.1757  -41.6794  -19.9733 C.ar    1  UNL1       -0.0017
     41 C         -64.2381  -43.0593  -20.1434 C.ar    1  UNL1        0.0681
     42 N         -65.3144  -43.3952  -20.8900 N.ar    1  UNL1       -0.3523
     43 C         -65.9271  -42.2395  -21.2003 C.ar    1  UNL1        0.0563
     44 C         -67.0711  -42.0738  -21.9798 C.ar    1  UNL1        0.0170
     45 C         -67.5330  -40.7635  -22.1999 C.ar    1  UNL1        0.0015
     46 C         -66.8486  -39.6606  -21.6435 C.ar    1  UNL1        0.0001
     47 C         -65.6959  -39.8572  -20.8617 C.ar    1  UNL1        0.0012
     48 C         -65.2612  -41.1686  -20.6601 C.ar    1  UNL1        0.0131
     49 H         -65.5985  -44.3574  -21.1795 H       1  UNL1        0.1660
@<TRIPOS>BOND
     1     1     2    2
     2     2     3   am
     3     3    28    1
     4    28    39    1
     5    39    40    1
     6    40    41   ar
     7    41    42   ar
     8    42    43   ar
     9    43    44   ar
    10    44    45   ar
    11    45    46   ar
    12    46    47   ar
    13    47    48   ar
    14    28    29    1
    15    29    30    2
    16    29    31   am
    17    31    33    1
    18    33    34   ar
    19    34    35   ar
    20    35    36   ar
    21    36    37   ar
    22    37    38   ar
    23     2     5    1
    24     5     6   ar
    25     6     7   ar
    26     7     8   ar
    27     8    12    1
    28    12    13    1
    29    13    14    1
    30    14    15    1
    31    15    18    1
    32    18    19   ar
    33    19    20   ar
    34    20    21   ar
    35    21    24    1
    36    24    25    1
    37    24    26    1
    38    24    27    1
    39    21    22   ar
    40    22    23   ar
    41    15    16    1
    42    16    17    1
    43     8     9   ar
    44     9    10   ar
    45    10    11    1
    46    48    40   ar
    47    38    33   ar
    48    10     5   ar
    49    48    43   ar
    50    17    12    1
    51    23    18   ar
    52     3     4    1
    53    42    49    1
    54    31    32    1
@<TRIPOS>MOLECULE
*****
 49 54 0 0 0
SMALL
GASTEIGER

@<TRIPOS>ATOM
      1 O         -61.2782  -45.0062  -27.4402 O.2     1  UNL1       -0.2701
      2 C         -62.4034  -44.8312  -26.8970 C.2     1  UNL1        0.2483
      3 N         -63.5605  -45.5011  -27.4202 N.am    1  UNL1       -0.2945
      4 H         -64.4128  -45.5679  -26.8195 H       1  UNL1        0.1501
      5 C         -62.5067  -43.9616  -25.7045 C.ar    1  UNL1        0.0808
      6 C         -62.0429  -44.4263  -24.4634 C.ar    1  UNL1        0.0080
      7 C         -62.1379  -43.6242  -23.3234 C.ar    1  UNL1        0.0148
      8 C         -62.6928  -42.3357  -23.4004 C.ar    1  UNL1        0.0502
      9 C         -63.1363  -41.8625  -24.6478 C.ar    1  UNL1        0.0443
     10 C         -63.0427  -42.6631  -25.7901 C.ar    1  UNL1        0.1457
     11 F         -63.4251  -42.1431  -26.9831 F       1  UNL1       -0.2040
     12 N         -62.7867  -41.5052  -22.2224 N.pl3   1  UNL1       -0.3040
     13 C         -61.5760  -40.8913  -21.6522 C.3     1  UNL1        0.1122
     14 C         -61.8922  -39.5159  -21.0473 C.3     1  UNL1        0.1122
     15 N         -63.1330  -39.5360  -20.2583 N.pl3   1  UNL1       -0.3041
     16 C         -63.8861  -40.7873  -20.1182 C.3     1  UNL1        0.1122
     17 C         -64.0656  -41.4283  -21.4948 C.3     1  UNL1        0.1122
     18 C         -63.6446  -38.3077  -19.7080 C.ar    1  UNL1        0.0479
     19 C         -64.7786  -38.3185  -18.8805 C.ar    1  UNL1        0.0145
     20 C         -65.2846  -37.1259  -18.3562 C.ar    1  UNL1        0.0051
     21 C         -64.6559  -35.9008  -18.6367 C.ar    1  UNL1        0.0715
     22 C         -63.5400  -35.8882  -19.4909 C.ar    1  UNL1        0.0051
     23 C         -63.0353  -37.0813  -20.0159 C.ar    1  UNL1        0.0145
     24 C         -65.2306  -34.6093  -18.1117 C.3     1  UNL1        0.4186
     25 F         -64.3706  -33.5540  -18.3624 F       1  UNL1       -0.1659
     26 F         -66.4434  -34.3317  -18.7184 F       1  UNL1       -0.1659
     27 F         -65.4239  -34.7186  -16.7474 F       1  UNL1       -0.1659
     28 C         -63.5262  -46.2388  -28.6868 C.3     1  UNL1        0.1535
     29 C         -63.0324  -45.3391  -29.7875 C.2     1  UNL1        0.2443
     30 O         -63.8670  -44.6720  -30.4570 O.2     1  UNL1       -0.2730
     31 N         -61.6235  -45.2136  -30.0454 N.am    1  UNL1       -0.2825
     32 H         -60.9594  -45.5527  -29.3131 H       1  UNL1        0.1549
     33 C         -61.0713  -44.5543  -31.1972 C.ar    1  UNL1        0.0535
     34 C         -61.8710  -43.7826  -32.0574 C.ar    1  UNL1        0.0353
     35 C         -61.2947  -43.1819  -33.1795 C.ar    1  UNL1        0.1002
     36 N         -59.9728  -43.3556  -33.4438 N.ar    1  UNL1       -0.2422
     37 C         -59.1797  -44.1121  -32.6398 C.ar    1  UNL1        0.1002
     38 C         -59.7162  -44.7313  -31.5084 C.ar    1  UNL1        0.0353
     39 C         -62.6287  -47.4843  -28.5766 C.3     1  UNL1        0.0569
     40 C         -62.9727  -48.2964  -27.3606 C.ar    1  UNL1       -0.0017
     41 C         -64.1110  -49.0783  -27.1871 C.ar    1  UNL1        0.0681
     42 N         -64.1422  -49.5968  -25.9385 N.ar    1  UNL1       -0.3523
     43 C         -63.0390  -49.1423  -25.3193 C.ar    1  UNL1        0.0563
     44 C         -62.6484  -49.3875  -24.0036 C.ar    1  UNL1        0.0170
     45 C         -61.4598  -48.7889  -23.5478 C.ar    1  UNL1        0.0015
     46 C         -60.6974  -47.9671  -24.4069 C.ar    1  UNL1        0.0001
     47 C         -61.1161  -47.7360  -25.7297 C.ar    1  UNL1        0.0012
     48 C         -62.2994  -48.3434  -26.1541 C.ar    1  UNL1        0.0131
     49 H         -64.8843  -50.2110  -25.5354 H       1  UNL1        0.1660
@<TRIPOS>BOND
     1     1     2    2
     2     2     3   am
     3     3    28    1
     4    28    39    1
     5    39    40    1
     6    40    41   ar
     7    41    42   ar
     8    42    43   ar
     9    43    44   ar
    10    44    45   ar
    11    45    46   ar
    12    46    47   ar
    13    47    48   ar
    14    28    29    1
    15    29    30    2
    16    29    31   am
    17    31    33    1
    18    33    34   ar
    19    34    35   ar
    20    35    36   ar
    21    36    37   ar
    22    37    38   ar
    23     2     5    1
    24     5     6   ar
    25     6     7   ar
    26     7     8   ar
    27     8    12    1
    28    12    13    1
    29    13    14    1
    30    14    15    1
    31    15    18    1
    32    18    19   ar
    33    19    20   ar
    34    20    21   ar
    35    21    24    1
    36    24    25    1
    37    24    26    1
    38    24    27    1
    39    21    22   ar
    40    22    23   ar
    41    15    16    1
    42    16    17    1
    43     8     9   ar
    44     9    10   ar
    45    10    11    1
    46    48    40   ar
    47    38    33   ar
    48    10     5   ar
    49    48    43   ar
    50    17    12    1
    51    23    18   ar
    52     3     4    1
    53    42    49    1
    54    31    32    1
@<TRIPOS>MOLECULE
*****
 49 54 0 0 0
SMALL
GASTEIGER

@<TRIPOS>ATOM
      1 O         -61.1223  -45.8284  -26.6473 O.2     1  UNL1       -0.2701
      2 C         -62.2507  -45.4091  -26.2699 C.2     1  UNL1        0.2483
      3 N         -63.4417  -45.8876  -26.9132 N.am    1  UNL1       -0.2945
      4 H         -64.3586  -45.7519  -26.4307 H       1  UNL1        0.1501
      5 C         -62.3306  -44.4529  -25.1437 C.ar    1  UNL1        0.0808
      6 C         -62.5423  -43.0895  -25.4035 C.ar    1  UNL1        0.0080
      7 C         -62.6134  -42.1686  -24.3551 C.ar    1  UNL1        0.0148
      8 C         -62.4814  -42.5921  -23.0219 C.ar    1  UNL1        0.0502
      9 C         -62.2921  -43.9607  -22.7614 C.ar    1  UNL1        0.0443
     10 C         -62.2204  -44.8842  -23.8085 C.ar    1  UNL1        0.1457
     11 F         -62.0993  -46.2014  -23.5082 F       1  UNL1       -0.2040
     12 N         -62.5595  -41.6405  -21.9382 N.pl3   1  UNL1       -0.3040
     13 C         -61.3846  -40.8276  -21.5820 C.3     1  UNL1        0.1122
     14 C         -61.8094  -39.4339  -21.0976 C.3     1  UNL1        0.1122
     15 N         -62.9508  -39.4991  -20.1728 N.pl3   1  UNL1       -0.3041
     16 C         -63.5212  -40.8016  -19.8114 C.3     1  UNL1        0.1122
     17 C         -63.7572  -41.6218  -21.0802 C.3     1  UNL1        0.1122
     18 C         -63.5553  -38.2793  -19.7037 C.ar    1  UNL1        0.0479
     19 C         -62.9906  -37.0360  -20.0296 C.ar    1  UNL1        0.0145
     20 C         -63.5681  -35.8515  -19.5643 C.ar    1  UNL1        0.0051
     21 C         -64.7315  -35.8874  -18.7768 C.ar    1  UNL1        0.0715
     22 C         -65.2771  -37.1338  -18.4250 C.ar    1  UNL1        0.0051
     23 C         -64.6982  -38.3181  -18.8899 C.ar    1  UNL1        0.0145
     24 C         -65.3261  -34.6125  -18.2337 C.3     1  UNL1        0.4186
     25 F         -65.5551  -34.7209  -16.8728 F       1  UNL1       -0.1659
     26 F         -64.4699  -33.5454  -18.4441 F       1  UNL1       -0.1659
     27 F         -66.5252  -34.3609  -18.8736 F       1  UNL1       -0.1659
     28 C         -63.3943  -46.7070  -28.1281 C.3     1  UNL1        0.1535
     29 C         -62.8732  -45.8859  -29.2767 C.2     1  UNL1        0.2443
     30 O         -63.6604  -45.5604  -30.2064 O.2     1  UNL1       -0.2730
     31 N         -61.5044  -45.4465  -29.2928 N.am    1  UNL1       -0.2825
     32 H         -60.9647  -45.4924  -28.3991 H       1  UNL1        0.1549
     33 C         -60.8642  -44.8478  -30.4321 C.ar    1  UNL1        0.0535
     34 C         -61.5668  -44.0110  -31.3158 C.ar    1  UNL1        0.0353
     35 C         -60.9087  -43.4728  -32.4246 C.ar    1  UNL1        0.1002
     36 N         -59.6022  -43.7693  -32.6535 N.ar    1  UNL1       -0.2422
     37 C         -58.9033  -44.5907  -31.8263 C.ar    1  UNL1        0.1002
     38 C         -59.5237  -45.1510  -30.7071 C.ar    1  UNL1        0.0353
     39 C         -62.5116  -47.9508  -27.9215 C.3     1  UNL1        0.0569
     40 C         -62.9360  -48.7226  -26.7046 C.ar    1  UNL1       -0.0017
     41 C         -64.2019  -49.2476  -26.4621 C.ar    1  UNL1        0.0681
     42 N         -64.2555  -49.8018  -25.2298 N.ar    1  UNL1       -0.3523
     43 C         -63.0379  -49.6237  -24.6886 C.ar    1  UNL1        0.0563
     44 C         -62.6164  -50.0052  -23.4156 C.ar    1  UNL1        0.0170
     45 C         -61.2961  -49.6977  -23.0401 C.ar    1  UNL1        0.0015
     46 C         -60.4367  -49.0224  -23.9345 C.ar    1  UNL1        0.0001
     47 C         -60.8891  -48.6483  -25.2128 C.ar    1  UNL1        0.0012
     48 C         -62.2039  -48.9669  -25.5577 C.ar    1  UNL1        0.0131
     49 H         -65.0827  -50.2587  -24.7856 H       1  UNL1        0.1660
@<TRIPOS>BOND
     1     1     2    2
     2     2     3   am
     3     3    28    1
     4    28    39    1
     5    39    40    1
     6    40    41   ar
     7    41    42   ar
     8    42    43   ar
     9    43    44   ar
    10    44    45   ar
    11    45    46   ar
    12    46    47   ar
    13    47    48   ar
    14    28    29    1
    15    29    30    2
    16    29    31   am
    17    31    33    1
    18    33    34   ar
    19    34    35   ar
    20    35    36   ar
    21    36    37   ar
    22    37    38   ar
    23     2     5    1
    24     5     6   ar
    25     6     7   ar
    26     7     8   ar
    27     8    12    1
    28    12    13    1
    29    13    14    1
    30    14    15    1
    31    15    18    1
    32    18    19   ar
    33    19    20   ar
    34    20    21   ar
    35    21    24    1
    36    24    25    1
    37    24    26    1
    38    24    27    1
    39    21    22   ar
    40    22    23   ar
    41    15    16    1
    42    16    17    1
    43     8     9   ar
    44     9    10   ar
    45    10    11    1
    46    48    40   ar
    47    38    33   ar
    48    10     5   ar
    49    48    43   ar
    50    17    12    1
    51    23    18   ar
    52     3     4    1
    53    42    49    1
    54    31    32    1
@<TRIPOS>MOLECULE
*****
 49 54 0 0 0
SMALL
GASTEIGER

@<TRIPOS>ATOM
      1 O         -60.4537  -46.8661  -24.7829 O.2     1  UNL1       -0.2701
      2 C         -61.3546  -46.0313  -25.0712 C.2     1  UNL1        0.2483
      3 N         -61.9644  -46.0594  -26.3707 N.am    1  UNL1       -0.2945
      4 H         -62.8725  -45.5608  -26.5069 H       1  UNL1        0.1501
      5 C         -61.7934  -45.0547  -24.0501 C.ar    1  UNL1        0.0808
      6 C         -62.1909  -43.7675  -24.4452 C.ar    1  UNL1        0.0080
      7 C         -62.6016  -42.8276  -23.4964 C.ar    1  UNL1        0.0148
      8 C         -62.6308  -43.1568  -22.1308 C.ar    1  UNL1        0.0502
      9 C         -62.2543  -44.4532  -21.7381 C.ar    1  UNL1        0.0443
     10 C         -61.8427  -45.3954  -22.6854 C.ar    1  UNL1        0.1457
     11 F         -61.5481  -46.6522  -22.2686 F       1  UNL1       -0.2040
     12 N         -63.0597  -42.1863  -21.1508 N.pl3   1  UNL1       -0.3040
     13 C         -62.1198  -41.7084  -20.1230 C.3     1  UNL1        0.1122
     14 C         -62.3903  -40.2376  -19.7749 C.3     1  UNL1        0.1122
     15 N         -63.8275  -39.9654  -19.6232 N.pl3   1  UNL1       -0.3041
     16 C         -64.7959  -41.0551  -19.7878 C.3     1  UNL1        0.1122
     17 C         -64.4849  -41.8203  -21.0746 C.3     1  UNL1        0.1122
     18 C         -64.2752  -38.6142  -19.4057 C.ar    1  UNL1        0.0479
     19 C         -65.5400  -38.2042  -19.8563 C.ar    1  UNL1        0.0145
     20 C         -65.9711  -36.8896  -19.6579 C.ar    1  UNL1        0.0051
     21 C         -65.1511  -35.9640  -18.9903 C.ar    1  UNL1        0.0715
     22 C         -63.8727  -36.3673  -18.5682 C.ar    1  UNL1        0.0051
     23 C         -63.4419  -37.6820  -18.7681 C.ar    1  UNL1        0.0145
     24 C         -65.5956  -34.5331  -18.8202 C.3     1  UNL1        0.4186
     25 F         -66.9768  -34.4447  -18.8398 F       1  UNL1       -0.1659
     26 F         -65.1470  -34.0222  -17.6144 F       1  UNL1       -0.1659
     27 F         -65.0806  -33.7709  -19.8519 F       1  UNL1       -0.1659
     28 C         -61.4489  -46.9022  -27.4541 C.3     1  UNL1        0.1535
     29 C         -62.5533  -47.2121  -28.4283 C.2     1  UNL1        0.2443
     30 O         -62.8484  -48.4158  -28.6603 O.2     1  UNL1       -0.2730
     31 N         -63.2875  -46.1472  -29.0563 N.am    1  UNL1       -0.2825
     32 H         -63.2105  -45.1899  -28.6443 H       1  UNL1        0.1549
     33 C         -64.2041  -46.3354  -30.1474 C.ar    1  UNL1        0.0535
     34 C         -64.7047  -47.6065  -30.4772 C.ar    1  UNL1        0.0353
     35 C         -65.5732  -47.7441  -31.5630 C.ar    1  UNL1        0.1002
     36 N         -65.9188  -46.6576  -32.3030 N.ar    1  UNL1       -0.2422
     37 C         -65.4349  -45.4197  -32.0186 C.ar    1  UNL1        0.1002
     38 C         -64.5630  -45.2383  -30.9424 C.ar    1  UNL1        0.0353
     39 C         -60.2786  -46.2147  -28.1798 C.3     1  UNL1        0.0569
     40 C         -60.5841  -44.7703  -28.4572 C.ar    1  UNL1       -0.0017
     41 C         -60.7201  -43.7602  -27.5093 C.ar    1  UNL1        0.0681
     42 N         -61.0856  -42.6014  -28.1028 N.ar    1  UNL1       -0.3523
     43 C         -61.1904  -42.8726  -29.4153 C.ar    1  UNL1        0.0563
     44 C         -61.5678  -41.9950  -30.4307 C.ar    1  UNL1        0.0170
     45 C         -61.6355  -42.4972  -31.7429 C.ar    1  UNL1        0.0015
     46 C         -61.3292  -43.8502  -32.0079 C.ar    1  UNL1        0.0001
     47 C         -60.9522  -44.7137  -30.9635 C.ar    1  UNL1        0.0012
     48 C         -60.8935  -44.1872  -29.6718 C.ar    1  UNL1        0.0131
     49 H         -61.2662  -41.6876  -27.6310 H       1  UNL1        0.1660
@<TRIPOS>BOND
     1     1     2    2
     2     2     3   am
     3     3    28    1
     4    28    39    1
     5    39    40    1
     6    40    41   ar
     7    41    42   ar
     8    42    43   ar
     9    43    44   ar
    10    44    45   ar
    11    45    46   ar
    12    46    47   ar
    13    47    48   ar
    14    28    29    1
    15    29    30    2
    16    29    31   am
    17    31    33    1
    18    33    34   ar
    19    34    35   ar
    20    35    36   ar
    21    36    37   ar
    22    37    38   ar
    23     2     5    1
    24     5     6   ar
    25     6     7   ar
    26     7     8   ar
    27     8    12    1
    28    12    13    1
    29    13    14    1
    30    14    15    1
    31    15    18    1
    32    18    19   ar
    33    19    20   ar
    34    20    21   ar
    35    21    24    1
    36    24    25    1
    37    24    26    1
    38    24    27    1
    39    21    22   ar
    40    22    23   ar
    41    15    16    1
    42    16    17    1
    43     8     9   ar
    44     9    10   ar
    45    10    11    1
    46    48    40   ar
    47    38    33   ar
    48    10     5   ar
    49    48    43   ar
    50    17    12    1
    51    23    18   ar
    52     3     4    1
    53    42    49    1
    54    31    32    1
