@<TRIPOS>MOLECULE
*****
 47 52 0 0 0
SMALL
GASTEIGER

@<TRIPOS>ATOM
      1 C          61.0076   89.6173    9.1717 C.ar    1  UNL1        0.0702
      2 C          61.7040   88.4668    9.5612 C.ar    1  UNL1        0.0191
      3 C          61.6969   88.0581   10.8956 C.ar    1  UNL1        0.0356
      4 C          61.0074   88.8218   11.8488 C.ar    1  UNL1        0.1318
      5 N          60.3475   89.9451   11.4516 N.ar    1  UNL1       -0.2279
      6 C          60.3363   90.3598   10.1570 C.ar    1  UNL1        0.1149
      7 N          60.9700   88.4197   13.2307 N.pl3   1  UNL1       -0.2932
      8 C          59.9455   87.4687   13.6805 C.3     1  UNL1        0.0923
      9 C          60.5149   86.5470   14.7646 C.3     1  UNL1        0.0252
     10 C          61.1656   87.3654   15.8970 C.3     1  UNL1        0.0472
     11 C          62.2525   88.2942   15.3249 C.3     1  UNL1        0.0252
     12 C          61.6622   89.2152   14.2545 C.3     1  UNL1        0.0923
     13 C          61.7003   86.4488   17.0166 C.3     1  UNL1        0.2054
     14 O          63.0709   86.0902   16.8151 O.3     1  UNL1       -0.4755
     15 C          63.5756   85.2059   15.8462 C.ar    1  UNL1        0.1388
     16 C          64.6832   85.6228   15.1005 C.ar    1  UNL1        0.0369
     17 C          65.2322   84.7952   14.1206 C.ar    1  UNL1        0.0033
     18 C          64.6820   83.5359   13.8776 C.ar    1  UNL1        0.0066
     19 C          63.5741   83.0885   14.6173 C.ar    1  UNL1        0.0785
     20 C          63.0139   83.9377   15.5902 C.ar    1  UNL1        0.0433
     21 C          63.0016   81.7467   14.3521 C.2     1  UNL1        0.3381
     22 O          63.6704   80.8985   13.7037 O.2     1  UNL1       -0.2451
     23 O          61.7388   81.3831   14.8192 O.3     1  UNL1       -0.4771
     24 H          61.1959   81.9732   15.4364 H       1  UNL1        0.2954
     25 C          59.8940   90.0598    6.9332 C.2     1  UNL1        0.2839
     26 O          58.8356   89.4631    7.2688 O.2     1  UNL1       -0.2665
     27 N          61.0419   90.0384    7.7972 N.am    1  UNL1       -0.2766
     28 H          61.9737   90.2625    7.3799 H       1  UNL1        0.1553
     29 C          57.4380   91.0773    5.1443 C.3     1  UNL1        0.0345
     30 C          58.9029   91.1950    4.8473 C.ar    1  UNL1        0.0202
     31 C          59.9709   90.7485    5.6312 C.ar    1  UNL1        0.1946
     32 O          61.1154   91.0343    5.0382 O.2     1  UNL1       -0.4495
     33 C          60.8490   91.6438    3.9074 C.ar    1  UNL1        0.1411
     34 C          61.7624   92.1244    2.9629 C.ar    1  UNL1        0.0120
     35 C          61.2304   92.7520    1.8120 C.ar    1  UNL1       -0.0013
     36 C          59.8290   92.8882    1.6299 C.ar    1  UNL1       -0.0001
     37 C          58.9482   92.3852    2.6137 C.ar    1  UNL1        0.0028
     38 C          59.4950   91.7690    3.7382 C.ar    1  UNL1        0.0334
     39 C          59.2925   93.5539    0.4159 C.ar    1  UNL1       -0.0000
     40 C          60.1474   94.2662   -0.4466 C.ar    1  UNL1       -0.0000
     41 C          59.6394   94.8925   -1.5889 C.ar    1  UNL1       -0.0000
     42 C          58.2764   94.8146   -1.8834 C.ar    1  UNL1        0.0000
     43 C          57.4182   94.1102   -1.0362 C.ar    1  UNL1       -0.0000
     44 C          57.9206   93.4827    0.1080 C.ar    1  UNL1       -0.0000
     45 C          63.2566   91.9694    3.1689 C.3     1  UNL1        0.0253
     46 C          64.0424   92.7273    2.0927 C.3     1  UNL1        0.0048
     47 C          63.6557   90.4898    3.2045 C.3     1  UNL1        0.0048
@<TRIPOS>BOND
     1    29    30    1
     2    30    31   ar
     3    31    25    1
     4    25    26    2
     5    25    27   am
     6    27     1    1
     7     1     2   ar
     8     2     3   ar
     9     3     4   ar
    10     4     7    1
    11     7     8    1
    12     8     9    1
    13     9    10    1
    14    10    13    1
    15    13    14    1
    16    14    15    1
    17    15    16   ar
    18    16    17   ar
    19    17    18   ar
    20    18    19   ar
    21    19    21    1
    22    21    22    2
    23    21    23    1
    24    19    20   ar
    25    10    11    1
    26    11    12    1
    27     4     5   ar
    28     5     6   ar
    29    31    32   ar
    30    32    33   ar
    31    33    34   ar
    32    34    45    1
    33    45    46    1
    34    45    47    1
    35    34    35   ar
    36    35    36   ar
    37    36    39    1
    38    39    40   ar
    39    40    41   ar
    40    41    42   ar
    41    42    43   ar
    42    43    44   ar
    43    36    37   ar
    44    37    38   ar
    45    38    30   ar
    46     6     1   ar
    47    38    33   ar
    48    12     7    1
    49    44    39   ar
    50    20    15   ar
    51    27    28    1
    52    23    24    1
@<TRIPOS>MOLECULE
*****
 47 52 0 0 0
SMALL
GASTEIGER

@<TRIPOS>ATOM
      1 C          59.3923   90.7621    5.9548 C.ar    1  UNL1        0.0702
      2 C          58.2176   91.3034    5.4188 C.ar    1  UNL1        0.0191
      3 C          58.2581   92.0350    4.2310 C.ar    1  UNL1        0.0356
      4 C          59.4880   92.2454    3.5903 C.ar    1  UNL1        0.1318
      5 N          60.6211   91.7219    4.1354 N.ar    1  UNL1       -0.2279
      6 C          60.6052   91.0020    5.2884 C.ar    1  UNL1        0.1149
      7 N          59.5614   92.9843    2.3570 N.pl3   1  UNL1       -0.2932
      8 C          59.9073   94.4111    2.3873 C.3     1  UNL1        0.0923
      9 C          60.7490   94.7804    1.1607 C.3     1  UNL1        0.0252
     10 C          60.0602   94.3193   -0.1387 C.3     1  UNL1        0.0472
     11 C          59.7833   92.8054   -0.0853 C.3     1  UNL1        0.0252
     12 C          58.9311   92.4586    1.1377 C.3     1  UNL1        0.0923
     13 C          60.8762   94.7279   -1.3823 C.3     1  UNL1        0.2054
     14 O          62.0729   93.9559   -1.5229 O.3     1  UNL1       -0.4755
     15 C          63.0882   93.7955   -0.5643 C.ar    1  UNL1        0.1388
     16 C          64.2769   94.5085   -0.7515 C.ar    1  UNL1        0.0369
     17 C          65.3262   94.3926    0.1606 C.ar    1  UNL1        0.0033
     18 C          65.1971   93.5642    1.2763 C.ar    1  UNL1        0.0066
     19 C          64.0111   92.8424    1.4933 C.ar    1  UNL1        0.0785
     20 C          62.9649   92.9495    0.5576 C.ar    1  UNL1        0.0433
     21 C          63.8851   91.9689    2.6848 C.2     1  UNL1        0.3381
     22 O          63.0687   92.2686    3.5964 O.2     1  UNL1       -0.2451
     23 O          64.6371   90.8024    2.8215 O.3     1  UNL1       -0.4771
     24 H          65.2282   90.4459    2.0817 H       1  UNL1        0.2954
     25 C          59.4347   88.5985    7.2828 C.2     1  UNL1        0.2839
     26 O          59.3157   87.8865    6.2496 O.2     1  UNL1       -0.2665
     27 N          59.3385   90.0292    7.1908 N.am    1  UNL1       -0.2766
     28 H          59.1336   90.5640    8.0652 H       1  UNL1        0.1553
     29 C          61.2496   89.6781    9.6928 C.3     1  UNL1        0.0345
     30 C          60.4219   88.4287    9.6532 C.ar    1  UNL1        0.0202
     31 C          59.6321   87.9615    8.5984 C.ar    1  UNL1        0.1946
     32 O          59.0516   86.8256    8.9389 O.2     1  UNL1       -0.4495
     33 C          59.4226   86.5272   10.1614 C.ar    1  UNL1        0.1411
     34 C          59.0461   85.4121   10.9177 C.ar    1  UNL1        0.0120
     35 C          59.5809   85.3075   12.2233 C.ar    1  UNL1       -0.0013
     36 C          60.4592   86.2962   12.7399 C.ar    1  UNL1       -0.0001
     37 C          60.8090   87.4038   11.9351 C.ar    1  UNL1        0.0028
     38 C          60.2715   87.4848   10.6515 C.ar    1  UNL1        0.0334
     39 C          61.0058   86.1684   14.1145 C.ar    1  UNL1       -0.0000
     40 C          61.7919   85.0562   14.4715 C.ar    1  UNL1       -0.0000
     41 C          62.3050   84.9382   15.7668 C.ar    1  UNL1       -0.0000
     42 C          62.0412   85.9263   16.7180 C.ar    1  UNL1        0.0000
     43 C          61.2636   87.0348   16.3759 C.ar    1  UNL1       -0.0000
     44 C          60.7471   87.1576   15.0823 C.ar    1  UNL1       -0.0000
     45 C          58.1096   84.3622   10.3522 C.3     1  UNL1        0.0253
     46 C          57.9675   83.1762   11.3131 C.3     1  UNL1        0.0048
     47 C          58.5764   83.8980    8.9679 C.3     1  UNL1        0.0048
@<TRIPOS>BOND
     1    29    30    1
     2    30    31   ar
     3    31    25    1
     4    25    26    2
     5    25    27   am
     6    27     1    1
     7     1     2   ar
     8     2     3   ar
     9     3     4   ar
    10     4     7    1
    11     7     8    1
    12     8     9    1
    13     9    10    1
    14    10    13    1
    15    13    14    1
    16    14    15    1
    17    15    16   ar
    18    16    17   ar
    19    17    18   ar
    20    18    19   ar
    21    19    21    1
    22    21    22    2
    23    21    23    1
    24    19    20   ar
    25    10    11    1
    26    11    12    1
    27     4     5   ar
    28     5     6   ar
    29    31    32   ar
    30    32    33   ar
    31    33    34   ar
    32    34    45    1
    33    45    46    1
    34    45    47    1
    35    34    35   ar
    36    35    36   ar
    37    36    39    1
    38    39    40   ar
    39    40    41   ar
    40    41    42   ar
    41    42    43   ar
    42    43    44   ar
    43    36    37   ar
    44    37    38   ar
    45    38    30   ar
    46     6     1   ar
    47    38    33   ar
    48    12     7    1
    49    44    39   ar
    50    20    15   ar
    51    27    28    1
    52    23    24    1
@<TRIPOS>MOLECULE
*****
 47 52 0 0 0
SMALL
GASTEIGER

@<TRIPOS>ATOM
      1 C          60.0941   87.8974    8.3344 C.ar    1  UNL1        0.0702
      2 C          60.4600   86.5485    8.2500 C.ar    1  UNL1        0.0191
      3 C          60.6888   85.8076    9.4102 C.ar    1  UNL1        0.0356
      4 C          60.5737   86.4301   10.6619 C.ar    1  UNL1        0.1318
      5 N          60.2299   87.7467   10.7219 N.ar    1  UNL1       -0.2279
      6 C          59.9975   88.4868    9.6056 C.ar    1  UNL1        0.1149
      7 N          60.7903   85.6900   11.8775 N.pl3   1  UNL1       -0.2932
      8 C          61.6305   84.4859   11.8521 C.3     1  UNL1        0.0923
      9 C          62.4263   84.3651   13.1565 C.3     1  UNL1        0.0252
     10 C          61.4955   84.4667   14.3807 C.3     1  UNL1        0.0472
     11 C          60.6958   85.7819   14.3329 C.3     1  UNL1        0.0252
     12 C          59.8980   85.8778   13.0304 C.3     1  UNL1        0.0923
     13 C          62.2800   84.2991   15.6981 C.3     1  UNL1        0.2054
     14 O          63.3793   85.2103   15.7940 O.3     1  UNL1       -0.4755
     15 C          63.3100   86.5859   16.0734 C.ar    1  UNL1        0.1388
     16 C          63.0470   86.9683   17.3930 C.ar    1  UNL1        0.0369
     17 C          62.9619   88.3174   17.7383 C.ar    1  UNL1        0.0033
     18 C          63.1441   89.3026   16.7668 C.ar    1  UNL1        0.0066
     19 C          63.4172   88.9470   15.4350 C.ar    1  UNL1        0.0785
     20 C          63.4816   87.5835   15.0912 C.ar    1  UNL1        0.0433
     21 C          63.6129   90.0036   14.4132 C.2     1  UNL1        0.3381
     22 O          64.0025   89.6905   13.2568 O.2     1  UNL1       -0.2451
     23 O          63.3585   91.3467   14.6894 O.3     1  UNL1       -0.4771
     24 H          62.9412   91.6542   15.5584 H       1  UNL1        0.2954
     25 C          59.9925   90.0842    7.0484 C.2     1  UNL1        0.2839
     26 O          60.0320   90.7789    8.0994 O.2     1  UNL1       -0.2665
     27 N          59.8828   88.6539    7.1300 N.am    1  UNL1       -0.2766
     28 H          59.5481   88.1389    6.2842 H       1  UNL1        0.1553
     29 C          57.4643   90.9666    5.2885 C.3     1  UNL1        0.0345
     30 C          58.9174   91.1298    4.9571 C.ar    1  UNL1        0.0202
     31 C          60.0171   90.7421    5.7285 C.ar    1  UNL1        0.1946
     32 O          61.1378   91.0541    5.1041 O.2     1  UNL1       -0.4495
     33 C          60.8259   91.6248    3.9647 C.ar    1  UNL1        0.1411
     34 C          61.7013   92.1141    2.9893 C.ar    1  UNL1        0.0120
     35 C          61.1229   92.6927    1.8351 C.ar    1  UNL1       -0.0013
     36 C          59.7140   92.7734    1.6799 C.ar    1  UNL1       -0.0001
     37 C          58.8727   92.2639    2.6946 C.ar    1  UNL1        0.0028
     38 C          59.4650   91.6966    3.8218 C.ar    1  UNL1        0.0334
     39 C          59.1283   93.3884    0.4619 C.ar    1  UNL1       -0.0000
     40 C          57.8241   93.0560    0.0488 C.ar    1  UNL1       -0.0000
     41 C          57.2753   93.6363   -1.0989 C.ar    1  UNL1       -0.0000
     42 C          58.0190   94.5534   -1.8448 C.ar    1  UNL1        0.0000
     43 C          59.3135   94.8920   -1.4449 C.ar    1  UNL1       -0.0000
     44 C          59.8678   94.3141   -0.2985 C.ar    1  UNL1       -0.0000
     45 C          63.2041   92.0185    3.1667 C.3     1  UNL1        0.0253
     46 C          63.9342   92.9466    2.1890 C.3     1  UNL1        0.0048
     47 C          63.6841   90.5706    3.0161 C.3     1  UNL1        0.0048
@<TRIPOS>BOND
     1    29    30    1
     2    30    31   ar
     3    31    25    1
     4    25    26    2
     5    25    27   am
     6    27     1    1
     7     1     2   ar
     8     2     3   ar
     9     3     4   ar
    10     4     7    1
    11     7     8    1
    12     8     9    1
    13     9    10    1
    14    10    13    1
    15    13    14    1
    16    14    15    1
    17    15    16   ar
    18    16    17   ar
    19    17    18   ar
    20    18    19   ar
    21    19    21    1
    22    21    22    2
    23    21    23    1
    24    19    20   ar
    25    10    11    1
    26    11    12    1
    27     4     5   ar
    28     5     6   ar
    29    31    32   ar
    30    32    33   ar
    31    33    34   ar
    32    34    45    1
    33    45    46    1
    34    45    47    1
    35    34    35   ar
    36    35    36   ar
    37    36    39    1
    38    39    40   ar
    39    40    41   ar
    40    41    42   ar
    41    42    43   ar
    42    43    44   ar
    43    36    37   ar
    44    37    38   ar
    45    38    30   ar
    46     6     1   ar
    47    38    33   ar
    48    12     7    1
    49    44    39   ar
    50    20    15   ar
    51    27    28    1
    52    23    24    1
@<TRIPOS>MOLECULE
*****
 47 52 0 0 0
SMALL
GASTEIGER

@<TRIPOS>ATOM
      1 C          62.0620   87.4864    9.9979 C.ar    1  UNL1        0.0702
      2 C          61.0289   87.7847    9.1012 C.ar    1  UNL1        0.0191
      3 C          60.2180   86.7664    8.5980 C.ar    1  UNL1        0.0356
      4 C          60.4608   85.4382    8.9777 C.ar    1  UNL1        0.1318
      5 N          61.4794   85.1676    9.8405 N.ar    1  UNL1       -0.2279
      6 C          62.2788   86.1434   10.3471 C.ar    1  UNL1        0.1149
      7 N          59.6340   84.3668    8.4866 N.pl3   1  UNL1       -0.2932
      8 C          60.1568   83.4646    7.4526 C.3     1  UNL1        0.0923
      9 C          59.6346   82.0409    7.6757 C.3     1  UNL1        0.0252
     10 C          58.0994   82.0326    7.8116 C.3     1  UNL1        0.0472
     11 C          57.6612   82.9738    8.9489 C.3     1  UNL1        0.0252
     12 C          58.1802   84.3922    8.7016 C.3     1  UNL1        0.0923
     13 C          57.5591   80.5988    7.9893 C.3     1  UNL1        0.2054
     14 O          57.1686   80.3302    9.3395 O.3     1  UNL1       -0.4755
     15 C          58.0134   80.2519   10.4601 C.ar    1  UNL1        0.1388
     16 C          58.0589   79.0392   11.1558 C.ar    1  UNL1        0.0369
     17 C          58.8740   78.8945   12.2787 C.ar    1  UNL1        0.0033
     18 C          59.6591   79.9616   12.7175 C.ar    1  UNL1        0.0066
     19 C          59.6388   81.1888   12.0329 C.ar    1  UNL1        0.0785
     20 C          58.7985   81.3326   10.9128 C.ar    1  UNL1        0.0433
     21 C          60.4809   82.3134   12.5069 C.2     1  UNL1        0.3381
     22 O          60.5276   82.5846   13.7364 O.2     1  UNL1       -0.2451
     23 O          61.2462   83.0779   11.6268 O.3     1  UNL1       -0.4771
     24 H          61.3406   82.8474   10.6460 H       1  UNL1        0.2954
     25 C          62.7447   89.1642   11.7771 C.2     1  UNL1        0.2839
     26 O          61.6897   88.9845   12.4431 O.2     1  UNL1       -0.2665
     27 N          62.9032   88.5432   10.4911 N.am    1  UNL1       -0.2766
     28 H          63.6195   88.9388    9.8407 H       1  UNL1        0.1553
     29 C          64.1465   88.9999   14.6538 C.3     1  UNL1        0.0345
     30 C          64.4198   89.9796   13.5523 C.ar    1  UNL1        0.0202
     31 C          63.8045   90.0475   12.2988 C.ar    1  UNL1        0.1946
     32 O          64.3134   91.0458   11.6004 O.2     1  UNL1       -0.4495
     33 C          65.2288   91.6331   12.3342 C.ar    1  UNL1        0.1411
     34 C          66.0204   92.7337   11.9888 C.ar    1  UNL1        0.0120
     35 C          66.9464   93.1912   12.9555 C.ar    1  UNL1       -0.0013
     36 C          67.0653   92.5550   14.2192 C.ar    1  UNL1       -0.0001
     37 C          66.2419   91.4465   14.5194 C.ar    1  UNL1        0.0028
     38 C          65.3355   91.0147   13.5523 C.ar    1  UNL1        0.0334
     39 C          68.0469   93.0494   15.2176 C.ar    1  UNL1       -0.0000
     40 C          68.3144   94.4266   15.3368 C.ar    1  UNL1       -0.0000
     41 C          69.2396   94.8894   16.2776 C.ar    1  UNL1       -0.0000
     42 C          69.9058   93.9860   17.1086 C.ar    1  UNL1        0.0000
     43 C          69.6485   92.6176   17.0007 C.ar    1  UNL1       -0.0000
     44 C          68.7250   92.1490   16.0610 C.ar    1  UNL1       -0.0000
     45 C          65.8806   93.4055   10.6366 C.3     1  UNL1        0.0253
     46 C          67.1499   93.2219    9.7968 C.3     1  UNL1        0.0048
     47 C          65.5329   94.8901   10.7941 C.3     1  UNL1        0.0048
@<TRIPOS>BOND
     1    29    30    1
     2    30    31   ar
     3    31    25    1
     4    25    26    2
     5    25    27   am
     6    27     1    1
     7     1     2   ar
     8     2     3   ar
     9     3     4   ar
    10     4     7    1
    11     7     8    1
    12     8     9    1
    13     9    10    1
    14    10    13    1
    15    13    14    1
    16    14    15    1
    17    15    16   ar
    18    16    17   ar
    19    17    18   ar
    20    18    19   ar
    21    19    21    1
    22    21    22    2
    23    21    23    1
    24    19    20   ar
    25    10    11    1
    26    11    12    1
    27     4     5   ar
    28     5     6   ar
    29    31    32   ar
    30    32    33   ar
    31    33    34   ar
    32    34    45    1
    33    45    46    1
    34    45    47    1
    35    34    35   ar
    36    35    36   ar
    37    36    39    1
    38    39    40   ar
    39    40    41   ar
    40    41    42   ar
    41    42    43   ar
    42    43    44   ar
    43    36    37   ar
    44    37    38   ar
    45    38    30   ar
    46     6     1   ar
    47    38    33   ar
    48    12     7    1
    49    44    39   ar
    50    20    15   ar
    51    27    28    1
    52    23    24    1
