@<TRIPOS>MOLECULE
*****
 35 39 0 0 0
SMALL
GASTEIGER

@<TRIPOS>ATOM
      1 C         -22.5987   -9.0601  -13.8909 C.2     1  UNL1        0.2491
      2 O         -21.8236   -8.4486  -14.6763 O.2     1  UNL1       -0.2699
      3 N         -22.8926   -8.4925  -12.5983 N.am    1  UNL1       -0.2760
      4 C         -23.0108   -9.3557  -11.4136 C.3     1  UNL1        0.0954
      5 C         -22.4357   -8.6674  -10.1619 C.3     1  UNL1        0.0399
      6 C         -21.2136   -7.7593  -10.4813 C.3     1  UNL1        0.0645
      7 C         -21.6137   -6.6672  -11.5330 C.3     1  UNL1        0.0399
      8 C         -22.8317   -7.0426  -12.3956 C.3     1  UNL1        0.0954
      9 C         -20.0229   -8.6208  -11.0471 C.3     1  UNL1        0.0477
     10 C         -19.3818   -9.4207   -9.9563 C.ar    1  UNL1        0.0220
     11 C         -18.5707  -10.5299  -10.0084 C.ar    1  UNL1        0.0923
     12 N         -18.0834  -10.7467   -8.7605 N.ar    1  UNL1       -0.2534
     13 N         -18.5222   -9.7970   -7.9383 N.ar    1  UNL1       -0.1651
     14 C         -19.3109   -8.9901   -8.6684 C.ar    1  UNL1        0.1515
     15 C         -19.9850   -7.7711   -8.2486 C.2     1  UNL1        0.2650
     16 O         -19.8471   -7.3144   -7.0831 O.2     1  UNL1       -0.2684
     17 N         -20.8063   -7.0955   -9.2163 N.am    1  UNL1       -0.3023
     18 H         -21.3005   -6.2286   -8.9049 H       1  UNL1        0.1497
     19 C         -22.1203  -13.9116  -14.8039 C.ar    1  UNL1        0.2249
     20 N         -22.6825  -15.0885  -15.1985 N.ar    1  UNL1       -0.2101
     21 C         -23.9915  -15.1844  -15.5467 C.ar    1  UNL1        0.1021
     22 C         -24.8126  -14.0581  -15.5083 C.ar    1  UNL1        0.0231
     23 C         -24.2764  -12.8259  -15.1080 C.ar    1  UNL1        0.0335
     24 C         -25.0779  -11.6735  -15.0526 C.ar    1  UNL1        0.1404
     25 F         -26.3934  -11.7243  -15.3857 F       1  UNL1       -0.2042
     26 C         -24.5262  -10.4537  -14.6530 C.ar    1  UNL1        0.0342
     27 C         -23.1681  -10.3599  -14.3124 C.ar    1  UNL1        0.0560
     28 C         -22.3681  -11.5131  -14.3479 C.ar    1  UNL1        0.0093
     29 C         -22.9093  -12.7464  -14.7503 C.ar    1  UNL1        0.0555
     30 C         -20.3176  -13.6791  -13.1175 C.3     1  UNL1        0.2542
     31 O         -20.7649  -13.8616  -14.4555 O.3     1  UNL1       -0.4561
     32 C         -17.1400  -11.8144   -8.3728 C.3     1  UNL1        0.0867
     33 C         -17.8030  -13.1858   -8.5958 C.3     1  UNL1        0.0244
     34 C         -15.8530  -11.7365   -9.2224 C.3     1  UNL1        0.0244
     35 C         -16.7591  -11.6558   -6.8878 C.3     1  UNL1        0.0244
@<TRIPOS>BOND
     1    30    31    1
     2    31    19    1
     3    19    20   ar
     4    20    21   ar
     5    21    22   ar
     6    22    23   ar
     7    23    24   ar
     8    24    25    1
     9    24    26   ar
    10    26    27   ar
    11    27     1    1
    12     1     2    2
    13     1     3   am
    14     3     4    1
    15     4     5    1
    16     5     6    1
    17     6     7    1
    18     7     8    1
    19     6     9    1
    20     9    10    1
    21    10    11   ar
    22    11    12   ar
    23    12    32    1
    24    32    33    1
    25    32    34    1
    26    32    35    1
    27    12    13   ar
    28    13    14   ar
    29    14    15    1
    30    15    16    2
    31    15    17   am
    32    27    28   ar
    33    28    29   ar
    34    29    19   ar
    35    29    23   ar
    36     8     3    1
    37    14    10   ar
    38    17     6    1
    39    17    18    1
@<TRIPOS>MOLECULE
*****
 35 39 0 0 0
SMALL
GASTEIGER

@<TRIPOS>ATOM
      1 C         -21.2300   -7.6823   -9.1519 C.2     1  UNL1        0.2491
      2 O         -22.3159   -7.4672   -8.5468 O.2     1  UNL1       -0.2699
      3 N         -21.0329   -7.1373  -10.4723 N.am    1  UNL1       -0.2760
      4 C         -20.3359   -7.9180  -11.5055 C.3     1  UNL1        0.0954
      5 C         -20.9570   -7.6848  -12.8951 C.3     1  UNL1        0.0399
      6 C         -22.4953   -7.4603  -12.8379 C.3     1  UNL1        0.0645
      7 C         -22.8278   -6.2389  -11.9124 C.3     1  UNL1        0.0399
      8 C         -21.7320   -5.9162  -10.8809 C.3     1  UNL1        0.0954
      9 C         -23.2174   -8.7470  -12.2875 C.3     1  UNL1        0.0477
     10 C         -23.2249   -9.8328  -13.3179 C.ar    1  UNL1        0.0220
     11 C         -23.4188  -11.1889  -13.1982 C.ar    1  UNL1        0.0923
     12 N         -23.5404  -11.7027  -14.4483 N.ar    1  UNL1       -0.2534
     13 N         -23.4718  -10.7208  -15.3435 N.ar    1  UNL1       -0.1651
     14 C         -23.2814   -9.5834  -14.6535 C.ar    1  UNL1        0.1515
     15 C         -23.1990   -8.2239  -15.1651 C.2     1  UNL1        0.2650
     16 O         -23.3455   -7.9754  -16.3909 O.2     1  UNL1       -0.2684
     17 N         -22.9569   -7.1684  -14.2193 N.am    1  UNL1       -0.3023
     18 H         -22.8833   -6.1953  -14.5942 H       1  UNL1        0.1497
     19 C         -18.6881   -9.0526   -5.1196 C.ar    1  UNL1        0.2249
     20 N         -17.7256   -9.8334   -4.5530 N.ar    1  UNL1       -0.2101
     21 C         -17.0089  -10.7350   -5.2723 C.ar    1  UNL1        0.1021
     22 C         -17.2438  -10.8897   -6.6380 C.ar    1  UNL1        0.0231
     23 C         -18.2252  -10.1071   -7.2629 C.ar    1  UNL1        0.0335
     24 C         -18.4907  -10.2427   -8.6358 C.ar    1  UNL1        0.1404
     25 F         -17.8028  -11.1360   -9.3925 F       1  UNL1       -0.2042
     26 C         -19.4712   -9.4532   -9.2420 C.ar    1  UNL1        0.0342
     27 C         -20.1945   -8.5111   -8.4947 C.ar    1  UNL1        0.0560
     28 C         -19.9456   -8.3860   -7.1186 C.ar    1  UNL1        0.0093
     29 C         -18.9606   -9.1720   -6.4960 C.ar    1  UNL1        0.0555
     30 C         -20.3600   -8.5315   -3.3643 C.3     1  UNL1        0.2542
     31 O         -19.4004   -8.1355   -4.3370 O.3     1  UNL1       -0.4561
     32 C         -23.7981  -13.1180  -14.7814 C.3     1  UNL1        0.0867
     33 C         -22.4966  -13.9244  -14.6203 C.3     1  UNL1        0.0244
     34 C         -24.8728  -13.7094  -13.8436 C.3     1  UNL1        0.0244
     35 C         -24.3005  -13.2256  -16.2345 C.3     1  UNL1        0.0244
@<TRIPOS>BOND
     1    30    31    1
     2    31    19    1
     3    19    20   ar
     4    20    21   ar
     5    21    22   ar
     6    22    23   ar
     7    23    24   ar
     8    24    25    1
     9    24    26   ar
    10    26    27   ar
    11    27     1    1
    12     1     2    2
    13     1     3   am
    14     3     4    1
    15     4     5    1
    16     5     6    1
    17     6     7    1
    18     7     8    1
    19     6     9    1
    20     9    10    1
    21    10    11   ar
    22    11    12   ar
    23    12    32    1
    24    32    33    1
    25    32    34    1
    26    32    35    1
    27    12    13   ar
    28    13    14   ar
    29    14    15    1
    30    15    16    2
    31    15    17   am
    32    27    28   ar
    33    28    29   ar
    34    29    19   ar
    35    29    23   ar
    36     8     3    1
    37    14    10   ar
    38    17     6    1
    39    17    18    1
@<TRIPOS>MOLECULE
*****
 35 39 0 0 0
SMALL
GASTEIGER

@<TRIPOS>ATOM
      1 C         -23.1538   -9.2211  -12.9675 C.2     1  UNL1        0.2491
      2 O         -22.5154   -8.5725  -13.8411 O.2     1  UNL1       -0.2699
      3 N         -23.2819   -8.6824  -11.6359 N.am    1  UNL1       -0.2760
      4 C         -23.2065   -9.5663  -10.4630 C.3     1  UNL1        0.0954
      5 C         -22.4840   -8.8773   -9.2905 C.3     1  UNL1        0.0399
      6 C         -21.3475   -7.9242   -9.7593 C.3     1  UNL1        0.0645
      7 C         -21.9244   -6.8309  -10.7242 C.3     1  UNL1        0.0399
      8 C         -23.2387   -7.2345  -11.4160 C.3     1  UNL1        0.0954
      9 C         -20.2212   -8.7368  -10.5016 C.3     1  UNL1        0.0477
     10 C         -19.4093   -9.5306   -9.5260 C.ar    1  UNL1        0.0220
     11 C         -18.5792  -10.6110   -9.7116 C.ar    1  UNL1        0.0923
     12 N         -17.9159  -10.8294   -8.5480 N.ar    1  UNL1       -0.2534
     13 N         -18.2650   -9.9071   -7.6548 N.ar    1  UNL1       -0.1651
     14 C         -19.1728   -9.1166   -8.2526 C.ar    1  UNL1        0.1515
     15 C         -19.8194   -7.9271   -7.7199 C.2     1  UNL1        0.2650
     16 O         -19.5345   -7.4831   -6.5764 O.2     1  UNL1       -0.2684
     17 N         -20.7885   -7.2655   -8.5509 N.am    1  UNL1       -0.3023
     18 H         -21.2613   -6.4203   -8.1573 H       1  UNL1        0.1497
     19 C         -24.1464  -12.7484  -16.3098 C.ar    1  UNL1        0.2249
     20 N         -24.6955  -13.9607  -16.6029 N.ar    1  UNL1       -0.2101
     21 C         -25.3079  -14.7245  -15.6620 C.ar    1  UNL1        0.1021
     22 C         -25.3925  -14.2800  -14.3431 C.ar    1  UNL1        0.0231
     23 C         -24.8410  -13.0384  -13.9960 C.ar    1  UNL1        0.0335
     24 C         -24.9040  -12.5643  -12.6751 C.ar    1  UNL1        0.1404
     25 F         -25.5012  -13.2974  -11.7005 F       1  UNL1       -0.2042
     26 C         -24.3505  -11.3238  -12.3478 C.ar    1  UNL1        0.0342
     27 C         -23.7355  -10.5329  -13.3304 C.ar    1  UNL1        0.0560
     28 C         -23.6535  -11.0116  -14.6477 C.ar    1  UNL1        0.0093
     29 C         -24.2081  -12.2566  -14.9917 C.ar    1  UNL1        0.0555
     30 C         -22.1346  -12.0821  -17.5966 C.3     1  UNL1        0.2542
     31 O         -23.5263  -11.9957  -17.3147 O.3     1  UNL1       -0.4561
     32 C         -16.8947  -11.8703   -8.3157 C.3     1  UNL1        0.0867
     33 C         -15.7768  -11.7305   -9.3651 C.3     1  UNL1        0.0244
     34 C         -16.2800  -11.7229   -6.9070 C.3     1  UNL1        0.0244
     35 C         -17.5411  -13.2651   -8.4267 C.3     1  UNL1        0.0244
@<TRIPOS>BOND
     1    30    31    1
     2    31    19    1
     3    19    20   ar
     4    20    21   ar
     5    21    22   ar
     6    22    23   ar
     7    23    24   ar
     8    24    25    1
     9    24    26   ar
    10    26    27   ar
    11    27     1    1
    12     1     2    2
    13     1     3   am
    14     3     4    1
    15     4     5    1
    16     5     6    1
    17     6     7    1
    18     7     8    1
    19     6     9    1
    20     9    10    1
    21    10    11   ar
    22    11    12   ar
    23    12    32    1
    24    32    33    1
    25    32    34    1
    26    32    35    1
    27    12    13   ar
    28    13    14   ar
    29    14    15    1
    30    15    16    2
    31    15    17   am
    32    27    28   ar
    33    28    29   ar
    34    29    19   ar
    35    29    23   ar
    36     8     3    1
    37    14    10   ar
    38    17     6    1
    39    17    18    1
@<TRIPOS>MOLECULE
*****
 35 39 0 0 0
SMALL
GASTEIGER

@<TRIPOS>ATOM
      1 C         -21.2224   -7.7080   -9.1290 C.2     1  UNL1        0.2491
      2 O         -22.2912   -7.5145   -8.4874 O.2     1  UNL1       -0.2699
      3 N         -21.0630   -7.1213  -10.4366 N.am    1  UNL1       -0.2760
      4 C         -20.3941   -7.8675  -11.5129 C.3     1  UNL1        0.0954
      5 C         -21.0541   -7.5921  -12.8766 C.3     1  UNL1        0.0399
      6 C         -22.5904   -7.3728  -12.7695 C.3     1  UNL1        0.0645
      7 C         -22.8985   -6.1818  -11.7970 C.3     1  UNL1        0.0399
      8 C         -21.7748   -5.8894  -10.7868 C.3     1  UNL1        0.0954
      9 C         -23.2953   -8.6778  -12.2400 C.3     1  UNL1        0.0477
     10 C         -23.3302   -9.7306  -13.3036 C.ar    1  UNL1        0.0220
     11 C         -23.5189  -11.0901  -13.2213 C.ar    1  UNL1        0.0923
     12 N         -23.6747  -11.5646  -14.4831 N.ar    1  UNL1       -0.2534
     13 N         -23.6324  -10.5548  -15.3485 N.ar    1  UNL1       -0.1651
     14 C         -23.4242   -9.4393  -14.6285 C.ar    1  UNL1        0.1515
     15 C         -23.3579   -8.0642  -15.0991 C.2     1  UNL1        0.2650
     16 O         -23.5389   -7.7776  -16.3119 O.2     1  UNL1       -0.2684
     17 N         -23.0909   -7.0385  -14.1275 N.am    1  UNL1       -0.3023
     18 H         -23.0290   -6.0540  -14.4735 H       1  UNL1        0.1497
     19 C         -18.0953  -11.5512   -9.3523 C.ar    1  UNL1        0.2249
     20 N         -17.1264  -12.3065   -8.7627 N.ar    1  UNL1       -0.2101
     21 C         -16.6528  -12.0342   -7.5195 C.ar    1  UNL1        0.1021
     22 C         -17.1550  -10.9517   -6.7984 C.ar    1  UNL1        0.0231
     23 C         -18.1530  -10.1468   -7.3662 C.ar    1  UNL1        0.0335
     24 C         -18.6760   -9.0452   -6.6687 C.ar    1  UNL1        0.1404
     25 F         -18.2275   -8.7321   -5.4259 F       1  UNL1       -0.2042
     26 C         -19.6713   -8.2553   -7.2496 C.ar    1  UNL1        0.0342
     27 C         -20.1679   -8.5548   -8.5274 C.ar    1  UNL1        0.0560
     28 C         -19.6343   -9.6433   -9.2357 C.ar    1  UNL1        0.0093
     29 C         -18.6344  -10.4480   -8.6627 C.ar    1  UNL1        0.0555
     30 C         -19.3339  -13.0291  -10.9110 C.3     1  UNL1        0.2542
     31 O         -18.5532  -11.8721  -10.6362 O.3     1  UNL1       -0.4561
     32 C         -23.9398  -12.9692  -14.8534 C.3     1  UNL1        0.0867
     33 C         -24.3937  -13.0317  -16.3232 C.3     1  UNL1        0.0244
     34 C         -22.6651  -13.8244  -14.6865 C.3     1  UNL1        0.0244
     35 C         -25.0418  -13.5464  -13.9435 C.3     1  UNL1        0.0244
@<TRIPOS>BOND
     1    30    31    1
     2    31    19    1
     3    19    20   ar
     4    20    21   ar
     5    21    22   ar
     6    22    23   ar
     7    23    24   ar
     8    24    25    1
     9    24    26   ar
    10    26    27   ar
    11    27     1    1
    12     1     2    2
    13     1     3   am
    14     3     4    1
    15     4     5    1
    16     5     6    1
    17     6     7    1
    18     7     8    1
    19     6     9    1
    20     9    10    1
    21    10    11   ar
    22    11    12   ar
    23    12    32    1
    24    32    33    1
    25    32    34    1
    26    32    35    1
    27    12    13   ar
    28    13    14   ar
    29    14    15    1
    30    15    16    2
    31    15    17   am
    32    27    28   ar
    33    28    29   ar
    34    29    19   ar
    35    29    23   ar
    36     8     3    1
    37    14    10   ar
    38    17     6    1
    39    17    18    1
@<TRIPOS>MOLECULE
*****
 35 39 0 0 0
SMALL
GASTEIGER

@<TRIPOS>ATOM
      1 C         -22.0711   -9.2516  -14.1707 C.2     1  UNL1        0.2491
      2 O         -21.2958   -8.4927  -14.8145 O.2     1  UNL1       -0.2699
      3 N         -22.5631   -8.8352  -12.8807 N.am    1  UNL1       -0.2760
      4 C         -22.7018   -9.8069  -11.7857 C.3     1  UNL1        0.0954
      5 C         -22.3454   -9.1728  -10.4284 C.3     1  UNL1        0.0399
      6 C         -21.2123   -8.1127  -10.5373 C.3     1  UNL1        0.0645
      7 C         -21.6263   -6.9823  -11.5422 C.3     1  UNL1        0.0399
      8 C         -22.6949   -7.4108  -12.5635 C.3     1  UNL1        0.0954
      9 C         -19.8759   -8.7863  -11.0275 C.3     1  UNL1        0.0477
     10 C         -19.2623   -9.6046   -9.9344 C.ar    1  UNL1        0.0220
     11 C         -18.3252  -10.6100   -9.9776 C.ar    1  UNL1        0.0923
     12 N         -17.9487  -10.8813   -8.7024 N.ar    1  UNL1       -0.2534
     13 N         -18.5796  -10.0610   -7.8661 N.ar    1  UNL1       -0.1651
     14 C         -19.3774   -9.2837   -8.6180 C.ar    1  UNL1        0.1515
     15 C         -20.2305   -8.1869   -8.1868 C.2     1  UNL1        0.2650
     16 O         -20.2697   -7.8223   -6.9820 O.2     1  UNL1       -0.2684
     17 N         -21.0202   -7.5223   -9.1878 N.am    1  UNL1       -0.3023
     18 H         -21.6429   -6.7451   -8.8701 H       1  UNL1        0.1497
     19 C         -24.6627  -13.4785  -14.0440 C.ar    1  UNL1        0.2249
     20 N         -24.9705  -14.6791  -14.6103 N.ar    1  UNL1       -0.2101
     21 C         -24.4028  -15.0991  -15.7701 C.ar    1  UNL1        0.1021
     22 C         -23.4708  -14.2963  -16.4266 C.ar    1  UNL1        0.0231
     23 C         -23.1240  -13.0525  -15.8801 C.ar    1  UNL1        0.0335
     24 C         -22.1931  -12.2170  -16.5196 C.ar    1  UNL1        0.1404
     25 F         -21.6054  -12.5937  -17.6843 F       1  UNL1       -0.2042
     26 C         -21.8583  -10.9816  -15.9595 C.ar    1  UNL1        0.0342
     27 C         -22.4363  -10.5635  -14.7511 C.ar    1  UNL1        0.0560
     28 C         -23.3815  -11.3869  -14.1187 C.ar    1  UNL1        0.0093
     29 C         -23.7260  -12.6333  -14.6696 C.ar    1  UNL1        0.0555
     30 C         -26.1343  -13.9447  -12.1037 C.3     1  UNL1        0.2542
     31 O         -25.2735  -13.0889  -12.8456 O.3     1  UNL1       -0.4561
     32 C         -16.9316  -11.8699   -8.2916 C.3     1  UNL1        0.0867
     33 C         -17.5338  -13.2844   -8.3737 C.3     1  UNL1        0.0244
     34 C         -15.6982  -11.7965   -9.2176 C.3     1  UNL1        0.0244
     35 C         -16.4799  -11.5797   -6.8469 C.3     1  UNL1        0.0244
@<TRIPOS>BOND
     1    30    31    1
     2    31    19    1
     3    19    20   ar
     4    20    21   ar
     5    21    22   ar
     6    22    23   ar
     7    23    24   ar
     8    24    25    1
     9    24    26   ar
    10    26    27   ar
    11    27     1    1
    12     1     2    2
    13     1     3   am
    14     3     4    1
    15     4     5    1
    16     5     6    1
    17     6     7    1
    18     7     8    1
    19     6     9    1
    20     9    10    1
    21    10    11   ar
    22    11    12   ar
    23    12    32    1
    24    32    33    1
    25    32    34    1
    26    32    35    1
    27    12    13   ar
    28    13    14   ar
    29    14    15    1
    30    15    16    2
    31    15    17   am
    32    27    28   ar
    33    28    29   ar
    34    29    19   ar
    35    29    23   ar
    36     8     3    1
    37    14    10   ar
    38    17     6    1
    39    17    18    1
@<TRIPOS>MOLECULE
*****
 35 39 0 0 0
SMALL
GASTEIGER

@<TRIPOS>ATOM
      1 C         -26.4169   -5.2041  -13.4593 C.2     1  UNL1        0.2491
      2 O         -25.4605   -4.5541  -12.9551 O.2     1  UNL1       -0.2699
      3 N         -26.8618   -6.4201  -12.8245 N.am    1  UNL1       -0.2760
      4 C         -27.2682   -7.5788  -13.6337 C.3     1  UNL1        0.0954
      5 C         -26.8417   -8.9008  -12.9691 C.3     1  UNL1        0.0399
      6 C         -25.4941   -8.7821  -12.2013 C.3     1  UNL1        0.0645
      7 C         -25.5936   -7.6631  -11.1073 C.3     1  UNL1        0.0399
      8 C         -26.6824   -6.6108  -11.3829 C.3     1  UNL1        0.0954
      9 C         -24.3235   -8.4389  -13.1972 C.3     1  UNL1        0.0477
     10 C         -23.9632   -9.6336  -14.0242 C.ar    1  UNL1        0.0220
     11 C         -23.2772   -9.7352  -15.2116 C.ar    1  UNL1        0.0923
     12 N         -23.0322  -11.0506  -15.4380 N.ar    1  UNL1       -0.2534
     13 N         -23.4995  -11.7732  -14.4233 N.ar    1  UNL1       -0.1651
     14 C         -24.0643  -10.9088  -13.5631 C.ar    1  UNL1        0.1515
     15 C         -24.6661  -11.1913  -12.2690 C.2     1  UNL1        0.2650
     16 O         -24.6783  -12.3570  -11.7927 O.2     1  UNL1       -0.2684
     17 N         -25.2368  -10.0889  -11.5435 N.am    1  UNL1       -0.3023
     18 H         -25.6816  -10.3000  -10.6213 H       1  UNL1        0.1497
     19 C         -30.3456   -3.4947  -15.9578 C.ar    1  UNL1        0.2249
     20 N         -30.8833   -3.0451  -17.1263 N.ar    1  UNL1       -0.2101
     21 C         -30.1522   -2.9381  -18.2656 C.ar    1  UNL1        0.1021
     22 C         -28.8036   -3.2922  -18.2703 C.ar    1  UNL1        0.0231
     23 C         -28.2083   -3.7598  -17.0900 C.ar    1  UNL1        0.0335
     24 C         -26.8505   -4.1190  -17.0593 C.ar    1  UNL1        0.1404
     25 F         -26.0799   -4.0221  -18.1732 F       1  UNL1       -0.2042
     26 C         -26.2745   -4.5846  -15.8746 C.ar    1  UNL1        0.0342
     27 C         -27.0421   -4.7092  -14.7065 C.ar    1  UNL1        0.0560
     28 C         -28.3946   -4.3331  -14.7279 C.ar    1  UNL1        0.0093
     29 C         -28.9877   -3.8653  -15.9133 C.ar    1  UNL1        0.0555
     30 C         -31.9159   -2.5038  -14.3146 C.3     1  UNL1        0.2542
     31 O         -31.1400   -3.5891  -14.8085 O.3     1  UNL1       -0.4561
     32 C         -22.2859  -11.6076  -16.5840 C.3     1  UNL1        0.0867
     33 C         -20.9622  -10.8397  -16.7517 C.3     1  UNL1        0.0244
     34 C         -21.9721  -13.1016  -16.3529 C.3     1  UNL1        0.0244
     35 C         -23.1304  -11.4752  -17.8666 C.3     1  UNL1        0.0244
@<TRIPOS>BOND
     1    30    31    1
     2    31    19    1
     3    19    20   ar
     4    20    21   ar
     5    21    22   ar
     6    22    23   ar
     7    23    24   ar
     8    24    25    1
     9    24    26   ar
    10    26    27   ar
    11    27     1    1
    12     1     2    2
    13     1     3   am
    14     3     4    1
    15     4     5    1
    16     5     6    1
    17     6     7    1
    18     7     8    1
    19     6     9    1
    20     9    10    1
    21    10    11   ar
    22    11    12   ar
    23    12    32    1
    24    32    33    1
    25    32    34    1
    26    32    35    1
    27    12    13   ar
    28    13    14   ar
    29    14    15    1
    30    15    16    2
    31    15    17   am
    32    27    28   ar
    33    28    29   ar
    34    29    19   ar
    35    29    23   ar
    36     8     3    1
    37    14    10   ar
    38    17     6    1
    39    17    18    1
@<TRIPOS>MOLECULE
*****
 35 39 0 0 0
SMALL
GASTEIGER

@<TRIPOS>ATOM
      1 C         -24.1264   -6.7404  -12.2132 C.2     1  UNL1        0.2491
      2 O         -23.2635   -5.9496  -12.6836 O.2     1  UNL1       -0.2699
      3 N         -23.7328   -7.7156  -11.2264 N.am    1  UNL1       -0.2760
      4 C         -24.2986   -9.0728  -11.2514 C.3     1  UNL1        0.0954
      5 C         -23.2487  -10.1228  -10.8436 C.3     1  UNL1        0.0399
      6 C         -21.8117   -9.7507  -11.3090 C.3     1  UNL1        0.0645
      7 C         -21.4002   -8.3551  -10.7241 C.3     1  UNL1        0.0399
      8 C         -22.5913   -7.4573  -10.3449 C.3     1  UNL1        0.0954
      9 C         -21.7395   -9.7021  -12.8813 C.3     1  UNL1        0.0477
     10 C         -21.7706  -11.0837  -13.4567 C.ar    1  UNL1        0.0220
     11 C         -22.0660  -11.5266  -14.7245 C.ar    1  UNL1        0.0923
     12 N         -21.7457  -12.8437  -14.7892 N.ar    1  UNL1       -0.2534
     13 N         -21.2246  -13.2343  -13.6289 N.ar    1  UNL1       -0.1651
     14 C         -21.2391  -12.1612  -12.8198 C.ar    1  UNL1        0.1515
     15 C         -20.7248  -12.0504  -11.4634 C.2     1  UNL1        0.2650
     16 O         -20.1456  -13.0173  -10.9015 O.2     1  UNL1       -0.2684
     17 N         -20.8887  -10.7916  -10.7883 N.am    1  UNL1       -0.3023
     18 H         -20.5311  -10.7222   -9.8084 H       1  UNL1        0.1497
     19 C         -27.5667   -4.7403  -15.1732 C.ar    1  UNL1        0.2249
     20 N         -28.8602   -4.6962  -15.5998 N.ar    1  UNL1       -0.2101
     21 C         -29.8169   -5.5177  -15.0961 C.ar    1  UNL1        0.1021
     22 C         -29.4946   -6.4481  -14.1088 C.ar    1  UNL1        0.0231
     23 C         -28.1756   -6.5288  -13.6400 C.ar    1  UNL1        0.0335
     24 C         -27.8166   -7.4592  -12.6505 C.ar    1  UNL1        0.1404
     25 F         -28.7391   -8.3045  -12.1230 F       1  UNL1       -0.2042
     26 C         -26.4977   -7.5241  -12.1940 C.ar    1  UNL1        0.0342
     27 C         -25.5193   -6.6589  -12.7072 C.ar    1  UNL1        0.0560
     28 C         -25.8697   -5.7407  -13.7099 C.ar    1  UNL1        0.0093
     29 C         -27.1933   -5.6627  -14.1768 C.ar    1  UNL1        0.0555
     30 C         -26.2275   -3.9153  -17.0898 C.3     1  UNL1        0.2542
     31 O         -26.6153   -3.8715  -15.7218 O.3     1  UNL1       -0.4561
     32 C         -21.8667  -13.7067  -15.9812 C.3     1  UNL1        0.0867
     33 C         -22.2477  -12.8441  -17.1982 C.3     1  UNL1        0.0244
     34 C         -20.5289  -14.4204  -16.2727 C.3     1  UNL1        0.0244
     35 C         -22.9515  -14.7748  -15.7404 C.3     1  UNL1        0.0244
@<TRIPOS>BOND
     1    30    31    1
     2    31    19    1
     3    19    20   ar
     4    20    21   ar
     5    21    22   ar
     6    22    23   ar
     7    23    24   ar
     8    24    25    1
     9    24    26   ar
    10    26    27   ar
    11    27     1    1
    12     1     2    2
    13     1     3   am
    14     3     4    1
    15     4     5    1
    16     5     6    1
    17     6     7    1
    18     7     8    1
    19     6     9    1
    20     9    10    1
    21    10    11   ar
    22    11    12   ar
    23    12    32    1
    24    32    33    1
    25    32    34    1
    26    32    35    1
    27    12    13   ar
    28    13    14   ar
    29    14    15    1
    30    15    16    2
    31    15    17   am
    32    27    28   ar
    33    28    29   ar
    34    29    19   ar
    35    29    23   ar
    36     8     3    1
    37    14    10   ar
    38    17     6    1
    39    17    18    1
@<TRIPOS>MOLECULE
*****
 35 39 0 0 0
SMALL
GASTEIGER

@<TRIPOS>ATOM
      1 C         -26.6437   -5.7828  -13.1429 C.2     1  UNL1        0.2491
      2 O         -26.6539   -4.7455  -12.4251 O.2     1  UNL1       -0.2699
      3 N         -27.0285   -7.0481  -12.5680 N.am    1  UNL1       -0.2760
      4 C         -26.3166   -8.2816  -12.9345 C.3     1  UNL1        0.0954
      5 C         -26.1819   -9.2279  -11.7272 C.3     1  UNL1        0.0399
      6 C         -26.0065   -8.4672  -10.3817 C.3     1  UNL1        0.0645
      7 C         -27.2186   -7.5004  -10.1470 C.3     1  UNL1        0.0399
      8 C         -27.9565   -7.0946  -11.4352 C.3     1  UNL1        0.0954
      9 C         -24.6681   -7.6374  -10.3910 C.3     1  UNL1        0.0477
     10 C         -23.4828   -8.5408  -10.2512 C.ar    1  UNL1        0.0220
     11 C         -22.1538   -8.3367  -10.5394 C.ar    1  UNL1        0.0923
     12 N         -21.4544   -9.3856  -10.0374 N.ar    1  UNL1       -0.2534
     13 N         -22.2837  -10.2172   -9.4119 N.ar    1  UNL1       -0.1651
     14 C         -23.5174   -9.7004   -9.5418 C.ar    1  UNL1        0.1515
     15 C         -24.7653  -10.2005   -8.9855 C.2     1  UNL1        0.2650
     16 O         -24.7912  -11.2212   -8.2483 O.2     1  UNL1       -0.2684
     17 N         -25.9704   -9.4803   -9.2959 N.am    1  UNL1       -0.3023
     18 H         -26.8661   -9.8528   -8.9063 H       1  UNL1        0.1497
     19 C         -27.1589   -3.8941  -17.6999 C.ar    1  UNL1        0.2249
     20 N         -26.7311   -3.8230  -18.9918 N.ar    1  UNL1       -0.2101
     21 C         -25.6644   -4.5329  -19.4411 C.ar    1  UNL1        0.1021
     22 C         -24.9631   -5.3706  -18.5746 C.ar    1  UNL1        0.0231
     23 C         -25.3680   -5.4745  -17.2362 C.ar    1  UNL1        0.0335
     24 C         -24.6795   -6.3047  -16.3359 C.ar    1  UNL1        0.1404
     25 F         -23.6035   -7.0278  -16.7400 F       1  UNL1       -0.2042
     26 C         -25.0982   -6.3972  -15.0062 C.ar    1  UNL1        0.0342
     27 C         -26.2128   -5.6739  -14.5549 C.ar    1  UNL1        0.0560
     28 C         -26.8920   -4.8284  -15.4465 C.ar    1  UNL1        0.0093
     29 C         -26.4833   -4.7274  -16.7876 C.ar    1  UNL1        0.0555
     30 C         -29.2871   -2.7139  -18.1749 C.3     1  UNL1        0.2542
     31 O         -28.2654   -3.1438  -17.2832 O.3     1  UNL1       -0.4561
     32 C         -19.9882   -9.5531  -10.0896 C.3     1  UNL1        0.0867
     33 C         -19.6550  -10.9935  -10.5190 C.3     1  UNL1        0.0244
     34 C         -19.3655   -8.5712  -11.1055 C.3     1  UNL1        0.0244
     35 C         -19.3843   -9.2715   -8.6998 C.3     1  UNL1        0.0244
@<TRIPOS>BOND
     1    30    31    1
     2    31    19    1
     3    19    20   ar
     4    20    21   ar
     5    21    22   ar
     6    22    23   ar
     7    23    24   ar
     8    24    25    1
     9    24    26   ar
    10    26    27   ar
    11    27     1    1
    12     1     2    2
    13     1     3   am
    14     3     4    1
    15     4     5    1
    16     5     6    1
    17     6     7    1
    18     7     8    1
    19     6     9    1
    20     9    10    1
    21    10    11   ar
    22    11    12   ar
    23    12    32    1
    24    32    33    1
    25    32    34    1
    26    32    35    1
    27    12    13   ar
    28    13    14   ar
    29    14    15    1
    30    15    16    2
    31    15    17   am
    32    27    28   ar
    33    28    29   ar
    34    29    19   ar
    35    29    23   ar
    36     8     3    1
    37    14    10   ar
    38    17     6    1
    39    17    18    1
@<TRIPOS>MOLECULE
*****
 35 39 0 0 0
SMALL
GASTEIGER

@<TRIPOS>ATOM
      1 C         -21.2569  -11.5829  -11.6237 C.2     1  UNL1        0.2491
      2 O         -21.5628  -11.9307  -10.4503 O.2     1  UNL1       -0.2699
      3 N         -20.5920  -10.3216  -11.8400 N.am    1  UNL1       -0.2760
      4 C         -20.9329   -9.4880  -13.0026 C.3     1  UNL1        0.0954
      5 C         -20.8914   -7.9904  -12.6469 C.3     1  UNL1        0.0399
      6 C         -21.3433   -7.7050  -11.1860 C.3     1  UNL1        0.0645
      7 C         -20.4427   -8.5001  -10.1781 C.3     1  UNL1        0.0399
      8 C         -19.7570   -9.7354  -10.7884 C.3     1  UNL1        0.0954
      9 C         -22.8485   -8.1224  -10.9858 C.3     1  UNL1        0.0477
     10 C         -23.7633   -7.1470  -11.6586 C.ar    1  UNL1        0.0220
     11 C         -25.0787   -7.2611  -12.0428 C.ar    1  UNL1        0.0923
     12 N         -25.5102   -6.0300  -12.4166 N.ar    1  UNL1       -0.2534
     13 N         -24.5336   -5.1429  -12.2442 N.ar    1  UNL1       -0.1651
     14 C         -23.4718   -5.8245  -11.7813 C.ar    1  UNL1        0.1515
     15 C         -22.1741   -5.3037  -11.3796 C.2     1  UNL1        0.2650
     16 O         -21.9290   -4.0686  -11.4005 O.2     1  UNL1       -0.2684
     17 N         -21.1817   -6.2484  -10.9436 N.am    1  UNL1       -0.3023
     18 H         -20.2461   -5.8703  -10.6708 H       1  UNL1        0.1497
     19 C         -24.6322  -13.9194  -14.4069 C.ar    1  UNL1        0.2249
     20 N         -24.9167  -14.7446  -15.4534 N.ar    1  UNL1       -0.2101
     21 C         -23.9456  -15.2869  -16.2323 C.ar    1  UNL1        0.1021
     22 C         -22.6035  -15.0077  -15.9774 C.ar    1  UNL1        0.0231
     23 C         -22.2643  -14.1632  -14.9107 C.ar    1  UNL1        0.0335
     24 C         -20.9221  -13.8569  -14.6308 C.ar    1  UNL1        0.1404
     25 F         -19.9188  -14.3716  -15.3873 F       1  UNL1       -0.2042
     26 C         -20.6027  -13.0149  -13.5626 C.ar    1  UNL1        0.0342
     27 C         -21.6118  -12.4734  -12.7516 C.ar    1  UNL1        0.0560
     28 C         -22.9554  -12.7615  -13.0397 C.ar    1  UNL1        0.0093
     29 C         -23.2912  -13.6090  -14.1097 C.ar    1  UNL1        0.0555
     30 C         -26.3200  -14.1196  -12.6017 C.3     1  UNL1        0.2542
     31 O         -25.6681  -13.3850  -13.6309 O.3     1  UNL1       -0.4561
     32 C         -26.8756   -5.6901  -12.8645 C.3     1  UNL1        0.0867
     33 C         -27.5815   -4.8697  -11.7697 C.3     1  UNL1        0.0244
     34 C         -26.8289   -4.8562  -14.1632 C.3     1  UNL1        0.0244
     35 C         -27.6684   -6.9831  -13.1386 C.3     1  UNL1        0.0244
@<TRIPOS>BOND
     1    30    31    1
     2    31    19    1
     3    19    20   ar
     4    20    21   ar
     5    21    22   ar
     6    22    23   ar
     7    23    24   ar
     8    24    25    1
     9    24    26   ar
    10    26    27   ar
    11    27     1    1
    12     1     2    2
    13     1     3   am
    14     3     4    1
    15     4     5    1
    16     5     6    1
    17     6     7    1
    18     7     8    1
    19     6     9    1
    20     9    10    1
    21    10    11   ar
    22    11    12   ar
    23    12    32    1
    24    32    33    1
    25    32    34    1
    26    32    35    1
    27    12    13   ar
    28    13    14   ar
    29    14    15    1
    30    15    16    2
    31    15    17   am
    32    27    28   ar
    33    28    29   ar
    34    29    19   ar
    35    29    23   ar
    36     8     3    1
    37    14    10   ar
    38    17     6    1
    39    17    18    1
