@<TRIPOS>MOLECULE
*****
 42 46 0 0 0
SMALL
GASTEIGER

@<TRIPOS>ATOM
      1 C          -7.6812  -11.7158   30.1029 C.ar    1  UNL1        0.0043
      2 C          -8.8215  -12.5666   29.9221 C.ar    1  UNL1        0.0848
      3 C          -9.8710  -12.4935   30.8678 C.ar    1  UNL1        0.1398
      4 C          -9.8284  -11.6526   31.9477 C.ar    1  UNL1        0.0325
      5 C          -8.7235  -10.8349   32.1185 C.ar    1  UNL1        0.0752
      6 N          -8.4847   -9.9241   33.0687 N.ar    1  UNL1       -0.3255
      7 C          -7.2815   -9.4116   32.7159 C.ar    1  UNL1        0.1984
      8 N          -6.7596   -9.9512   31.5811 N.ar    1  UNL1       -0.2140
      9 C          -7.6890  -10.8583   31.2250 C.ar    1  UNL1        0.0957
     10 C         -11.0596  -11.7844   32.7663 C.3     1  UNL1        0.0709
     11 C         -11.8630  -12.8763   31.9826 C.3     1  UNL1        0.1375
     12 C         -13.2025  -12.3255   31.4757 C.3     1  UNL1        0.0439
     13 C         -12.0895  -14.1261   32.8434 C.3     1  UNL1        0.0439
     14 O         -11.0431  -13.2215   30.8609 O.3     1  UNL1       -0.4824
     15 H          -9.0867   -9.6627   33.8811 H       1  UNL1        0.1686
     16 C          -8.9517  -13.4922   28.7815 C.2     1  UNL1        0.2522
     17 O         -10.0784  -13.6437   28.2358 O.2     1  UNL1       -0.2697
     18 N          -7.8307  -14.2784   28.3534 N.am    1  UNL1       -0.2806
     19 H          -7.0396  -14.4011   29.0248 H       1  UNL1        0.1552
     20 C          -7.7688  -14.9378   27.0756 C.ar    1  UNL1        0.0465
     21 C          -8.8897  -15.6270   26.5832 C.ar    1  UNL1        0.0143
     22 C          -8.8567  -16.2363   25.3284 C.ar    1  UNL1        0.0051
     23 C          -7.7123  -16.1444   24.5223 C.ar    1  UNL1        0.0712
     24 C          -6.5833  -15.4701   25.0153 C.ar    1  UNL1        0.0008
     25 C          -6.6018  -14.8618   26.2823 C.ar    1  UNL1       -0.0084
     26 C          -5.3783  -14.1338   26.7707 C.3     1  UNL1        0.0323
     27 C          -7.6614  -16.8386   23.1840 C.3     1  UNL1        0.4186
     28 F          -8.5304  -17.9157   23.1555 F       1  UNL1       -0.1659
     29 F          -6.3756  -17.2915   22.9554 F       1  UNL1       -0.1659
     30 F          -8.0200  -15.9680   22.1693 F       1  UNL1       -0.1659
     31 C          -6.0245  -10.1890   29.0181 C.3     1  UNL1        0.0051
     32 C          -6.5637  -11.6138   29.0884 C.3     1  UNL1        0.0282
     33 N          -6.6401   -8.3655   33.4549 N.pl3   1  UNL1       -0.2816
     34 H          -7.0568   -8.0834   34.3706 H       1  UNL1        0.1551
     35 C          -5.6244   -7.5329   32.8788 C.ar    1  UNL1        0.0889
     36 C          -4.3898   -7.4021   33.5352 C.ar    1  UNL1        0.1543
     37 F          -4.1684   -8.0449   34.7093 F       1  UNL1       -0.2028
     38 C          -3.3868   -6.5915   32.9955 C.ar    1  UNL1        0.0310
     39 C          -3.6025   -5.9179   31.7916 C.ar    1  UNL1        0.0033
     40 C          -4.8175   -6.0616   31.1177 C.ar    1  UNL1        0.0128
     41 C          -5.8290   -6.8707   31.6492 C.ar    1  UNL1        0.0733
     42 CL         -7.3039   -7.0935   30.7155 Cl      1  UNL1       -0.0809
@<TRIPOS>BOND
     1    31    32    1
     2    32     1    1
     3     1     2   ar
     4     2    16    1
     5    16    17    2
     6    16    18   am
     7    18    20    1
     8    20    21   ar
     9    21    22   ar
    10    22    23   ar
    11    23    27    1
    12    27    28    1
    13    27    29    1
    14    27    30    1
    15    23    24   ar
    16    24    25   ar
    17    25    26    1
    18     2     3   ar
    19     3     4   ar
    20     4     5   ar
    21     5     6   ar
    22     6     7   ar
    23     7    33    1
    24    33    35    1
    25    35    36   ar
    26    36    37    1
    27    36    38   ar
    28    38    39   ar
    29    39    40   ar
    30    40    41   ar
    31    41    42    1
    32     7     8   ar
    33     8     9   ar
    34     4    10    1
    35    10    11    1
    36    11    12    1
    37    11    13    1
    38    11    14    1
    39     9     1   ar
    40    25    20   ar
    41    14     3    1
    42     9     5   ar
    43    41    35   ar
    44    18    19    1
    45     6    15    1
    46    33    34    1
@<TRIPOS>MOLECULE
*****
 42 46 0 0 0
SMALL
GASTEIGER

@<TRIPOS>ATOM
      1 C          -8.5188  -14.1316   28.2964 C.ar    1  UNL1        0.0043
      2 C          -7.2348  -13.7028   27.8227 C.ar    1  UNL1        0.0848
      3 C          -6.6654  -12.5373   28.3872 C.ar    1  UNL1        0.1398
      4 C          -7.3005  -11.8048   29.3543 C.ar    1  UNL1        0.0325
      5 C          -8.5414  -12.2225   29.8061 C.ar    1  UNL1        0.0752
      6 N          -9.3195  -11.6883   30.7542 N.ar    1  UNL1       -0.3255
      7 C         -10.3825  -12.5269   30.7960 C.ar    1  UNL1        0.1984
      8 N         -10.3015  -13.5694   29.9254 N.ar    1  UNL1       -0.2140
      9 C          -9.1282  -13.3498   29.3022 C.ar    1  UNL1        0.0957
     10 C          -6.4738  -10.6409   29.7607 C.3     1  UNL1        0.0709
     11 C          -5.2106  -10.7972   28.8486 C.3     1  UNL1        0.1375
     12 C          -3.9400  -10.9941   29.6861 C.3     1  UNL1        0.0439
     13 C          -5.0509   -9.5956   27.9079 C.3     1  UNL1        0.0439
     14 O          -5.4462  -11.9750   28.0695 O.3     1  UNL1       -0.4824
     15 H          -9.1442  -10.8360   31.3317 H       1  UNL1        0.1686
     16 C          -6.4791  -14.4395   26.7928 C.2     1  UNL1        0.2522
     17 O          -5.4209  -15.0433   27.1181 O.2     1  UNL1       -0.2697
     18 N          -6.8930  -14.3970   25.4198 N.am    1  UNL1       -0.2806
     19 H          -7.5341  -13.6246   25.1301 H       1  UNL1        0.1552
     20 C          -6.4320  -15.3298   24.4254 C.ar    1  UNL1        0.0465
     21 C          -5.0575  -15.4610   24.1657 C.ar    1  UNL1        0.0143
     22 C          -4.5942  -16.3900   23.2334 C.ar    1  UNL1        0.0051
     23 C          -5.4922  -17.2322   22.5610 C.ar    1  UNL1        0.0712
     24 C          -6.8686  -17.0952   22.8048 C.ar    1  UNL1        0.0008
     25 C          -7.3471  -16.1553   23.7340 C.ar    1  UNL1       -0.0084
     26 C          -8.8279  -16.0483   23.9812 C.3     1  UNL1        0.0323
     27 C          -4.9956  -18.2071   21.5224 C.3     1  UNL1        0.4186
     28 F          -5.7930  -18.1693   20.3916 F       1  UNL1       -0.1659
     29 F          -5.0217  -19.4849   22.0490 F       1  UNL1       -0.1659
     30 F          -3.6991  -17.9004   21.1465 F       1  UNL1       -0.1659
     31 C          -8.1285  -16.5479   27.7845 C.3     1  UNL1        0.0051
     32 C          -9.1626  -15.4297   27.8619 C.3     1  UNL1        0.0282
     33 N         -11.4729  -12.3479   31.7074 N.pl3   1  UNL1       -0.2816
     34 H         -11.9777  -11.4332   31.6969 H       1  UNL1        0.1551
     35 C         -11.7255  -13.2574   32.7872 C.ar    1  UNL1        0.0889
     36 C         -12.7696  -14.1892   32.6702 C.ar    1  UNL1        0.1543
     37 F         -13.5396  -14.2163   31.5535 F       1  UNL1       -0.2028
     38 C         -13.0380  -15.0817   33.7121 C.ar    1  UNL1        0.0310
     39 C         -12.2589  -15.0611   34.8706 C.ar    1  UNL1        0.0033
     40 C         -11.2018  -14.1555   34.9865 C.ar    1  UNL1        0.0128
     41 C         -10.9242  -13.2569   33.9492 C.ar    1  UNL1        0.0733
     42 CL         -9.5244  -12.2018   34.1043 Cl      1  UNL1       -0.0809
@<TRIPOS>BOND
     1    31    32    1
     2    32     1    1
     3     1     2   ar
     4     2    16    1
     5    16    17    2
     6    16    18   am
     7    18    20    1
     8    20    21   ar
     9    21    22   ar
    10    22    23   ar
    11    23    27    1
    12    27    28    1
    13    27    29    1
    14    27    30    1
    15    23    24   ar
    16    24    25   ar
    17    25    26    1
    18     2     3   ar
    19     3     4   ar
    20     4     5   ar
    21     5     6   ar
    22     6     7   ar
    23     7    33    1
    24    33    35    1
    25    35    36   ar
    26    36    37    1
    27    36    38   ar
    28    38    39   ar
    29    39    40   ar
    30    40    41   ar
    31    41    42    1
    32     7     8   ar
    33     8     9   ar
    34     4    10    1
    35    10    11    1
    36    11    12    1
    37    11    13    1
    38    11    14    1
    39     9     1   ar
    40    25    20   ar
    41    14     3    1
    42     9     5   ar
    43    41    35   ar
    44    18    19    1
    45     6    15    1
    46    33    34    1
@<TRIPOS>MOLECULE
*****
 42 46 0 0 0
SMALL
GASTEIGER

@<TRIPOS>ATOM
      1 C          -8.1546  -11.8260   29.9661 C.ar    1  UNL1        0.0043
      2 C          -9.0826  -12.9192   29.9454 C.ar    1  UNL1        0.0848
      3 C         -10.1268  -12.9322   30.8997 C.ar    1  UNL1        0.1398
      4 C         -10.2717  -11.9495   31.8422 C.ar    1  UNL1        0.0325
      5 C          -9.3709  -10.8973   31.8588 C.ar    1  UNL1        0.0752
      6 N          -9.3389   -9.8245   32.6573 N.ar    1  UNL1       -0.3255
      7 C          -8.2740   -9.1243   32.1984 C.ar    1  UNL1        0.1984
      8 N          -7.6432   -9.7033   31.1410 N.ar    1  UNL1       -0.2140
      9 C          -8.3525  -10.8318   30.9492 C.ar    1  UNL1        0.0957
     10 C         -11.4483  -12.2184   32.7062 C.3     1  UNL1        0.0709
     11 C         -11.9929  -13.5623   32.1154 C.3     1  UNL1        0.1375
     12 C         -13.4179  -13.3946   31.5715 C.3     1  UNL1        0.0439
     13 C         -11.9465  -14.6880   33.1571 C.3     1  UNL1        0.0439
     14 O         -11.1131  -13.8876   31.0337 O.3     1  UNL1       -0.4824
     15 H          -9.9866   -9.5796   33.4392 H       1  UNL1        0.1686
     16 C          -9.0046  -14.0116   28.9578 C.2     1  UNL1        0.2522
     17 O          -9.8846  -14.9147   28.9664 O.2     1  UNL1       -0.2697
     18 N          -7.8927  -14.0957   28.0552 N.am    1  UNL1       -0.2806
     19 H          -7.0271  -13.5649   28.3011 H       1  UNL1        0.1552
     20 C          -7.8985  -14.9070   26.8664 C.ar    1  UNL1        0.0465
     21 C          -9.0928  -15.4997   26.4235 C.ar    1  UNL1        0.0143
     22 C          -9.1210  -16.2551   25.2507 C.ar    1  UNL1        0.0051
     23 C          -7.9620  -16.4100   24.4758 C.ar    1  UNL1        0.0712
     24 C          -6.7616  -15.8329   24.9213 C.ar    1  UNL1        0.0008
     25 C          -6.7194  -15.0789   26.1068 C.ar    1  UNL1       -0.0084
     26 C          -5.4182  -14.4617   26.5443 C.3     1  UNL1        0.0323
     27 C          -7.9822  -17.2614   23.2306 C.3     1  UNL1        0.4186
     28 F          -8.6134  -16.5985   22.1921 F       1  UNL1       -0.1659
     29 F          -8.6619  -18.4359   23.4939 F       1  UNL1       -0.1659
     30 F          -6.6935  -17.5665   22.8277 F       1  UNL1       -0.1659
     31 C          -5.7551  -11.2513   29.5601 C.3     1  UNL1        0.0051
     32 C          -7.0817  -11.6398   28.9160 C.3     1  UNL1        0.0282
     33 N          -7.8776   -7.8661   32.7564 N.pl3   1  UNL1       -0.2816
     34 H          -8.1145   -7.6748   33.7559 H       1  UNL1        0.1551
     35 C          -7.4101   -6.7811   31.9434 C.ar    1  UNL1        0.0889
     36 C          -8.3429   -5.9066   31.3627 C.ar    1  UNL1        0.1543
     37 F          -9.6720   -6.0974   31.5574 F       1  UNL1       -0.2028
     38 C          -7.9108   -4.8454   30.5618 C.ar    1  UNL1        0.0310
     39 C          -6.5466   -4.6405   30.3463 C.ar    1  UNL1        0.0033
     40 C          -5.6095   -5.4892   30.9401 C.ar    1  UNL1        0.0128
     41 C          -6.0311   -6.5553   31.7439 C.ar    1  UNL1        0.0733
     42 CL         -4.8100   -7.5373   32.5449 Cl      1  UNL1       -0.0809
@<TRIPOS>BOND
     1    31    32    1
     2    32     1    1
     3     1     2   ar
     4     2    16    1
     5    16    17    2
     6    16    18   am
     7    18    20    1
     8    20    21   ar
     9    21    22   ar
    10    22    23   ar
    11    23    27    1
    12    27    28    1
    13    27    29    1
    14    27    30    1
    15    23    24   ar
    16    24    25   ar
    17    25    26    1
    18     2     3   ar
    19     3     4   ar
    20     4     5   ar
    21     5     6   ar
    22     6     7   ar
    23     7    33    1
    24    33    35    1
    25    35    36   ar
    26    36    37    1
    27    36    38   ar
    28    38    39   ar
    29    39    40   ar
    30    40    41   ar
    31    41    42    1
    32     7     8   ar
    33     8     9   ar
    34     4    10    1
    35    10    11    1
    36    11    12    1
    37    11    13    1
    38    11    14    1
    39     9     1   ar
    40    25    20   ar
    41    14     3    1
    42     9     5   ar
    43    41    35   ar
    44    18    19    1
    45     6    15    1
    46    33    34    1
@<TRIPOS>MOLECULE
*****
 42 46 0 0 0
SMALL
GASTEIGER

@<TRIPOS>ATOM
      1 C          -9.3962  -10.9786   32.7017 C.ar    1  UNL1        0.0043
      2 C          -8.9491   -9.6768   32.2989 C.ar    1  UNL1        0.0848
      3 C          -9.8763   -8.8127   31.6705 C.ar    1  UNL1        0.1398
      4 C         -11.1725   -9.1804   31.4256 C.ar    1  UNL1        0.0325
      5 C         -11.5979  -10.4398   31.8147 C.ar    1  UNL1        0.0752
      6 N         -12.8114  -10.9926   31.7078 N.ar    1  UNL1       -0.3255
      7 C         -12.6527  -12.2096   32.2811 C.ar    1  UNL1        0.1984
      8 N         -11.3977  -12.4412   32.7531 N.ar    1  UNL1       -0.2140
      9 C         -10.7441  -11.3068   32.4378 C.ar    1  UNL1        0.0957
     10 C         -11.9146   -8.0806   30.7600 C.3     1  UNL1        0.0709
     11 C         -10.8189   -6.9688   30.6367 C.3     1  UNL1        0.1375
     12 C         -11.2148   -5.7078   31.4163 C.3     1  UNL1        0.0439
     13 C         -10.5380   -6.6240   29.1681 C.3     1  UNL1        0.0439
     14 O          -9.6385   -7.5302   31.2208 O.3     1  UNL1       -0.4824
     15 H         -13.6765  -10.5804   31.2927 H       1  UNL1        0.1686
     16 C          -7.5743   -9.1985   32.5349 C.2     1  UNL1        0.2522
     17 O          -6.6219  -10.0247   32.5142 O.2     1  UNL1       -0.2697
     18 N          -7.3316   -7.8253   32.8720 N.am    1  UNL1       -0.2806
     19 H          -8.1374   -7.2634   33.2277 H       1  UNL1        0.1552
     20 C          -6.0341   -7.2081   32.7898 C.ar    1  UNL1        0.0465
     21 C          -5.1144   -7.3581   33.8412 C.ar    1  UNL1        0.0143
     22 C          -3.8387   -6.7990   33.7570 C.ar    1  UNL1        0.0051
     23 C          -3.4411   -6.1029   32.6058 C.ar    1  UNL1        0.0712
     24 C          -4.3612   -5.9363   31.5579 C.ar    1  UNL1        0.0008
     25 C          -5.6524   -6.4860   31.6365 C.ar    1  UNL1       -0.0084
     26 C          -6.6059   -6.3009   30.4867 C.3     1  UNL1        0.0323
     27 C          -2.0773   -5.4624   32.5318 C.3     1  UNL1        0.4186
     28 F          -1.9525   -4.4608   33.4791 F       1  UNL1       -0.1659
     29 F          -1.8988   -4.9172   31.2742 F       1  UNL1       -0.1659
     30 F          -1.0853   -6.4000   32.7620 F       1  UNL1       -0.1659
     31 C          -9.1314  -12.1836   34.8767 C.3     1  UNL1        0.0051
     32 C          -8.5332  -11.9337   33.4964 C.3     1  UNL1        0.0282
     33 N         -13.7264  -13.1487   32.4113 N.pl3   1  UNL1       -0.2816
     34 H         -14.6558  -12.7922   32.7286 H       1  UNL1        0.1551
     35 C         -13.5123  -14.5663   32.3748 C.ar    1  UNL1        0.0889
     36 C         -12.2897  -15.0642   31.8958 C.ar    1  UNL1        0.1543
     37 F         -11.3291  -14.2119   31.4581 F       1  UNL1       -0.2028
     38 C         -12.0608  -16.4423   31.8457 C.ar    1  UNL1        0.0310
     39 C         -13.0426  -17.3321   32.2858 C.ar    1  UNL1        0.0033
     40 C         -14.2522  -16.8465   32.7881 C.ar    1  UNL1        0.0128
     41 C         -14.4922  -15.4682   32.8426 C.ar    1  UNL1        0.0733
     42 CL        -15.9921  -14.9051   33.5708 Cl      1  UNL1       -0.0809
@<TRIPOS>BOND
     1    31    32    1
     2    32     1    1
     3     1     2   ar
     4     2    16    1
     5    16    17    2
     6    16    18   am
     7    18    20    1
     8    20    21   ar
     9    21    22   ar
    10    22    23   ar
    11    23    27    1
    12    27    28    1
    13    27    29    1
    14    27    30    1
    15    23    24   ar
    16    24    25   ar
    17    25    26    1
    18     2     3   ar
    19     3     4   ar
    20     4     5   ar
    21     5     6   ar
    22     6     7   ar
    23     7    33    1
    24    33    35    1
    25    35    36   ar
    26    36    37    1
    27    36    38   ar
    28    38    39   ar
    29    39    40   ar
    30    40    41   ar
    31    41    42    1
    32     7     8   ar
    33     8     9   ar
    34     4    10    1
    35    10    11    1
    36    11    12    1
    37    11    13    1
    38    11    14    1
    39     9     1   ar
    40    25    20   ar
    41    14     3    1
    42     9     5   ar
    43    41    35   ar
    44    18    19    1
    45     6    15    1
    46    33    34    1
