@<TRIPOS>MOLECULE
*****
 37 42 0 0 0
SMALL
GASTEIGER

@<TRIPOS>ATOM
      1 C          47.7491   14.8828  -25.9704 C.ar    1  UNL1        0.1379
      2 N          47.3091   16.0711  -26.4837 N.ar    1  UNL1       -0.2089
      3 C          46.5902   16.1301  -27.6493 C.ar    1  UNL1        0.2014
      4 N          46.3160   14.9920  -28.3530 N.ar    1  UNL1       -0.2050
      5 C          46.7489   13.8111  -27.8494 C.ar    1  UNL1        0.1654
      6 C          47.4199   13.7194  -26.6700 C.ar    1  UNL1        0.0865
      7 C          47.6020   12.3559  -26.4782 C.ar    1  UNL1        0.1095
      8 N          47.0692   11.6917  -27.5351 N.ar    1  UNL1       -0.1677
      9 N          46.5669   12.5897  -28.3751 N.ar    1  UNL1       -0.2319
     10 C          45.8343   12.2577  -29.5895 C.3     1  UNL1        0.1554
     11 C          48.1002   11.6771  -25.2739 C.ar    1  UNL1        0.0577
     12 C          47.4675   11.6024  -24.0488 C.ar    1  UNL1        0.1231
     13 N          48.1893   10.8235  -23.2199 N.ar    1  UNL1       -0.1676
     14 N          49.2542   10.3998  -23.8841 N.ar    1  UNL1       -0.2488
     15 C          50.2731    9.5436  -23.2856 C.3     1  UNL1        0.1537
     16 C          49.2229   10.8790  -25.1487 C.ar    1  UNL1        0.0809
     17 C          50.2457   10.6386  -26.1898 C.ar    1  UNL1        0.0174
     18 C          50.0817    9.5900  -27.1088 C.ar    1  UNL1        0.0012
     19 C          51.0510    9.3490  -28.0862 C.ar    1  UNL1       -0.0042
     20 C          52.2055   10.1432  -28.1484 C.ar    1  UNL1       -0.0218
     21 C          53.2274    9.9091  -29.2211 C.3     1  UNL1        0.0310
     22 C          52.3647   11.1994  -27.2387 C.ar    1  UNL1       -0.0042
     23 C          51.3954   11.4401  -26.2605 C.ar    1  UNL1        0.0012
     24 C          49.4050   15.1624  -22.5912 C.3     1  UNL1        0.0790
     25 C          50.5120   15.5732  -23.5877 C.3     1  UNL1        0.0391
     26 C          50.0469   15.1181  -24.9634 C.3     1  UNL1        0.0937
     27 N          48.6225   14.8722  -24.8342 N.pl3   1  UNL1       -0.2917
     28 C          48.1452   15.1202  -23.4870 C.3     1  UNL1        0.1081
     29 C          50.7403   13.1103  -19.1582 C.3     1  UNL1        0.0324
     30 C          51.4700   14.1078  -20.0886 C.3     1  UNL1        0.0199
     31 C          51.1997   13.8088  -21.5728 C.3     1  UNL1        0.0722
     32 N          49.7499   13.8645  -21.9354 N.3     1  UNL1       -0.2723
     33 C          48.8588   13.5197  -20.7927 C.3     1  UNL1        0.0722
     34 C          49.4960   12.5040  -19.8377 C.3     1  UNL1        0.0199
     35 C          51.6799   12.0101  -18.6317 C.3     1  UNL1        0.1423
     36 C          51.2921   12.5255  -16.4200 C.3     1  UNL1        0.1741
     37 O          52.2805   12.4171  -17.4188 O.3     1  UNL1       -0.3511
@<TRIPOS>BOND
     1    36    37    1
     2    37    35    1
     3    35    29    1
     4    29    30    1
     5    30    31    1
     6    31    32    1
     7    32    24    1
     8    24    25    1
     9    25    26    1
    10    26    27    1
    11    27     1    1
    12     1     2   ar
    13     2     3   ar
    14     3     4   ar
    15     4     5   ar
    16     5     6   ar
    17     6     7   ar
    18     7    11    1
    19    11    12   ar
    20    12    13   ar
    21    13    14   ar
    22    14    15    1
    23    14    16   ar
    24    16    17    1
    25    17    18   ar
    26    18    19   ar
    27    19    20   ar
    28    20    21    1
    29    20    22   ar
    30    22    23   ar
    31     7     8   ar
    32     8     9   ar
    33     9    10    1
    34    27    28    1
    35    32    33    1
    36    33    34    1
    37    34    29    1
    38    28    24    1
    39     6     1   ar
    40    16    11   ar
    41    23    17   ar
    42     9     5   ar
@<TRIPOS>MOLECULE
*****
 37 42 0 0 0
SMALL
GASTEIGER

@<TRIPOS>ATOM
      1 C          50.5678   16.2258  -24.6893 C.ar    1  UNL1        0.1379
      2 N          51.7539   16.9002  -24.7754 N.ar    1  UNL1       -0.2089
      3 C          51.8736   18.0572  -25.5006 C.ar    1  UNL1        0.2014
      4 N          50.8051   18.5576  -26.1888 N.ar    1  UNL1       -0.2050
      5 C          49.6267   17.8941  -26.1073 C.ar    1  UNL1        0.1654
      6 C          49.4678   16.7727  -25.3545 C.ar    1  UNL1        0.0865
      7 C          48.1193   16.4620  -25.4729 C.ar    1  UNL1        0.1095
      8 N          47.5327   17.3709  -26.2926 N.ar    1  UNL1       -0.1677
      9 N          48.4647   18.2302  -26.6888 N.ar    1  UNL1       -0.2319
     10 C          48.2029   19.4027  -27.5125 C.3     1  UNL1        0.1554
     11 C          47.3593   15.4577  -24.7159 C.ar    1  UNL1        0.0577
     12 C          47.2130   15.3966  -23.3442 C.ar    1  UNL1        0.1231
     13 N          46.3748   14.3904  -23.0287 N.ar    1  UNL1       -0.1676
     14 N          45.9830   13.8180  -24.1572 N.ar    1  UNL1       -0.2488
     15 C          45.0793   12.6729  -24.1933 C.3     1  UNL1        0.1537
     16 C          46.5427   14.4567  -25.2102 C.ar    1  UNL1        0.0809
     17 C          46.3586   14.1014  -26.6341 C.ar    1  UNL1        0.0174
     18 C          45.8010   15.0319  -27.5253 C.ar    1  UNL1        0.0012
     19 C          45.6116   14.6976  -28.8690 C.ar    1  UNL1       -0.0042
     20 C          45.9625   13.4226  -29.3368 C.ar    1  UNL1       -0.0218
     21 C          45.7950   13.0768  -30.7867 C.3     1  UNL1        0.0310
     22 C          46.5315   12.4962  -28.4502 C.ar    1  UNL1       -0.0042
     23 C          46.7203   12.8303  -27.1059 C.ar    1  UNL1        0.0012
     24 C          50.9963   13.1729  -22.5134 C.3     1  UNL1        0.0790
     25 C          50.8317   12.5989  -23.9384 C.3     1  UNL1        0.0391
     26 C          50.2753   13.7254  -24.7972 C.3     1  UNL1        0.0937
     27 N          50.5162   14.9450  -24.0484 N.pl3   1  UNL1       -0.2917
     28 C          51.1677   14.6867  -22.7784 C.3     1  UNL1        0.1081
     29 C          49.3923   12.5158  -18.6695 C.3     1  UNL1        0.0324
     30 C          50.4592   11.7307  -19.4685 C.3     1  UNL1        0.0199
     31 C          50.0437   11.5315  -20.9358 C.3     1  UNL1        0.0722
     32 N          49.8166   12.8154  -21.6683 N.3     1  UNL1       -0.2723
     33 C          49.3718   13.9175  -20.7705 C.3     1  UNL1        0.0722
     34 C          48.5371   13.4107  -19.5889 C.3     1  UNL1        0.0199
     35 C          48.5087   11.5912  -17.8123 C.3     1  UNL1        0.1423
     36 C          49.2670   11.6998  -15.6395 C.3     1  UNL1        0.1741
     37 O          49.2881   10.9423  -16.8278 O.3     1  UNL1       -0.3511
@<TRIPOS>BOND
     1    36    37    1
     2    37    35    1
     3    35    29    1
     4    29    30    1
     5    30    31    1
     6    31    32    1
     7    32    24    1
     8    24    25    1
     9    25    26    1
    10    26    27    1
    11    27     1    1
    12     1     2   ar
    13     2     3   ar
    14     3     4   ar
    15     4     5   ar
    16     5     6   ar
    17     6     7   ar
    18     7    11    1
    19    11    12   ar
    20    12    13   ar
    21    13    14   ar
    22    14    15    1
    23    14    16   ar
    24    16    17    1
    25    17    18   ar
    26    18    19   ar
    27    19    20   ar
    28    20    21    1
    29    20    22   ar
    30    22    23   ar
    31     7     8   ar
    32     8     9   ar
    33     9    10    1
    34    27    28    1
    35    32    33    1
    36    33    34    1
    37    34    29    1
    38    28    24    1
    39     6     1   ar
    40    16    11   ar
    41    23    17   ar
    42     9     5   ar
@<TRIPOS>MOLECULE
*****
 37 42 0 0 0
SMALL
GASTEIGER

@<TRIPOS>ATOM
      1 C          48.6875   14.7908  -23.9415 C.ar    1  UNL1        0.1379
      2 N          48.4644   16.1363  -24.0351 N.ar    1  UNL1       -0.2089
      3 C          47.7779   16.6809  -25.0891 C.ar    1  UNL1        0.2014
      4 N          47.3180   15.8872  -26.1012 N.ar    1  UNL1       -0.2050
      5 C          47.5355   14.5529  -26.0141 C.ar    1  UNL1        0.1654
      6 C          48.1690   13.9813  -24.9551 C.ar    1  UNL1        0.0865
      7 C          48.1111   12.6172  -25.2095 C.ar    1  UNL1        0.1095
      8 N          47.4818   12.4211  -26.3960 N.ar    1  UNL1       -0.1677
      9 N          47.1503   13.6096  -26.8877 N.ar    1  UNL1       -0.2319
     10 C          46.3832   13.8069  -28.1101 C.3     1  UNL1        0.1554
     11 C          48.4728   11.5184  -24.3032 C.ar    1  UNL1        0.0577
     12 C          47.8634   11.2044  -23.1046 C.ar    1  UNL1        0.1231
     13 N          48.4141   10.0815  -22.6042 N.ar    1  UNL1       -0.1676
     14 N          49.3474    9.6735  -23.4511 N.ar    1  UNL1       -0.2488
     15 C          50.1664    8.4886  -23.2179 C.3     1  UNL1        0.1537
     16 C          49.3964   10.5104  -24.5127 C.ar    1  UNL1        0.0809
     17 C          50.3212   10.3963  -25.6615 C.ar    1  UNL1        0.0174
     18 C          51.5197   11.1273  -25.6756 C.ar    1  UNL1        0.0012
     19 C          52.3911   11.0344  -26.7642 C.ar    1  UNL1       -0.0042
     20 C          52.0687   10.2215  -27.8610 C.ar    1  UNL1       -0.0218
     21 C          53.0217   10.0920  -29.0120 C.3     1  UNL1        0.0310
     22 C          50.8775    9.4807  -27.8425 C.ar    1  UNL1       -0.0042
     23 C          50.0054    9.5741  -26.7539 C.ar    1  UNL1        0.0012
     24 C          50.6574   14.0790  -20.8027 C.3     1  UNL1        0.0790
     25 C          51.6242   13.7013  -21.9473 C.3     1  UNL1        0.0391
     26 C          50.7801   13.5934  -23.2090 C.3     1  UNL1        0.0937
     27 N          49.5348   14.2748  -22.9072 N.pl3   1  UNL1       -0.2917
     28 C          49.5112   14.7957  -21.5536 C.3     1  UNL1        0.1081
     29 C          49.2653   12.3761  -17.2052 C.3     1  UNL1        0.0324
     30 C          50.6089   13.0626  -17.5463 C.3     1  UNL1        0.0199
     31 C          51.1651   12.5912  -18.9004 C.3     1  UNL1        0.0722
     32 N          50.2427   12.8582  -20.0468 N.3     1  UNL1       -0.2723
     33 C          48.8098   12.8680  -19.6403 C.3     1  UNL1        0.0722
     34 C          48.5240   11.9133  -18.4756 C.3     1  UNL1        0.0199
     35 C          49.4401   11.2162  -16.2078 C.3     1  UNL1        0.1423
     36 C          48.4674   11.3921  -14.1268 C.3     1  UNL1        0.1741
     37 O          48.2511   11.0211  -15.4692 O.3     1  UNL1       -0.3511
@<TRIPOS>BOND
     1    36    37    1
     2    37    35    1
     3    35    29    1
     4    29    30    1
     5    30    31    1
     6    31    32    1
     7    32    24    1
     8    24    25    1
     9    25    26    1
    10    26    27    1
    11    27     1    1
    12     1     2   ar
    13     2     3   ar
    14     3     4   ar
    15     4     5   ar
    16     5     6   ar
    17     6     7   ar
    18     7    11    1
    19    11    12   ar
    20    12    13   ar
    21    13    14   ar
    22    14    15    1
    23    14    16   ar
    24    16    17    1
    25    17    18   ar
    26    18    19   ar
    27    19    20   ar
    28    20    21    1
    29    20    22   ar
    30    22    23   ar
    31     7     8   ar
    32     8     9   ar
    33     9    10    1
    34    27    28    1
    35    32    33    1
    36    33    34    1
    37    34    29    1
    38    28    24    1
    39     6     1   ar
    40    16    11   ar
    41    23    17   ar
    42     9     5   ar
@<TRIPOS>MOLECULE
*****
 37 42 0 0 0
SMALL
GASTEIGER

@<TRIPOS>ATOM
      1 C          50.4922   16.1091  -25.1565 C.ar    1  UNL1        0.1379
      2 N          51.6210   16.7982  -25.5032 N.ar    1  UNL1       -0.2089
      3 C          51.5703   18.1073  -25.9065 C.ar    1  UNL1        0.2014
      4 N          50.3728   18.7574  -26.0020 N.ar    1  UNL1       -0.2050
      5 C          49.2505   18.0801  -25.6595 C.ar    1  UNL1        0.1654
      6 C          49.2778   16.7975  -25.2081 C.ar    1  UNL1        0.0865
      7 C          47.9557   16.5110  -24.8933 C.ar    1  UNL1        0.1095
      8 N          47.1935   17.5963  -25.1823 N.ar    1  UNL1       -0.1677
      9 N          47.9905   18.5422  -25.6661 N.ar    1  UNL1       -0.2319
     10 C          47.5513   19.8871  -26.0127 C.3     1  UNL1        0.1554
     11 C          47.4360   15.3322  -24.1865 C.ar    1  UNL1        0.0577
     12 C          47.4387   15.1221  -22.8217 C.ar    1  UNL1        0.1231
     13 N          46.7982   13.9695  -22.5459 N.ar    1  UNL1       -0.1676
     14 N          46.3864   13.4484  -23.6920 N.ar    1  UNL1       -0.2488
     15 C          45.6673   12.1814  -23.7738 C.3     1  UNL1        0.1537
     16 C          46.7348   14.2630  -24.7141 C.ar    1  UNL1        0.0809
     17 C          46.4648   14.0158  -26.1472 C.ar    1  UNL1        0.0174
     18 C          46.6986   12.7461  -26.6987 C.ar    1  UNL1        0.0012
     19 C          46.4585   12.5098  -28.0550 C.ar    1  UNL1       -0.0042
     20 C          45.9965   13.5441  -28.8823 C.ar    1  UNL1       -0.0218
     21 C          45.7024   13.2807  -30.3293 C.3     1  UNL1        0.0310
     22 C          45.7504   14.8100  -28.3298 C.ar    1  UNL1       -0.0042
     23 C          45.9912   15.0466  -26.9732 C.ar    1  UNL1        0.0012
     24 C          50.1266   12.3556  -25.0287 C.3     1  UNL1        0.0790
     25 C          50.2694   12.7703  -23.5471 C.3     1  UNL1        0.0391
     26 C          50.8015   14.1960  -23.5459 C.3     1  UNL1        0.0937
     27 N          50.5652   14.7039  -24.8848 N.pl3   1  UNL1       -0.2917
     28 C          49.9390   13.7150  -25.7415 C.3     1  UNL1        0.1081
     29 C          52.1499   10.3065  -28.1088 C.3     1  UNL1        0.0324
     30 C          50.8280    9.9800  -27.3747 C.3     1  UNL1        0.0199
     31 C          50.9521   10.1817  -25.8551 C.3     1  UNL1        0.0722
     32 N          51.3242   11.5780  -25.4698 N.3     1  UNL1       -0.2723
     33 C          52.1288   12.2672  -26.5168 C.3     1  UNL1        0.0722
     34 C          53.0160   11.2987  -27.3070 C.3     1  UNL1        0.0199
     35 C          52.9445    9.0382  -28.4702 C.3     1  UNL1        0.1423
     36 C          54.7082    8.4253  -29.8197 C.3     1  UNL1        0.1741
     37 O          53.5097    9.1642  -29.7595 O.3     1  UNL1       -0.3511
@<TRIPOS>BOND
     1    36    37    1
     2    37    35    1
     3    35    29    1
     4    29    30    1
     5    30    31    1
     6    31    32    1
     7    32    24    1
     8    24    25    1
     9    25    26    1
    10    26    27    1
    11    27     1    1
    12     1     2   ar
    13     2     3   ar
    14     3     4   ar
    15     4     5   ar
    16     5     6   ar
    17     6     7   ar
    18     7    11    1
    19    11    12   ar
    20    12    13   ar
    21    13    14   ar
    22    14    15    1
    23    14    16   ar
    24    16    17    1
    25    17    18   ar
    26    18    19   ar
    27    19    20   ar
    28    20    21    1
    29    20    22   ar
    30    22    23   ar
    31     7     8   ar
    32     8     9   ar
    33     9    10    1
    34    27    28    1
    35    32    33    1
    36    33    34    1
    37    34    29    1
    38    28    24    1
    39     6     1   ar
    40    16    11   ar
    41    23    17   ar
    42     9     5   ar
@<TRIPOS>MOLECULE
*****
 37 42 0 0 0
SMALL
GASTEIGER

@<TRIPOS>ATOM
      1 C          46.4054   12.5547  -23.6380 C.ar    1  UNL1        0.1379
      2 N          45.4499   11.8225  -24.2860 N.ar    1  UNL1       -0.2089
      3 C          44.9889   12.1776  -25.5271 C.ar    1  UNL1        0.2014
      4 N          45.4566   13.3028  -26.1445 N.ar    1  UNL1       -0.2050
      5 C          46.4038   14.0326  -25.5077 C.ar    1  UNL1        0.1654
      6 C          46.9148   13.6749  -24.2991 C.ar    1  UNL1        0.0865
      7 C          47.8987   14.6212  -24.0433 C.ar    1  UNL1        0.1095
      8 N          47.9284   15.5082  -25.0703 N.ar    1  UNL1       -0.1677
      9 N          47.0001   15.1505  -25.9503 N.ar    1  UNL1       -0.2319
     10 C          46.7846   15.8117  -27.2302 C.3     1  UNL1        0.1554
     11 C          48.8982   14.6088  -22.9662 C.ar    1  UNL1        0.0577
     12 C          48.7941   15.2318  -21.7383 C.ar    1  UNL1        0.1231
     13 N          49.8681   14.9206  -20.9870 N.ar    1  UNL1       -0.1676
     14 N          50.6438   14.1169  -21.6990 N.ar    1  UNL1       -0.2488
     15 C          51.9118   13.5935  -21.2017 C.3     1  UNL1        0.1537
     16 C          50.0740   13.8831  -22.9034 C.ar    1  UNL1        0.0809
     17 C          50.6448   13.0474  -23.9821 C.ar    1  UNL1        0.0174
     18 C          51.1671   13.6498  -25.1376 C.ar    1  UNL1        0.0012
     19 C          51.6953   12.8651  -26.1664 C.ar    1  UNL1       -0.0042
     20 C          51.6940   11.4664  -26.0611 C.ar    1  UNL1       -0.0218
     21 C          52.2954   10.6258  -27.1480 C.3     1  UNL1        0.0310
     22 C          51.1839   10.8636  -24.9015 C.ar    1  UNL1       -0.0042
     23 C          50.6549   11.6485  -23.8726 C.ar    1  UNL1        0.0012
     24 C          47.7030   11.0934  -20.4101 C.3     1  UNL1        0.0790
     25 C          46.2827   11.5875  -20.0551 C.3     1  UNL1        0.0391
     26 C          45.8552   12.5199  -21.1792 C.3     1  UNL1        0.0937
     27 N          46.7538   12.2402  -22.2839 N.pl3   1  UNL1       -0.2917
     28 C          47.7262   11.2165  -21.9513 C.3     1  UNL1        0.1081
     29 C          49.9998   11.7662  -16.9385 C.3     1  UNL1        0.0324
     30 C          48.4754   11.8715  -17.1793 C.3     1  UNL1        0.0199
     31 C          48.1528   12.5902  -18.5003 C.3     1  UNL1        0.0722
     32 N          48.7321   11.9134  -19.7014 N.3     1  UNL1       -0.2723
     33 C          49.9807   11.1629  -19.3911 C.3     1  UNL1        0.0722
     34 C          50.7896   11.8115  -18.2621 C.3     1  UNL1        0.0199
     35 C          50.5084   12.8303  -15.9488 C.3     1  UNL1        0.1423
     36 C          52.2259   13.2445  -14.4702 C.3     1  UNL1        0.1741
     37 O          51.8890   12.6525  -15.7041 O.3     1  UNL1       -0.3511
@<TRIPOS>BOND
     1    36    37    1
     2    37    35    1
     3    35    29    1
     4    29    30    1
     5    30    31    1
     6    31    32    1
     7    32    24    1
     8    24    25    1
     9    25    26    1
    10    26    27    1
    11    27     1    1
    12     1     2   ar
    13     2     3   ar
    14     3     4   ar
    15     4     5   ar
    16     5     6   ar
    17     6     7   ar
    18     7    11    1
    19    11    12   ar
    20    12    13   ar
    21    13    14   ar
    22    14    15    1
    23    14    16   ar
    24    16    17    1
    25    17    18   ar
    26    18    19   ar
    27    19    20   ar
    28    20    21    1
    29    20    22   ar
    30    22    23   ar
    31     7     8   ar
    32     8     9   ar
    33     9    10    1
    34    27    28    1
    35    32    33    1
    36    33    34    1
    37    34    29    1
    38    28    24    1
    39     6     1   ar
    40    16    11   ar
    41    23    17   ar
    42     9     5   ar
@<TRIPOS>MOLECULE
*****
 37 42 0 0 0
SMALL
GASTEIGER

@<TRIPOS>ATOM
      1 C          47.2563   11.6596  -20.2202 C.ar    1  UNL1        0.1379
      2 N          45.9287   11.3332  -20.2131 N.ar    1  UNL1       -0.2089
      3 C          45.0550   11.8891  -19.3151 C.ar    1  UNL1        0.2014
      4 N          45.4985   12.7730  -18.3728 N.ar    1  UNL1       -0.2050
      5 C          46.8130   13.1009  -18.3747 C.ar    1  UNL1        0.1654
      6 C          47.6910   12.6030  -19.2861 C.ar    1  UNL1        0.0865
      7 C          48.8903   13.2420  -18.9993 C.ar    1  UNL1        0.1095
      8 N          48.7031   14.0640  -17.9356 N.ar    1  UNL1       -0.1677
      9 N          47.4365   13.9572  -17.5505 N.ar    1  UNL1       -0.2319
     10 C          46.8319   14.7506  -16.4890 C.3     1  UNL1        0.1554
     11 C          50.1288   13.2243  -19.7901 C.ar    1  UNL1        0.0577
     12 C          51.3179   12.6128  -19.4454 C.ar    1  UNL1        0.1231
     13 N          52.1952   12.7378  -20.4600 N.ar    1  UNL1       -0.1676
     14 N          51.5962   13.4036  -21.4361 N.ar    1  UNL1       -0.2488
     15 C          52.2609   13.7392  -22.6910 C.3     1  UNL1        0.1537
     16 C          50.3259   13.6966  -21.0751 C.ar    1  UNL1        0.0809
     17 C          49.3460   14.4454  -21.8916 C.ar    1  UNL1        0.0174
     18 C          49.1777   15.8258  -21.6987 C.ar    1  UNL1        0.0012
     19 C          48.2438   16.5366  -22.4575 C.ar    1  UNL1       -0.0042
     20 C          47.4538   15.8740  -23.4086 C.ar    1  UNL1       -0.0218
     21 C          46.4788   16.6432  -24.2496 C.3     1  UNL1        0.0310
     22 C          47.6299   14.4970  -23.6112 C.ar    1  UNL1       -0.0042
     23 C          48.5637   13.7858  -22.8518 C.ar    1  UNL1        0.0012
     24 C          49.0163    9.7699  -22.9716 C.3     1  UNL1        0.0790
     25 C          49.5296    9.1083  -21.6730 C.3     1  UNL1        0.0391
     26 C          49.1721   10.0535  -20.5351 C.3     1  UNL1        0.0937
     27 N          48.1646   10.9498  -21.0716 N.pl3   1  UNL1       -0.2917
     28 C          47.8610   10.6618  -22.4605 C.3     1  UNL1        0.1081
     29 C          51.1693   10.5606  -26.5098 C.3     1  UNL1        0.0324
     30 C          51.0582    9.2733  -25.6593 C.3     1  UNL1        0.0199
     31 C          51.1728    9.5697  -24.1545 C.3     1  UNL1        0.0722
     32 N          50.1227   10.5087  -23.6524 N.3     1  UNL1       -0.2723
     33 C          49.6497   11.4546  -24.7012 C.3     1  UNL1        0.0722
     34 C          50.7483   11.8096  -25.7095 C.3     1  UNL1        0.0199
     35 C          52.5716   10.7363  -27.1208 C.3     1  UNL1        0.1423
     36 C          53.0140    9.6439  -29.1004 C.3     1  UNL1        0.1741
     37 O          52.4861   10.8192  -28.5291 O.3     1  UNL1       -0.3511
@<TRIPOS>BOND
     1    36    37    1
     2    37    35    1
     3    35    29    1
     4    29    30    1
     5    30    31    1
     6    31    32    1
     7    32    24    1
     8    24    25    1
     9    25    26    1
    10    26    27    1
    11    27     1    1
    12     1     2   ar
    13     2     3   ar
    14     3     4   ar
    15     4     5   ar
    16     5     6   ar
    17     6     7   ar
    18     7    11    1
    19    11    12   ar
    20    12    13   ar
    21    13    14   ar
    22    14    15    1
    23    14    16   ar
    24    16    17    1
    25    17    18   ar
    26    18    19   ar
    27    19    20   ar
    28    20    21    1
    29    20    22   ar
    30    22    23   ar
    31     7     8   ar
    32     8     9   ar
    33     9    10    1
    34    27    28    1
    35    32    33    1
    36    33    34    1
    37    34    29    1
    38    28    24    1
    39     6     1   ar
    40    16    11   ar
    41    23    17   ar
    42     9     5   ar
@<TRIPOS>MOLECULE
*****
 37 42 0 0 0
SMALL
GASTEIGER

@<TRIPOS>ATOM
      1 C          50.1893   11.2024  -23.4121 C.ar    1  UNL1        0.1379
      2 N          51.1142   10.2318  -23.6794 N.ar    1  UNL1       -0.2089
      3 C          50.9080    8.9235  -23.3262 C.ar    1  UNL1        0.2014
      4 N          49.7716    8.5552  -22.6638 N.ar    1  UNL1       -0.2050
      5 C          48.8509    9.5123  -22.3963 C.ar    1  UNL1        0.1654
      6 C          49.0077   10.8076  -22.7802 C.ar    1  UNL1        0.0865
      7 C          47.8266   11.4297  -22.3968 C.ar    1  UNL1        0.1095
      8 N          47.0294   10.5151  -21.7883 N.ar    1  UNL1       -0.1677
      9 N          47.6710    9.3522  -21.7770 N.ar    1  UNL1       -0.2319
     10 C          47.1020    8.1060  -21.2822 C.3     1  UNL1        0.1554
     11 C          47.3758   12.7869  -22.7347 C.ar    1  UNL1        0.0577
     12 C          47.3239   13.8736  -21.8843 C.ar    1  UNL1        0.1231
     13 N          46.9420   14.9645  -22.5763 N.ar    1  UNL1       -0.1676
     14 N          46.7568   14.6026  -23.8370 N.ar    1  UNL1       -0.2488
     15 C          46.3183   15.5324  -24.8725 C.3     1  UNL1        0.1537
     16 C          47.0355   13.2865  -23.9788 C.ar    1  UNL1        0.0809
     17 C          46.9315   12.5112  -25.2341 C.ar    1  UNL1        0.0174
     18 C          48.0827   12.2367  -25.9893 C.ar    1  UNL1        0.0012
     19 C          47.9893   11.5165  -27.1834 C.ar    1  UNL1       -0.0042
     20 C          46.7414   11.0745  -27.6470 C.ar    1  UNL1       -0.0218
     21 C          46.6458   10.2687  -28.9085 C.3     1  UNL1        0.0310
     22 C          45.5919   11.3372  -26.8870 C.ar    1  UNL1       -0.0042
     23 C          45.6851   12.0581  -25.6928 C.ar    1  UNL1        0.0012
     24 C          51.3208   14.5404  -24.7599 C.3     1  UNL1        0.0790
     25 C          51.6407   14.6163  -23.2502 C.3     1  UNL1        0.0391
     26 C          50.8705   13.4837  -22.5869 C.3     1  UNL1        0.0937
     27 N          50.5022   12.5788  -23.6601 N.pl3   1  UNL1       -0.2917
     28 C          50.9628   13.0485  -24.9529 C.3     1  UNL1        0.1081
     29 C          50.0618   17.9269  -26.9339 C.3     1  UNL1        0.0324
     30 C          51.0820   17.7874  -25.7794 C.3     1  UNL1        0.0199
     31 C          50.5525   16.8831  -24.6537 C.3     1  UNL1        0.0722
     32 N          50.2267   15.4965  -25.1094 N.3     1  UNL1       -0.2723
     33 C          49.8246   15.4429  -26.5426 C.3     1  UNL1        0.0722
     34 C          49.1066   16.7182  -26.9984 C.3     1  UNL1        0.0199
     35 C          49.2808   19.2519  -26.8645 C.3     1  UNL1        0.1423
     36 C          47.6253   19.6919  -25.3240 C.3     1  UNL1        0.1741
     37 O          49.0178   19.5964  -25.5193 O.3     1  UNL1       -0.3511
@<TRIPOS>BOND
     1    36    37    1
     2    37    35    1
     3    35    29    1
     4    29    30    1
     5    30    31    1
     6    31    32    1
     7    32    24    1
     8    24    25    1
     9    25    26    1
    10    26    27    1
    11    27     1    1
    12     1     2   ar
    13     2     3   ar
    14     3     4   ar
    15     4     5   ar
    16     5     6   ar
    17     6     7   ar
    18     7    11    1
    19    11    12   ar
    20    12    13   ar
    21    13    14   ar
    22    14    15    1
    23    14    16   ar
    24    16    17    1
    25    17    18   ar
    26    18    19   ar
    27    19    20   ar
    28    20    21    1
    29    20    22   ar
    30    22    23   ar
    31     7     8   ar
    32     8     9   ar
    33     9    10    1
    34    27    28    1
    35    32    33    1
    36    33    34    1
    37    34    29    1
    38    28    24    1
    39     6     1   ar
    40    16    11   ar
    41    23    17   ar
    42     9     5   ar
@<TRIPOS>MOLECULE
*****
 37 42 0 0 0
SMALL
GASTEIGER

@<TRIPOS>ATOM
      1 C          52.0444   11.0593  -27.0723 C.ar    1  UNL1        0.1379
      2 N          53.1856   11.1584  -27.8184 N.ar    1  UNL1       -0.2089
      3 C          53.3783   10.4004  -28.9441 C.ar    1  UNL1        0.2014
      4 N          52.4361    9.4936  -29.3388 N.ar    1  UNL1       -0.2050
      5 C          51.3027    9.3908  -28.6038 C.ar    1  UNL1        0.1654
      6 C          51.0644   10.1663  -27.5123 C.ar    1  UNL1        0.0865
      7 C          49.7832    9.8140  -27.1080 C.ar    1  UNL1        0.1095
      8 N          49.3158    8.8448  -27.9352 N.ar    1  UNL1       -0.1677
      9 N          50.2575    8.5808  -28.8338 N.ar    1  UNL1       -0.2319
     10 C          50.0946    7.6532  -29.9450 C.3     1  UNL1        0.1554
     11 C          48.9486   10.4729  -26.0938 C.ar    1  UNL1        0.0577
     12 C          49.1551   10.4708  -24.7285 C.ar    1  UNL1        0.1231
     13 N          48.2335   11.2545  -24.1360 N.ar    1  UNL1       -0.1676
     14 N          47.4555   11.7557  -25.0838 N.ar    1  UNL1       -0.2488
     15 C          46.3300   12.6400  -24.8003 C.3     1  UNL1        0.1537
     16 C          47.8752   11.3219  -26.2944 C.ar    1  UNL1        0.0809
     17 C          47.2518   11.6516  -27.5945 C.ar    1  UNL1        0.0174
     18 C          47.1000   10.6579  -28.5746 C.ar    1  UNL1        0.0012
     19 C          46.5244   10.9662  -29.8102 C.ar    1  UNL1       -0.0042
     20 C          46.1071   12.2760  -30.0889 C.ar    1  UNL1       -0.0218
     21 C          45.4545   12.5986  -31.4003 C.3     1  UNL1        0.0310
     22 C          46.2467   13.2672  -29.1059 C.ar    1  UNL1       -0.0042
     23 C          46.8230   12.9590  -27.8701 C.ar    1  UNL1        0.0012
     24 C          51.5548   13.5179  -24.2519 C.3     1  UNL1        0.0790
     25 C          52.8066   12.7131  -23.8363 C.3     1  UNL1        0.0391
     26 C          52.8343   11.4711  -24.7152 C.3     1  UNL1        0.0937
     27 N          51.9415   11.7549  -25.8235 N.pl3   1  UNL1       -0.2917
     28 C          51.3378   13.0695  -25.7158 C.3     1  UNL1        0.1081
     29 C          49.6089   14.2529  -20.5840 C.3     1  UNL1        0.0324
     30 C          50.9808   13.6069  -20.8900 C.3     1  UNL1        0.0199
     31 C          50.8955   12.6068  -22.0552 C.3     1  UNL1        0.0722
     32 N          50.4154   13.2211  -23.3313 N.3     1  UNL1       -0.2723
     33 C          49.5147   14.3856  -23.1045 C.3     1  UNL1        0.0722
     34 C          48.6883   14.2466  -21.8210 C.3     1  UNL1        0.0199
     35 C          48.9171   13.6048  -19.3708 C.3     1  UNL1        0.1423
     36 C          48.1811   11.4500  -19.0210 C.3     1  UNL1        0.1741
     37 O          48.0057   12.6127  -19.7979 O.3     1  UNL1       -0.3511
@<TRIPOS>BOND
     1    36    37    1
     2    37    35    1
     3    35    29    1
     4    29    30    1
     5    30    31    1
     6    31    32    1
     7    32    24    1
     8    24    25    1
     9    25    26    1
    10    26    27    1
    11    27     1    1
    12     1     2   ar
    13     2     3   ar
    14     3     4   ar
    15     4     5   ar
    16     5     6   ar
    17     6     7   ar
    18     7    11    1
    19    11    12   ar
    20    12    13   ar
    21    13    14   ar
    22    14    15    1
    23    14    16   ar
    24    16    17    1
    25    17    18   ar
    26    18    19   ar
    27    19    20   ar
    28    20    21    1
    29    20    22   ar
    30    22    23   ar
    31     7     8   ar
    32     8     9   ar
    33     9    10    1
    34    27    28    1
    35    32    33    1
    36    33    34    1
    37    34    29    1
    38    28    24    1
    39     6     1   ar
    40    16    11   ar
    41    23    17   ar
    42     9     5   ar
@<TRIPOS>MOLECULE
*****
 37 42 0 0 0
SMALL
GASTEIGER

@<TRIPOS>ATOM
      1 C          49.0463   11.1760  -21.3004 C.ar    1  UNL1        0.1379
      2 N          48.8569    9.9125  -20.8137 N.ar    1  UNL1       -0.2089
      3 C          49.4604    9.4877  -19.6586 C.ar    1  UNL1        0.2014
      4 N          50.3004   10.3160  -18.9702 N.ar    1  UNL1       -0.2050
      5 C          50.4920   11.5695  -19.4471 C.ar    1  UNL1        0.1654
      6 C          49.8664   12.0328  -20.5623 C.ar    1  UNL1        0.0865
      7 C          50.2604   13.3613  -20.6561 C.ar    1  UNL1        0.1095
      8 N          51.1083   13.6380  -19.6330 N.ar    1  UNL1       -0.1677
      9 N          51.2572   12.5331  -18.9112 N.ar    1  UNL1       -0.2319
     10 C          52.0283   12.4565  -17.6778 C.3     1  UNL1        0.1554
     11 C          49.7361   14.3916  -21.5632 C.ar    1  UNL1        0.0577
     12 C          48.8247   15.3801  -21.2486 C.ar    1  UNL1        0.1231
     13 N          48.6559   16.1876  -22.3136 N.ar    1  UNL1       -0.1676
     14 N          49.4356   15.7439  -23.2883 N.ar    1  UNL1       -0.2488
     15 C          49.4941   16.3712  -24.6044 C.3     1  UNL1        0.1537
     16 C          50.1292   14.6640  -22.8611 C.ar    1  UNL1        0.0809
     17 C          51.0906   13.8800  -23.6666 C.ar    1  UNL1        0.0174
     18 C          50.8350   13.6343  -25.0250 C.ar    1  UNL1        0.0012
     19 C          51.7326   12.8826  -25.7882 C.ar    1  UNL1       -0.0042
     20 C          52.8903   12.3527  -25.1997 C.ar    1  UNL1       -0.0218
     21 C          53.8727   11.5785  -26.0276 C.3     1  UNL1        0.0310
     22 C          53.1533   12.6081  -23.8455 C.ar    1  UNL1       -0.0042
     23 C          52.2552   13.3595  -23.0819 C.ar    1  UNL1        0.0012
     24 C          46.9528   12.1315  -24.2909 C.3     1  UNL1        0.0790
     25 C          47.9945   11.1431  -24.8614 C.3     1  UNL1        0.0391
     26 C          49.0925   11.0196  -23.8149 C.3     1  UNL1        0.0937
     27 N          48.5215   11.5357  -22.5846 N.pl3   1  UNL1       -0.2917
     28 C          47.1556   11.9897  -22.7645 C.3     1  UNL1        0.1081
     29 C          45.7392   15.2478  -26.8592 C.3     1  UNL1        0.0324
     30 C          46.2753   13.8306  -27.1708 C.3     1  UNL1        0.0199
     31 C          47.4864   13.4710  -26.2937 C.3     1  UNL1        0.0722
     32 N          47.1897   13.5058  -24.8284 N.3     1  UNL1       -0.2723
     33 C          46.1112   14.4737  -24.4839 C.3     1  UNL1        0.0722
     34 C          46.0889   15.6854  -25.4226 C.3     1  UNL1        0.0199
     35 C          46.2116   16.2894  -27.8900 C.3     1  UNL1        0.1423
     36 C          48.0085   17.7115  -27.6528 C.3     1  UNL1        0.1741
     37 O          47.6222   16.3766  -27.8880 O.3     1  UNL1       -0.3511
@<TRIPOS>BOND
     1    36    37    1
     2    37    35    1
     3    35    29    1
     4    29    30    1
     5    30    31    1
     6    31    32    1
     7    32    24    1
     8    24    25    1
     9    25    26    1
    10    26    27    1
    11    27     1    1
    12     1     2   ar
    13     2     3   ar
    14     3     4   ar
    15     4     5   ar
    16     5     6   ar
    17     6     7   ar
    18     7    11    1
    19    11    12   ar
    20    12    13   ar
    21    13    14   ar
    22    14    15    1
    23    14    16   ar
    24    16    17    1
    25    17    18   ar
    26    18    19   ar
    27    19    20   ar
    28    20    21    1
    29    20    22   ar
    30    22    23   ar
    31     7     8   ar
    32     8     9   ar
    33     9    10    1
    34    27    28    1
    35    32    33    1
    36    33    34    1
    37    34    29    1
    38    28    24    1
    39     6     1   ar
    40    16    11   ar
    41    23    17   ar
    42     9     5   ar
