@<TRIPOS>MOLECULE
*****
 45 49 0 0 0
SMALL
GASTEIGER

@<TRIPOS>ATOM
      1 C          -9.5012  -11.5907   32.3088 C.3     1  UNL1        0.1562
      2 C          -9.3909  -12.7806   33.2709 C.3     1  UNL1        0.0622
      3 C         -10.6432  -12.7351   34.1867 C.3     1  UNL1        0.1294
      4 O         -10.2312  -12.8724   35.5274 O.3     1  UNL1       -0.3808
      5 C         -11.2367  -11.3292   33.9907 C.3     1  UNL1        0.1264
      6 N         -10.5740  -10.7553   32.8296 N.am    1  UNL1       -0.2544
      7 C         -11.0390   -9.5422   32.2084 C.2     1  UNL1        0.3081
      8 O         -11.9195   -8.8470   32.7853 O.2     1  UNL1       -0.2522
      9 N         -10.5281   -9.1284   30.9319 N.am    1  UNL1       -0.2681
     10 H          -9.8016  -13.7642   35.6167 H       1  UNL1        0.2107
     11 H         -10.2233   -9.8671   30.2597 H       1  UNL1        0.1564
     12 C         -11.7004  -13.7952   33.8237 C.ar    1  UNL1        0.0310
     13 C         -12.3809  -14.5086   34.8365 C.ar    1  UNL1        0.0026
     14 C         -13.3033  -15.5077   34.5163 C.ar    1  UNL1        0.0295
     15 C         -13.5428  -15.8394   33.1841 C.ar    1  UNL1        0.1424
     16 F         -14.4349  -16.8129   32.8766 F       1  UNL1       -0.2041
     17 C         -12.8447  -15.1859   32.1691 C.ar    1  UNL1        0.0590
     18 C         -11.9182  -14.1846   32.4784 C.ar    1  UNL1        0.1406
     19 F         -11.2216  -13.6245   31.4574 F       1  UNL1       -0.2044
     20 C         -10.5010   -7.7600   30.4912 C.ar    1  UNL1        0.0516
     21 C         -11.6166   -6.9158   30.6486 C.ar    1  UNL1        0.0156
     22 C         -11.5557   -5.5815   30.2354 C.ar    1  UNL1        0.0127
     23 C         -10.3804   -5.0737   29.6733 C.ar    1  UNL1        0.0578
     24 CL        -10.3059   -3.3988   29.1575 Cl      1  UNL1       -0.0822
     25 C          -9.2617   -5.9004   29.5320 C.ar    1  UNL1        0.0127
     26 C          -9.3193   -7.2348   29.9452 C.ar    1  UNL1        0.0156
     27 N          -7.5283  -10.6636   30.9136 N.am    1  UNL1       -0.2680
     28 C          -8.1897  -10.8378   32.1757 C.2     1  UNL1        0.2454
     29 O          -7.7205  -10.2558   33.1899 O.2     1  UNL1       -0.2730
     30 H          -7.0831   -9.7400   30.7127 H       1  UNL1        0.1563
     31 C          -7.3206  -13.6951   27.9943 C.ar    1  UNL1        0.2465
     32 C          -6.1701  -12.9611   28.3187 C.ar    1  UNL1        0.0736
     33 C          -6.2303  -11.9596   29.2889 C.ar    1  UNL1        0.0406
     34 C          -7.4494  -11.6848   29.9165 C.ar    1  UNL1        0.1346
     35 N          -8.5466  -12.4297   29.6148 N.ar    1  UNL1       -0.2228
     36 C          -8.5116  -13.4167   28.6816 C.ar    1  UNL1        0.1691
     37 C          -6.1904  -15.8037   25.1181 C.2     1  UNL1        0.0842
     38 C          -7.2637  -16.6984   25.0319 C.2     1  UNL1        0.0115
     39 C          -8.3213  -16.6082   25.9311 C.2     1  UNL1        0.0755
     40 C          -8.3111  -15.6123   26.9060 C.2     1  UNL1        0.2905
     41 N          -7.2774  -14.7206   26.9824 N.am    1  UNL1       -0.0844
     42 C          -6.2186  -14.8020   26.1101 C.2     1  UNL1        0.4188
     43 O          -5.2574  -13.9873   26.1999 O.2     1  UNL1       -0.2139
     44 C          -5.4373  -15.2107   22.8121 C.3     1  UNL1        0.0054
     45 C          -5.0596  -15.8943   24.1221 C.3     1  UNL1        0.0361
@<TRIPOS>BOND
     1    44    45    1
     2    45    37    1
     3    37    38    2
     4    38    39    1
     5    39    40    2
     6    40    41    1
     7    41    31    1
     8    31    32   ar
     9    32    33   ar
    10    33    34   ar
    11    34    27    1
    12    27    28   am
    13    28    29    2
    14    28     1    1
    15     1     2    1
    16     2     3    1
    17     3     4    1
    18     3    12    1
    19    12    13   ar
    20    13    14   ar
    21    14    15   ar
    22    15    16    1
    23    15    17   ar
    24    17    18   ar
    25    18    19    1
    26     3     5    1
    27     5     6    1
    28     6     7   am
    29     7     8    2
    30     7     9   am
    31     9    20    1
    32    20    21   ar
    33    21    22   ar
    34    22    23   ar
    35    23    24    1
    36    23    25   ar
    37    25    26   ar
    38    34    35   ar
    39    35    36   ar
    40    41    42    1
    41    42    43    2
    42    42    37    1
    43    36    31   ar
    44     6     1    1
    45    26    20   ar
    46    18    12   ar
    47    27    30    1
    48     4    10    1
    49     9    11    1
@<TRIPOS>MOLECULE
*****
 45 49 0 0 0
SMALL
GASTEIGER

@<TRIPOS>ATOM
      1 C          -9.6785  -11.7597   31.9546 C.3     1  UNL1        0.1562
      2 C          -9.5560  -12.9881   32.8656 C.3     1  UNL1        0.0622
      3 C         -10.6040  -12.8141   33.9972 C.3     1  UNL1        0.1294
      4 O          -9.9779  -13.0521   35.2372 O.3     1  UNL1       -0.3808
      5 C         -11.0293  -11.3369   33.9309 C.3     1  UNL1        0.1264
      6 N         -10.5173  -10.8119   32.6744 N.am    1  UNL1       -0.2544
      7 C         -10.9204   -9.5271   32.1641 C.2     1  UNL1        0.3081
      8 O         -11.5805   -8.7450   32.9019 O.2     1  UNL1       -0.2522
      9 N         -10.5986   -9.1368   30.8203 N.am    1  UNL1       -0.2681
     10 H          -9.6627  -13.9947   35.2351 H       1  UNL1        0.2107
     11 H         -10.5225   -9.8838   30.0946 H       1  UNL1        0.1564
     12 C         -11.8418  -13.7144   33.8230 C.ar    1  UNL1        0.0310
     13 C         -12.2174  -14.6250   34.8366 C.ar    1  UNL1        0.0026
     14 C         -13.3075  -15.4816   34.6657 C.ar    1  UNL1        0.0295
     15 C         -14.0253  -15.4724   33.4711 C.ar    1  UNL1        0.1424
     16 F         -15.0799  -16.3084   33.3062 F       1  UNL1       -0.2041
     17 C         -13.6415  -14.6200   32.4365 C.ar    1  UNL1        0.0590
     18 C         -12.5508  -13.7587   32.5965 C.ar    1  UNL1        0.1406
     19 F         -12.1817  -12.9954   31.5370 F       1  UNL1       -0.2044
     20 C         -10.4687   -7.7684   30.3985 C.ar    1  UNL1        0.0516
     21 C         -11.5369   -6.8589   30.5173 C.ar    1  UNL1        0.0156
     22 C         -11.3765   -5.5268   30.1240 C.ar    1  UNL1        0.0127
     23 C         -10.1487   -5.0865   29.6205 C.ar    1  UNL1        0.0578
     24 CL         -9.9495   -3.4143   29.1297 Cl      1  UNL1       -0.0822
     25 C          -9.0771   -5.9788   29.5182 C.ar    1  UNL1        0.0127
     26 C          -9.2342   -7.3112   29.9116 C.ar    1  UNL1        0.0156
     27 N          -7.8144  -11.1993   30.2490 N.am    1  UNL1       -0.2680
     28 C          -8.3240  -11.1787   31.5908 C.2     1  UNL1        0.2454
     29 O          -7.6719  -10.5637   32.4762 O.2     1  UNL1       -0.2730
     30 H          -7.3055  -10.3557   29.9010 H       1  UNL1        0.1563
     31 C          -8.2987  -14.4881   27.6595 C.ar    1  UNL1        0.2465
     32 C          -7.0139  -13.9856   27.9139 C.ar    1  UNL1        0.0736
     33 C          -6.8456  -12.9004   28.7752 C.ar    1  UNL1        0.0406
     34 C          -7.9689  -12.3104   29.3631 C.ar    1  UNL1        0.1346
     35 N          -9.2035  -12.8324   29.1327 N.ar    1  UNL1       -0.2228
     36 C          -9.3928  -13.8945   28.3066 C.ar    1  UNL1        0.1691
     37 C          -8.4654  -16.5423   24.5373 C.2     1  UNL1        0.0842
     38 C          -8.9038  -17.7615   25.0677 C.2     1  UNL1        0.0115
     39 C          -9.1116  -17.8923   26.4371 C.2     1  UNL1        0.0755
     40 C          -8.8956  -16.7978   27.2723 C.2     1  UNL1        0.2905
     41 N          -8.4892  -15.5973   26.7591 N.am    1  UNL1       -0.0844
     42 C          -8.2675  -15.4531   25.4106 C.2     1  UNL1        0.4188
     43 O          -7.8725  -14.3467   24.9465 O.2     1  UNL1       -0.2139
     44 C          -9.6067  -16.4250   22.3192 C.3     1  UNL1        0.0054
     45 C          -8.2668  -16.4035   23.0473 C.3     1  UNL1        0.0361
@<TRIPOS>BOND
     1    44    45    1
     2    45    37    1
     3    37    38    2
     4    38    39    1
     5    39    40    2
     6    40    41    1
     7    41    31    1
     8    31    32   ar
     9    32    33   ar
    10    33    34   ar
    11    34    27    1
    12    27    28   am
    13    28    29    2
    14    28     1    1
    15     1     2    1
    16     2     3    1
    17     3     4    1
    18     3    12    1
    19    12    13   ar
    20    13    14   ar
    21    14    15   ar
    22    15    16    1
    23    15    17   ar
    24    17    18   ar
    25    18    19    1
    26     3     5    1
    27     5     6    1
    28     6     7   am
    29     7     8    2
    30     7     9   am
    31     9    20    1
    32    20    21   ar
    33    21    22   ar
    34    22    23   ar
    35    23    24    1
    36    23    25   ar
    37    25    26   ar
    38    34    35   ar
    39    35    36   ar
    40    41    42    1
    41    42    43    2
    42    42    37    1
    43    36    31   ar
    44     6     1    1
    45    26    20   ar
    46    18    12   ar
    47    27    30    1
    48     4    10    1
    49     9    11    1
@<TRIPOS>MOLECULE
*****
 45 49 0 0 0
SMALL
GASTEIGER

@<TRIPOS>ATOM
      1 C          -6.4903  -16.2082   23.9608 C.3     1  UNL1        0.1562
      2 C          -7.7332  -15.3203   24.1049 C.3     1  UNL1        0.0622
      3 C          -8.6836  -15.6847   22.9331 C.3     1  UNL1        0.1294
      4 O          -9.1126  -14.4960   22.3092 O.3     1  UNL1       -0.3808
      5 C          -7.8169  -16.4810   21.9422 C.3     1  UNL1        0.1264
      6 N          -6.5857  -16.8161   22.6412 N.am    1  UNL1       -0.2544
      7 C          -5.6363  -17.7567   22.1051 C.2     1  UNL1        0.3081
      8 O          -5.7660  -18.1616   20.9174 O.2     1  UNL1       -0.2522
      9 N          -4.5589  -18.2541   22.9135 N.am    1  UNL1       -0.2681
     10 H          -9.6220  -13.9732   22.9837 H       1  UNL1        0.2107
     11 H          -4.7121  -18.3363   23.9432 H       1  UNL1        0.1564
     12 C          -9.8861  -16.5427   23.3701 C.ar    1  UNL1        0.0310
     13 C          -9.7414  -17.5243   24.3767 C.ar    1  UNL1        0.0026
     14 C         -10.8132  -18.3421   24.7428 C.ar    1  UNL1        0.0295
     15 C         -12.0401  -18.2220   24.0928 C.ar    1  UNL1        0.1424
     16 F         -13.0771  -19.0204   24.4469 F       1  UNL1       -0.2041
     17 C         -12.1919  -17.2968   23.0606 C.ar    1  UNL1        0.0590
     18 C         -11.1250  -16.4735   22.6852 C.ar    1  UNL1        0.1406
     19 F         -11.3074  -15.6349   21.6341 F       1  UNL1       -0.2044
     20 C          -3.3153  -18.7338   22.3744 C.ar    1  UNL1        0.0516
     21 C          -3.2564  -19.9037   21.5933 C.ar    1  UNL1        0.0156
     22 C          -2.0384  -20.3347   21.0588 C.ar    1  UNL1        0.0127
     23 C          -0.8718  -19.5988   21.2874 C.ar    1  UNL1        0.0578
     24 CL          0.6546  -20.1405   20.6140 Cl      1  UNL1       -0.0822
     25 C          -0.9256  -18.4251   22.0454 C.ar    1  UNL1        0.0127
     26 C          -2.1422  -17.9910   22.5804 C.ar    1  UNL1        0.0156
     27 N          -4.7648  -14.9669   25.4373 N.am    1  UNL1       -0.2680
     28 C          -5.2026  -15.4267   24.1499 C.2     1  UNL1        0.2454
     29 O          -4.4402  -15.2682   23.1595 O.2     1  UNL1       -0.2730
     30 H          -3.7466  -15.0282   25.6636 H       1  UNL1        0.1563
     31 C          -7.3374  -13.3758   28.3709 C.ar    1  UNL1        0.2465
     32 C          -7.5625  -14.6684   27.8747 C.ar    1  UNL1        0.0736
     33 C          -6.7109  -15.2040   26.9073 C.ar    1  UNL1        0.0406
     34 C          -5.6476  -14.4332   26.4268 C.ar    1  UNL1        0.1346
     35 N          -5.4236  -13.1955   26.9444 N.ar    1  UNL1       -0.2228
     36 C          -6.2319  -12.6558   27.8938 C.ar    1  UNL1        0.1691
     37 C          -8.6085  -11.3827   31.2706 C.2     1  UNL1        0.0842
     38 C          -9.9575  -11.7565   31.2540 C.2     1  UNL1        0.0115
     39 C         -10.4269  -12.6326   30.2805 C.2     1  UNL1        0.0755
     40 C          -9.5421  -13.1461   29.3342 C.2     1  UNL1        0.2905
     41 N          -8.2185  -12.8034   29.3575 N.am    1  UNL1       -0.0844
     42 C          -7.7396  -11.9302   30.3044 C.2     1  UNL1        0.4188
     43 O          -6.5197  -11.6024   30.3070 O.2     1  UNL1       -0.2139
     44 C          -8.4046  -11.0124   33.7318 C.3     1  UNL1        0.0054
     45 C          -8.1040  -10.4510   32.3459 C.3     1  UNL1        0.0361
@<TRIPOS>BOND
     1    44    45    1
     2    45    37    1
     3    37    38    2
     4    38    39    1
     5    39    40    2
     6    40    41    1
     7    41    31    1
     8    31    32   ar
     9    32    33   ar
    10    33    34   ar
    11    34    27    1
    12    27    28   am
    13    28    29    2
    14    28     1    1
    15     1     2    1
    16     2     3    1
    17     3     4    1
    18     3    12    1
    19    12    13   ar
    20    13    14   ar
    21    14    15   ar
    22    15    16    1
    23    15    17   ar
    24    17    18   ar
    25    18    19    1
    26     3     5    1
    27     5     6    1
    28     6     7   am
    29     7     8    2
    30     7     9   am
    31     9    20    1
    32    20    21   ar
    33    21    22   ar
    34    22    23   ar
    35    23    24    1
    36    23    25   ar
    37    25    26   ar
    38    34    35   ar
    39    35    36   ar
    40    41    42    1
    41    42    43    2
    42    42    37    1
    43    36    31   ar
    44     6     1    1
    45    26    20   ar
    46    18    12   ar
    47    27    30    1
    48     4    10    1
    49     9    11    1
@<TRIPOS>MOLECULE
*****
 45 49 0 0 0
SMALL
GASTEIGER

@<TRIPOS>ATOM
      1 C          -7.3435  -12.5062   30.0513 C.3     1  UNL1        0.1562
      2 C          -7.8350  -11.5373   31.1346 C.3     1  UNL1        0.0622
      3 C          -9.3853  -11.6128   31.1347 C.3     1  UNL1        0.1294
      4 O          -9.9043  -10.3028   31.1109 O.3     1  UNL1       -0.3808
      5 C          -9.7559  -12.3180   29.8183 C.3     1  UNL1        0.1264
      6 N          -8.5242  -12.8797   29.2854 N.am    1  UNL1       -0.2544
      7 C          -8.5232  -13.8084   28.1849 C.2     1  UNL1        0.3081
      8 O          -9.5864  -14.0007   27.5335 O.2     1  UNL1       -0.2522
      9 N          -7.3334  -14.5324   27.8360 N.am    1  UNL1       -0.2681
     10 H          -9.6059   -9.8495   31.9436 H       1  UNL1        0.2107
     11 H          -6.6570  -14.7654   28.5967 H       1  UNL1        0.1564
     12 C          -9.9549  -12.4098   32.3236 C.ar    1  UNL1        0.0310
     13 C         -11.0703  -13.2605   32.1509 C.ar    1  UNL1        0.0026
     14 C         -11.6255  -13.9469   33.2336 C.ar    1  UNL1        0.0295
     15 C         -11.1031  -13.7754   34.5142 C.ar    1  UNL1        0.1424
     16 F         -11.6471  -14.4391   35.5639 F       1  UNL1       -0.2041
     17 C         -10.0363  -12.9009   34.7180 C.ar    1  UNL1        0.0590
     18 C          -9.4733  -12.2078   33.6412 C.ar    1  UNL1        0.1406
     19 F          -8.4786  -11.3229   33.9039 F       1  UNL1       -0.2044
     20 C          -7.0668  -15.0365   26.5161 C.ar    1  UNL1        0.0516
     21 C          -5.7738  -14.9924   25.9606 C.ar    1  UNL1        0.0156
     22 C          -5.5357  -15.5132   24.6851 C.ar    1  UNL1        0.0127
     23 C          -6.5796  -16.0925   23.9573 C.ar    1  UNL1        0.0578
     24 CL         -6.2777  -16.7471   22.3581 Cl      1  UNL1       -0.0822
     25 C          -7.8621  -16.1582   24.5102 C.ar    1  UNL1        0.0127
     26 C          -8.1031  -15.6391   25.7859 C.ar    1  UNL1        0.0156
     27 N          -5.8491  -10.5245   29.3180 N.am    1  UNL1       -0.2680
     28 C          -6.2574  -11.8943   29.1850 C.2     1  UNL1        0.2454
     29 O          -5.6201  -12.6416   28.3960 O.2     1  UNL1       -0.2730
     30 H          -4.8307  -10.3034   29.2435 H       1  UNL1        0.1563
     31 C          -8.5488   -7.3547   29.9656 C.ar    1  UNL1        0.2465
     32 C          -7.2881   -7.3319   30.5802 C.ar    1  UNL1        0.0736
     33 C          -6.3866   -8.3755   30.3653 C.ar    1  UNL1        0.0406
     34 C          -6.7607   -9.4483   29.5500 C.ar    1  UNL1        0.1346
     35 N          -7.9735   -9.4370   28.9344 N.ar    1  UNL1       -0.2228
     36 C          -8.8646   -8.4281   29.1192 C.ar    1  UNL1        0.1691
     37 C         -11.4375   -5.3973   31.3147 C.2     1  UNL1        0.0842
     38 C         -11.3121   -4.2231   30.5626 C.2     1  UNL1        0.0115
     39 C         -10.2718   -4.0875   29.6490 C.2     1  UNL1        0.0755
     40 C          -9.3672   -5.1336   29.4775 C.2     1  UNL1        0.2905
     41 N          -9.4963   -6.2924   30.1919 N.am    1  UNL1       -0.0844
     42 C         -10.5106   -6.4394   31.1073 C.2     1  UNL1        0.4188
     43 O         -10.6113   -7.5050   31.7783 O.2     1  UNL1       -0.2139
     44 C         -13.3036   -6.8727   32.0745 C.3     1  UNL1        0.0054
     45 C         -12.5842   -5.5445   32.2854 C.3     1  UNL1        0.0361
@<TRIPOS>BOND
     1    44    45    1
     2    45    37    1
     3    37    38    2
     4    38    39    1
     5    39    40    2
     6    40    41    1
     7    41    31    1
     8    31    32   ar
     9    32    33   ar
    10    33    34   ar
    11    34    27    1
    12    27    28   am
    13    28    29    2
    14    28     1    1
    15     1     2    1
    16     2     3    1
    17     3     4    1
    18     3    12    1
    19    12    13   ar
    20    13    14   ar
    21    14    15   ar
    22    15    16    1
    23    15    17   ar
    24    17    18   ar
    25    18    19    1
    26     3     5    1
    27     5     6    1
    28     6     7   am
    29     7     8    2
    30     7     9   am
    31     9    20    1
    32    20    21   ar
    33    21    22   ar
    34    22    23   ar
    35    23    24    1
    36    23    25   ar
    37    25    26   ar
    38    34    35   ar
    39    35    36   ar
    40    41    42    1
    41    42    43    2
    42    42    37    1
    43    36    31   ar
    44     6     1    1
    45    26    20   ar
    46    18    12   ar
    47    27    30    1
    48     4    10    1
    49     9    11    1
@<TRIPOS>MOLECULE
*****
 45 49 0 0 0
SMALL
GASTEIGER

@<TRIPOS>ATOM
      1 C          -7.8762  -15.1579   26.1830 C.3     1  UNL1        0.1562
      2 C          -7.6923  -16.3363   25.2179 C.3     1  UNL1        0.0622
      3 C          -8.8091  -17.3633   25.5454 C.3     1  UNL1        0.1294
      4 O          -8.2297  -18.6425   25.6648 O.3     1  UNL1       -0.3808
      5 C          -9.3603  -16.9376   26.9174 C.3     1  UNL1        0.1264
      6 N          -8.8325  -15.6084   27.1844 N.am    1  UNL1       -0.2544
      7 C          -9.3213  -14.7976   28.2693 C.2     1  UNL1        0.3081
      8 O         -10.0859  -15.3100   29.1321 O.2     1  UNL1       -0.2522
      9 N          -8.9661  -13.4098   28.3668 N.am    1  UNL1       -0.2681
     10 H          -7.8321  -18.8722   24.7834 H       1  UNL1        0.2107
     11 H          -8.7860  -12.8835   27.4831 H       1  UNL1        0.1564
     12 C          -9.9511  -17.3698   24.5115 C.ar    1  UNL1        0.0310
     13 C         -10.1636  -16.2562   23.6674 C.ar    1  UNL1        0.0026
     14 C         -11.2281  -16.2324   22.7631 C.ar    1  UNL1        0.0295
     15 C         -12.1208  -17.3009   22.7033 C.ar    1  UNL1        0.1424
     16 F         -13.1558  -17.2727   21.8280 F       1  UNL1       -0.2041
     17 C         -11.9624  -18.3875   23.5627 C.ar    1  UNL1        0.0590
     18 C         -10.9006  -18.4214   24.4728 C.ar    1  UNL1        0.1406
     19 F         -10.8287  -19.4724   25.3281 F       1  UNL1       -0.2044
     20 C          -8.9368  -12.6810   29.6059 C.ar    1  UNL1        0.0516
     21 C          -7.8304  -11.8879   29.9653 C.ar    1  UNL1        0.0156
     22 C          -7.8378  -11.1681   31.1639 C.ar    1  UNL1        0.0127
     23 C          -8.9508  -11.2224   32.0085 C.ar    1  UNL1        0.0578
     24 CL         -8.9583  -10.3168   33.5108 Cl      1  UNL1       -0.0822
     25 C         -10.0615  -11.9919   31.6491 C.ar    1  UNL1        0.0127
     26 C         -10.0574  -12.7120   30.4506 C.ar    1  UNL1        0.0156
     27 N          -5.3987  -14.4322   25.9996 N.am    1  UNL1       -0.2680
     28 C          -6.5617  -14.7076   26.7946 C.2     1  UNL1        0.2454
     29 O          -6.5209  -14.4656   28.0304 O.2     1  UNL1       -0.2730
     30 H          -4.8068  -13.6109   26.2583 H       1  UNL1        0.1563
     31 C          -4.2211  -16.7657   22.6945 C.ar    1  UNL1        0.2465
     32 C          -4.7734  -15.4930   22.4867 C.ar    1  UNL1        0.0736
     33 C          -5.1600  -14.7123   23.5770 C.ar    1  UNL1        0.0406
     34 C          -5.0094  -15.2192   24.8716 C.ar    1  UNL1        0.1346
     35 N          -4.4400  -16.4405   25.0559 N.ar    1  UNL1       -0.2228
     36 C          -4.0460  -17.2155   24.0117 C.ar    1  UNL1        0.1691
     37 C          -2.1984  -18.3155   19.9554 C.2     1  UNL1        0.0842
     38 C          -3.1517  -19.1798   19.4040 C.2     1  UNL1        0.0115
     39 C          -4.4269  -19.2549   19.9549 C.2     1  UNL1        0.0755
     40 C          -4.7516  -18.4530   21.0475 C.2     1  UNL1        0.2905
     41 N          -3.8331  -17.5899   21.5776 N.am    1  UNL1       -0.0844
     42 C          -2.5650  -17.5110   21.0538 C.2     1  UNL1        0.4188
     43 O          -1.7156  -16.7261   21.5618 O.2     1  UNL1       -0.2139
     44 C           0.2246  -18.8424   20.2516 C.3     1  UNL1        0.0054
     45 C          -0.8253  -18.2232   19.3349 C.3     1  UNL1        0.0361
@<TRIPOS>BOND
     1    44    45    1
     2    45    37    1
     3    37    38    2
     4    38    39    1
     5    39    40    2
     6    40    41    1
     7    41    31    1
     8    31    32   ar
     9    32    33   ar
    10    33    34   ar
    11    34    27    1
    12    27    28   am
    13    28    29    2
    14    28     1    1
    15     1     2    1
    16     2     3    1
    17     3     4    1
    18     3    12    1
    19    12    13   ar
    20    13    14   ar
    21    14    15   ar
    22    15    16    1
    23    15    17   ar
    24    17    18   ar
    25    18    19    1
    26     3     5    1
    27     5     6    1
    28     6     7   am
    29     7     8    2
    30     7     9   am
    31     9    20    1
    32    20    21   ar
    33    21    22   ar
    34    22    23   ar
    35    23    24    1
    36    23    25   ar
    37    25    26   ar
    38    34    35   ar
    39    35    36   ar
    40    41    42    1
    41    42    43    2
    42    42    37    1
    43    36    31   ar
    44     6     1    1
    45    26    20   ar
    46    18    12   ar
    47    27    30    1
    48     4    10    1
    49     9    11    1
