@<TRIPOS>MOLECULE
*****
 46 51 0 0 0
SMALL
GASTEIGER

@<TRIPOS>ATOM
      1 C         -64.5347  -52.0651  -25.2572 C.ar    1  UNL1        0.0702
      2 C         -64.2063  -52.1362  -23.8991 C.ar    1  UNL1        0.0191
      3 C         -64.7467  -53.1403  -23.0945 C.ar    1  UNL1        0.0357
      4 C         -65.6404  -54.0745  -23.6506 C.ar    1  UNL1        0.1334
      5 N         -65.9631  -53.9652  -24.9705 N.ar    1  UNL1       -0.2278
      6 C         -65.4463  -52.9984  -25.7736 C.ar    1  UNL1        0.1149
      7 N         -66.2152  -55.1388  -22.8532 N.pl3   1  UNL1       -0.2718
      8 C         -67.3667  -55.9090  -23.3605 C.3     1  UNL1        0.0944
      9 C         -68.0365  -56.7416  -22.2584 C.3     1  UNL1        0.0254
     10 C         -68.1168  -55.9265  -20.9590 C.3     1  UNL1        0.0496
     11 C         -66.7051  -55.5372  -20.4475 C.3     1  UNL1        0.0545
     12 C         -65.6233  -55.5031  -21.5527 C.3     1  UNL1        0.1897
     13 O         -65.0104  -56.7619  -21.6724 O.3     1  UNL1       -0.3670
     14 H         -64.3914  -56.8590  -20.9018 H       1  UNL1        0.2122
     15 C         -68.9115  -56.6953  -19.8859 C.3     1  UNL1        0.2055
     16 O         -69.3440  -55.8209  -18.8419 O.3     1  UNL1       -0.4755
     17 C         -68.9703  -55.9128  -17.4911 C.ar    1  UNL1        0.1388
     18 C         -69.8417  -56.3812  -16.4896 C.ar    1  UNL1        0.0369
     19 C         -69.4143  -56.4486  -15.1622 C.ar    1  UNL1        0.0033
     20 C         -68.1191  -56.0558  -14.8183 C.ar    1  UNL1        0.0066
     21 C         -67.2328  -55.5913  -15.8041 C.ar    1  UNL1        0.0785
     22 C         -67.6706  -55.5264  -17.1397 C.ar    1  UNL1        0.0433
     23 C         -65.8601  -55.1773  -15.4383 C.2     1  UNL1        0.3381
     24 O         -65.6707  -54.1666  -14.7087 O.2     1  UNL1       -0.2451
     25 O         -64.7627  -55.9015  -15.8972 O.3     1  UNL1       -0.4771
     26 H         -63.8188  -55.6268  -15.6528 H       1  UNL1        0.2954
     27 C         -64.0360  -49.6187  -25.7175 C.2     1  UNL1        0.2839
     28 O         -64.7933  -49.2239  -24.7904 O.2     1  UNL1       -0.2665
     29 N         -63.9871  -51.0113  -26.0681 N.am    1  UNL1       -0.2766
     30 H         -63.6061  -51.2673  -27.0072 H       1  UNL1        0.1553
     31 C         -64.1791  -49.0284  -28.8646 C.3     1  UNL1        0.0345
     32 C         -63.2869  -48.3829  -27.8474 C.ar    1  UNL1        0.0202
     33 C         -63.2272  -48.6440  -26.4739 C.ar    1  UNL1        0.1946
     34 O         -62.3165  -47.8733  -25.9063 O.2     1  UNL1       -0.4492
     35 C         -61.7815  -47.1265  -26.8412 C.ar    1  UNL1        0.1452
     36 C         -60.7809  -46.1729  -26.6900 C.ar    1  UNL1        0.0375
     37 C         -60.3492  -45.4817  -27.8352 C.ar    1  UNL1        0.0031
     38 C         -60.9209  -45.7518  -29.1079 C.ar    1  UNL1        0.0002
     39 C         -61.9380  -46.7303  -29.2182 C.ar    1  UNL1        0.0028
     40 C         -62.3422  -47.3971  -28.0606 C.ar    1  UNL1        0.0337
     41 C         -60.4566  -45.0152  -30.3109 C.ar    1  UNL1        0.0000
     42 C         -59.1294  -45.1459  -30.7624 C.ar    1  UNL1        0.0000
     43 C         -58.6954  -44.4518  -31.8960 C.ar    1  UNL1        0.0000
     44 C         -59.5778  -43.6208  -32.5898 C.ar    1  UNL1        0.0000
     45 C         -60.8966  -43.4825  -32.1518 C.ar    1  UNL1        0.0000
     46 C         -61.3364  -44.1749  -31.0195 C.ar    1  UNL1        0.0000
@<TRIPOS>BOND
     1    31    32    1
     2    32    33   ar
     3    33    27    1
     4    27    28    2
     5    27    29   am
     6    29     1    1
     7     1     2   ar
     8     2     3   ar
     9     3     4   ar
    10     4     7    1
    11     7     8    1
    12     8     9    1
    13     9    10    1
    14    10    15    1
    15    15    16    1
    16    16    17    1
    17    17    18   ar
    18    18    19   ar
    19    19    20   ar
    20    20    21   ar
    21    21    23    1
    22    23    24    2
    23    23    25    1
    24    21    22   ar
    25    10    11    1
    26    11    12    1
    27    12    13    1
    28     4     5   ar
    29     5     6   ar
    30    33    34   ar
    31    34    35   ar
    32    35    36   ar
    33    36    37   ar
    34    37    38   ar
    35    38    41    1
    36    41    42   ar
    37    42    43   ar
    38    43    44   ar
    39    44    45   ar
    40    45    46   ar
    41    38    39   ar
    42    39    40   ar
    43    40    32   ar
    44     6     1   ar
    45    40    35   ar
    46    12     7    1
    47    46    41   ar
    48    22    17   ar
    49    29    30    1
    50    25    26    1
    51    13    14    1
@<TRIPOS>MOLECULE
*****
 46 51 0 0 0
SMALL
GASTEIGER

@<TRIPOS>ATOM
      1 C         -64.4440  -52.1093  -24.6424 C.ar    1  UNL1        0.0702
      2 C         -63.7703  -52.4747  -23.4721 C.ar    1  UNL1        0.0191
      3 C         -64.3121  -53.4354  -22.6170 C.ar    1  UNL1        0.0357
      4 C         -65.5516  -54.0256  -22.9270 C.ar    1  UNL1        0.1334
      5 N         -66.1985  -53.6310  -24.0602 N.ar    1  UNL1       -0.2278
      6 C         -65.6882  -52.7006  -24.9091 C.ar    1  UNL1        0.1149
      7 N         -66.1437  -55.0345  -22.0724 N.pl3   1  UNL1       -0.2718
      8 C         -66.3187  -56.4148  -22.5630 C.3     1  UNL1        0.0944
      9 C         -67.2539  -57.2344  -21.6629 C.3     1  UNL1        0.0254
     10 C         -68.4478  -56.3741  -21.2231 C.3     1  UNL1        0.0496
     11 C         -67.9849  -55.1410  -20.4036 C.3     1  UNL1        0.0545
     12 C         -66.5261  -54.7104  -20.6857 C.3     1  UNL1        0.1897
     13 O         -65.6466  -55.3684  -19.8093 O.3     1  UNL1       -0.3670
     14 H         -65.7329  -54.9268  -18.9239 H       1  UNL1        0.2122
     15 C         -69.4656  -57.2221  -20.4365 C.3     1  UNL1        0.2055
     16 O         -69.1948  -57.1802  -19.0341 O.3     1  UNL1       -0.4755
     17 C         -69.9523  -56.4874  -18.0754 C.ar    1  UNL1        0.1388
     18 C         -71.0306  -55.6492  -18.4167 C.ar    1  UNL1        0.0369
     19 C         -71.7462  -54.9844  -17.4191 C.ar    1  UNL1        0.0033
     20 C         -71.4008  -55.1484  -16.0760 C.ar    1  UNL1        0.0066
     21 C         -70.3319  -55.9852  -15.7149 C.ar    1  UNL1        0.0785
     22 C         -69.6154  -56.6520  -16.7258 C.ar    1  UNL1        0.0433
     23 C         -69.9684  -56.1593  -14.2912 C.2     1  UNL1        0.3381
     24 O         -70.5728  -57.0038  -13.5761 O.2     1  UNL1       -0.2451
     25 O         -68.9533  -55.3909  -13.7269 O.3     1  UNL1       -0.4771
     26 H         -68.6964  -55.5021  -12.7533 H       1  UNL1        0.2954
     27 C         -64.0689  -49.6894  -25.3124 C.2     1  UNL1        0.2839
     28 O         -64.9514  -49.2660  -24.5182 O.2     1  UNL1       -0.2665
     29 N         -63.8836  -51.1016  -25.5018 N.am    1  UNL1       -0.2766
     30 H         -63.3824  -51.4192  -26.3623 H       1  UNL1        0.1553
     31 C         -64.1272  -49.2204  -28.4825 C.3     1  UNL1        0.0345
     32 C         -63.2729  -48.5252  -27.4655 C.ar    1  UNL1        0.0202
     33 C         -63.2502  -48.7334  -26.0819 C.ar    1  UNL1        0.1946
     34 O         -62.3657  -47.9299  -25.5183 O.2     1  UNL1       -0.4492
     35 C         -61.8128  -47.2120  -26.4653 C.ar    1  UNL1        0.1452
     36 C         -60.8286  -46.2403  -26.3219 C.ar    1  UNL1        0.0375
     37 C         -60.3720  -45.5873  -27.4798 C.ar    1  UNL1        0.0031
     38 C         -60.9030  -45.9128  -28.7572 C.ar    1  UNL1        0.0002
     39 C         -61.9046  -46.9081  -28.8592 C.ar    1  UNL1        0.0028
     40 C         -62.3343  -47.5359  -27.6890 C.ar    1  UNL1        0.0337
     41 C         -60.4128  -45.2161  -29.9736 C.ar    1  UNL1        0.0000
     42 C         -59.0867  -45.3909  -30.4131 C.ar    1  UNL1        0.0000
     43 C         -58.6281  -44.7344  -31.5594 C.ar    1  UNL1        0.0000
     44 C         -59.4848  -43.8975  -32.2779 C.ar    1  UNL1        0.0000
     45 C         -60.8023  -43.7156  -31.8520 C.ar    1  UNL1        0.0000
     46 C         -61.2666  -44.3704  -30.7071 C.ar    1  UNL1        0.0000
@<TRIPOS>BOND
     1    31    32    1
     2    32    33   ar
     3    33    27    1
     4    27    28    2
     5    27    29   am
     6    29     1    1
     7     1     2   ar
     8     2     3   ar
     9     3     4   ar
    10     4     7    1
    11     7     8    1
    12     8     9    1
    13     9    10    1
    14    10    15    1
    15    15    16    1
    16    16    17    1
    17    17    18   ar
    18    18    19   ar
    19    19    20   ar
    20    20    21   ar
    21    21    23    1
    22    23    24    2
    23    23    25    1
    24    21    22   ar
    25    10    11    1
    26    11    12    1
    27    12    13    1
    28     4     5   ar
    29     5     6   ar
    30    33    34   ar
    31    34    35   ar
    32    35    36   ar
    33    36    37   ar
    34    37    38   ar
    35    38    41    1
    36    41    42   ar
    37    42    43   ar
    38    43    44   ar
    39    44    45   ar
    40    45    46   ar
    41    38    39   ar
    42    39    40   ar
    43    40    32   ar
    44     6     1   ar
    45    40    35   ar
    46    12     7    1
    47    46    41   ar
    48    22    17   ar
    49    29    30    1
    50    25    26    1
    51    13    14    1
@<TRIPOS>MOLECULE
*****
 46 51 0 0 0
SMALL
GASTEIGER

@<TRIPOS>ATOM
      1 C         -65.9999  -53.8886  -22.9603 C.ar    1  UNL1        0.0702
      2 C         -66.0715  -55.1709  -22.4055 C.ar    1  UNL1        0.0191
      3 C         -67.2697  -55.8859  -22.4342 C.ar    1  UNL1        0.0357
      4 C         -68.4153  -55.3047  -23.0092 C.ar    1  UNL1        0.1334
      5 N         -68.3231  -54.0435  -23.5184 N.ar    1  UNL1       -0.2278
      6 C         -67.1664  -53.3304  -23.5048 C.ar    1  UNL1        0.1149
      7 N         -69.6755  -56.0167  -23.0694 N.pl3   1  UNL1       -0.2718
      8 C         -70.0075  -56.8421  -24.2462 C.3     1  UNL1        0.0944
      9 C         -71.4922  -57.2309  -24.2799 C.3     1  UNL1        0.0254
     10 C         -72.3587  -56.0343  -23.8599 C.3     1  UNL1        0.0496
     11 C         -72.0345  -55.5819  -22.4119 C.3     1  UNL1        0.0545
     12 C         -70.6157  -55.9716  -21.9344 C.3     1  UNL1        0.1897
     13 O         -70.6398  -57.2341  -21.3177 O.3     1  UNL1       -0.3670
     14 H         -71.0398  -57.1109  -20.4171 H       1  UNL1        0.2122
     15 C         -73.8546  -56.3650  -24.0240 C.3     1  UNL1        0.2055
     16 O         -74.5174  -55.3719  -24.8089 O.3     1  UNL1       -0.4755
     17 C         -73.9663  -54.6994  -25.9120 C.ar    1  UNL1        0.1388
     18 C         -74.7557  -54.0677  -26.8916 C.ar    1  UNL1        0.0369
     19 C         -74.1506  -53.4156  -27.9677 C.ar    1  UNL1        0.0033
     20 C         -72.7591  -53.3816  -28.0788 C.ar    1  UNL1        0.0066
     21 C         -71.9541  -54.0008  -27.1084 C.ar    1  UNL1        0.0785
     22 C         -72.5709  -54.6560  -26.0266 C.ar    1  UNL1        0.0433
     23 C         -70.4796  -53.9623  -27.2266 C.2     1  UNL1        0.3381
     24 O         -69.9192  -54.2342  -28.3229 O.2     1  UNL1       -0.2451
     25 O         -69.6958  -53.6247  -26.1262 O.3     1  UNL1       -0.4771
     26 H         -68.6856  -53.5952  -26.1961 H       1  UNL1        0.2954
     27 C         -64.1714  -52.4891  -24.0295 C.2     1  UNL1        0.2839
     28 O         -64.5827  -52.7281  -25.1968 O.2     1  UNL1       -0.2665
     29 N         -64.7639  -53.1557  -22.9030 N.am    1  UNL1       -0.2766
     30 H         -64.2237  -53.1812  -22.0086 H       1  UNL1        0.1553
     31 C         -64.2606  -49.2941  -24.2687 C.3     1  UNL1        0.0345
     32 C         -63.0852  -50.1580  -23.9233 C.ar    1  UNL1        0.0202
     33 C         -63.0504  -51.5532  -23.8204 C.ar    1  UNL1        0.1946
     34 O         -61.8336  -51.9522  -23.4949 O.2     1  UNL1       -0.4492
     35 C         -61.0772  -50.8878  -23.3824 C.ar    1  UNL1        0.1452
     36 C         -59.7262  -50.8432  -23.0564 C.ar    1  UNL1        0.0375
     37 C         -59.1039  -49.5846  -22.9917 C.ar    1  UNL1        0.0031
     38 C         -59.8369  -48.3952  -23.2519 C.ar    1  UNL1        0.0002
     39 C         -61.2112  -48.4848  -23.5799 C.ar    1  UNL1        0.0028
     40 C         -61.7965  -49.7506  -23.6352 C.ar    1  UNL1        0.0337
     41 C         -59.1687  -47.0710  -23.1806 C.ar    1  UNL1        0.0000
     42 C         -57.8085  -46.9735  -22.8304 C.ar    1  UNL1        0.0000
     43 C         -57.1816  -45.7253  -22.7650 C.ar    1  UNL1        0.0000
     44 C         -57.9029  -44.5629  -23.0466 C.ar    1  UNL1        0.0000
     45 C         -59.2528  -44.6463  -23.3948 C.ar    1  UNL1        0.0000
     46 C         -59.8845  -45.8919  -23.4628 C.ar    1  UNL1        0.0000
@<TRIPOS>BOND
     1    31    32    1
     2    32    33   ar
     3    33    27    1
     4    27    28    2
     5    27    29   am
     6    29     1    1
     7     1     2   ar
     8     2     3   ar
     9     3     4   ar
    10     4     7    1
    11     7     8    1
    12     8     9    1
    13     9    10    1
    14    10    15    1
    15    15    16    1
    16    16    17    1
    17    17    18   ar
    18    18    19   ar
    19    19    20   ar
    20    20    21   ar
    21    21    23    1
    22    23    24    2
    23    23    25    1
    24    21    22   ar
    25    10    11    1
    26    11    12    1
    27    12    13    1
    28     4     5   ar
    29     5     6   ar
    30    33    34   ar
    31    34    35   ar
    32    35    36   ar
    33    36    37   ar
    34    37    38   ar
    35    38    41    1
    36    41    42   ar
    37    42    43   ar
    38    43    44   ar
    39    44    45   ar
    40    45    46   ar
    41    38    39   ar
    42    39    40   ar
    43    40    32   ar
    44     6     1   ar
    45    40    35   ar
    46    12     7    1
    47    46    41   ar
    48    22    17   ar
    49    29    30    1
    50    25    26    1
    51    13    14    1
@<TRIPOS>MOLECULE
*****
 46 51 0 0 0
SMALL
GASTEIGER

@<TRIPOS>ATOM
      1 C         -63.9200  -50.9700  -24.3021 C.ar    1  UNL1        0.0702
      2 C         -63.1201  -51.8646  -23.5831 C.ar    1  UNL1        0.0191
      3 C         -63.6394  -53.0867  -23.1537 C.ar    1  UNL1        0.0357
      4 C         -64.9804  -53.4111  -23.4315 C.ar    1  UNL1        0.1334
      5 N         -65.7441  -52.5091  -24.1107 N.ar    1  UNL1       -0.2278
      6 C         -65.2587  -51.3152  -24.5417 C.ar    1  UNL1        0.1149
      7 N         -65.5554  -54.6735  -23.0136 N.pl3   1  UNL1       -0.2718
      8 C         -66.4811  -55.3996  -23.9037 C.3     1  UNL1        0.0944
      9 C         -67.2362  -56.5149  -23.1673 C.3     1  UNL1        0.0254
     10 C         -67.6661  -56.0286  -21.7753 C.3     1  UNL1        0.0496
     11 C         -66.4392  -55.6512  -20.9043 C.3     1  UNL1        0.0545
     12 C         -65.1802  -55.2755  -21.7210 C.3     1  UNL1        0.1897
     13 O         -64.3998  -56.4184  -21.9648 O.3     1  UNL1       -0.3670
     14 H         -63.9316  -56.6378  -21.1168 H       1  UNL1        0.2122
     15 C         -68.5454  -57.0856  -21.0801 C.3     1  UNL1        0.2055
     16 O         -69.8394  -56.5600  -20.7784 O.3     1  UNL1       -0.4755
     17 C         -70.2166  -55.9624  -19.5646 C.ar    1  UNL1        0.1388
     18 C         -69.6440  -56.3194  -18.3291 C.ar    1  UNL1        0.0369
     19 C         -70.0611  -55.6911  -17.1541 C.ar    1  UNL1        0.0033
     20 C         -71.0457  -54.7018  -17.1955 C.ar    1  UNL1        0.0066
     21 C         -71.6248  -54.3273  -18.4192 C.ar    1  UNL1        0.0785
     22 C         -71.1993  -54.9649  -19.5993 C.ar    1  UNL1        0.0433
     23 C         -72.6668  -53.2775  -18.4617 C.2     1  UNL1        0.3381
     24 O         -73.8193  -53.5023  -18.0021 O.2     1  UNL1       -0.2451
     25 O         -72.3837  -52.0293  -19.0103 O.3     1  UNL1       -0.4771
     26 H         -73.0897  -51.3035  -19.0443 H       1  UNL1        0.2954
     27 C         -63.6203  -49.1090  -26.0029 C.2     1  UNL1        0.2839
     28 O         -64.1240  -49.7926  -26.9345 O.2     1  UNL1       -0.2665
     29 N         -63.3770  -49.7050  -24.7183 N.am    1  UNL1       -0.2766
     30 H         -62.6979  -49.2328  -24.0794 H       1  UNL1        0.1553
     31 C         -63.6262  -47.5648  -28.8114 C.3     1  UNL1        0.0345
     32 C         -63.2418  -47.0258  -27.4664 C.ar    1  UNL1        0.0202
     33 C         -63.2402  -47.7038  -26.2422 C.ar    1  UNL1        0.1946
     34 O         -62.8401  -46.8944  -25.2777 O.2     1  UNL1       -0.4492
     35 C         -62.5811  -45.7266  -25.8134 C.ar    1  UNL1        0.1452
     36 C         -62.1314  -44.5818  -25.1649 C.ar    1  UNL1        0.0375
     37 C         -61.9141  -43.4278  -25.9373 C.ar    1  UNL1        0.0031
     38 C         -62.1484  -43.4345  -27.3391 C.ar    1  UNL1        0.0002
     39 C         -62.6067  -44.6212  -27.9603 C.ar    1  UNL1        0.0028
     40 C         -62.8118  -45.7481  -27.1628 C.ar    1  UNL1        0.0337
     41 C         -61.9151  -42.2092  -28.1449 C.ar    1  UNL1        0.0000
     42 C         -62.8931  -41.7489  -29.0471 C.ar    1  UNL1        0.0000
     43 C         -62.6711  -40.5942  -29.8039 C.ar    1  UNL1        0.0000
     44 C         -61.4737  -39.8879  -29.6703 C.ar    1  UNL1        0.0000
     45 C         -60.4956  -40.3344  -28.7790 C.ar    1  UNL1        0.0000
     46 C         -60.7126  -41.4878  -28.0190 C.ar    1  UNL1        0.0000
@<TRIPOS>BOND
     1    31    32    1
     2    32    33   ar
     3    33    27    1
     4    27    28    2
     5    27    29   am
     6    29     1    1
     7     1     2   ar
     8     2     3   ar
     9     3     4   ar
    10     4     7    1
    11     7     8    1
    12     8     9    1
    13     9    10    1
    14    10    15    1
    15    15    16    1
    16    16    17    1
    17    17    18   ar
    18    18    19   ar
    19    19    20   ar
    20    20    21   ar
    21    21    23    1
    22    23    24    2
    23    23    25    1
    24    21    22   ar
    25    10    11    1
    26    11    12    1
    27    12    13    1
    28     4     5   ar
    29     5     6   ar
    30    33    34   ar
    31    34    35   ar
    32    35    36   ar
    33    36    37   ar
    34    37    38   ar
    35    38    41    1
    36    41    42   ar
    37    42    43   ar
    38    43    44   ar
    39    44    45   ar
    40    45    46   ar
    41    38    39   ar
    42    39    40   ar
    43    40    32   ar
    44     6     1   ar
    45    40    35   ar
    46    12     7    1
    47    46    41   ar
    48    22    17   ar
    49    29    30    1
    50    25    26    1
    51    13    14    1
@<TRIPOS>MOLECULE
*****
 46 51 0 0 0
SMALL
GASTEIGER

@<TRIPOS>ATOM
      1 C         -62.6574  -40.4632  -20.7429 C.ar    1  UNL1        0.0702
      2 C         -63.4882  -40.5330  -19.6195 C.ar    1  UNL1        0.0191
      3 C         -63.9744  -39.3660  -19.0283 C.ar    1  UNL1        0.0357
      4 C         -63.6113  -38.1130  -19.5563 C.ar    1  UNL1        0.1334
      5 N         -62.7792  -38.0744  -20.6354 N.ar    1  UNL1       -0.2278
      6 C         -62.2969  -39.1975  -21.2294 C.ar    1  UNL1        0.1149
      7 N         -64.1027  -36.8781  -18.9798 N.pl3   1  UNL1       -0.2718
      8 C         -64.8425  -36.8961  -17.7035 C.3     1  UNL1        0.0944
      9 C         -65.5634  -35.5680  -17.4339 C.3     1  UNL1        0.0254
     10 C         -66.1977  -35.0414  -18.7299 C.3     1  UNL1        0.0496
     11 C         -65.1234  -34.7695  -19.8154 C.3     1  UNL1        0.0545
     12 C         -63.8219  -35.5847  -19.6299 C.3     1  UNL1        0.1897
     13 O         -62.9089  -34.8695  -18.8365 O.3     1  UNL1       -0.3670
     14 H         -62.5227  -34.1554  -19.4085 H       1  UNL1        0.2122
     15 C         -67.0423  -33.7842  -18.4474 C.3     1  UNL1        0.2055
     16 O         -68.4245  -34.0213  -18.7211 O.3     1  UNL1       -0.4755
     17 C         -69.5047  -33.4745  -18.0091 C.ar    1  UNL1        0.1388
     18 C         -69.3341  -32.6292  -16.8964 C.ar    1  UNL1        0.0369
     19 C         -70.4469  -32.1168  -16.2268 C.ar    1  UNL1        0.0033
     20 C         -71.7365  -32.4353  -16.6572 C.ar    1  UNL1        0.0066
     21 C         -71.9275  -33.2722  -17.7691 C.ar    1  UNL1        0.0785
     22 C         -70.8012  -33.7847  -18.4390 C.ar    1  UNL1        0.0433
     23 C         -73.2947  -33.6072  -18.2251 C.2     1  UNL1        0.3381
     24 O         -73.6433  -33.3849  -19.4162 O.2     1  UNL1       -0.2451
     25 O         -74.2106  -34.1725  -17.3414 O.3     1  UNL1       -0.4771
     26 H         -75.1490  -34.4058  -17.6432 H       1  UNL1        0.2954
     27 C         -60.9614  -42.3478  -20.8733 C.2     1  UNL1        0.2839
     28 O         -60.1606  -41.7669  -20.0922 O.2     1  UNL1       -0.2665
     29 N         -62.1464  -41.6739  -21.3271 N.am    1  UNL1       -0.2766
     30 H         -62.6188  -42.0374  -22.1857 H       1  UNL1        0.1553
     31 C         -62.8785  -44.9117  -20.7173 C.3     1  UNL1        0.0345
     32 C         -61.4961  -44.8306  -21.2915 C.ar    1  UNL1        0.0202
     33 C         -60.6620  -43.7089  -21.3572 C.ar    1  UNL1        0.1946
     34 O         -59.5181  -44.0295  -21.9355 O.2     1  UNL1       -0.4492
     35 C         -59.5668  -45.3016  -22.2472 C.ar    1  UNL1        0.1452
     36 C         -58.5788  -46.0564  -22.8695 C.ar    1  UNL1        0.0375
     37 C         -58.8404  -47.4163  -23.1105 C.ar    1  UNL1        0.0031
     38 C         -60.0791  -47.9987  -22.7284 C.ar    1  UNL1        0.0002
     39 C         -61.0587  -47.1946  -22.0976 C.ar    1  UNL1        0.0028
     40 C         -60.7652  -45.8486  -21.8739 C.ar    1  UNL1        0.0337
     41 C         -60.3442  -49.4366  -22.9882 C.ar    1  UNL1        0.0000
     42 C         -59.6997  -50.1033  -24.0476 C.ar    1  UNL1        0.0000
     43 C         -59.9506  -51.4576  -24.2892 C.ar    1  UNL1        0.0000
     44 C         -60.8457  -52.1601  -23.4793 C.ar    1  UNL1        0.0000
     45 C         -61.4916  -51.5100  -22.4256 C.ar    1  UNL1        0.0000
     46 C         -61.2438  -50.1562  -22.1787 C.ar    1  UNL1        0.0000
@<TRIPOS>BOND
     1    31    32    1
     2    32    33   ar
     3    33    27    1
     4    27    28    2
     5    27    29   am
     6    29     1    1
     7     1     2   ar
     8     2     3   ar
     9     3     4   ar
    10     4     7    1
    11     7     8    1
    12     8     9    1
    13     9    10    1
    14    10    15    1
    15    15    16    1
    16    16    17    1
    17    17    18   ar
    18    18    19   ar
    19    19    20   ar
    20    20    21   ar
    21    21    23    1
    22    23    24    2
    23    23    25    1
    24    21    22   ar
    25    10    11    1
    26    11    12    1
    27    12    13    1
    28     4     5   ar
    29     5     6   ar
    30    33    34   ar
    31    34    35   ar
    32    35    36   ar
    33    36    37   ar
    34    37    38   ar
    35    38    41    1
    36    41    42   ar
    37    42    43   ar
    38    43    44   ar
    39    44    45   ar
    40    45    46   ar
    41    38    39   ar
    42    39    40   ar
    43    40    32   ar
    44     6     1   ar
    45    40    35   ar
    46    12     7    1
    47    46    41   ar
    48    22    17   ar
    49    29    30    1
    50    25    26    1
    51    13    14    1
@<TRIPOS>MOLECULE
*****
 46 51 0 0 0
SMALL
GASTEIGER

@<TRIPOS>ATOM
      1 C         -62.3463  -41.5667  -20.9529 C.ar    1  UNL1        0.0702
      2 C         -62.8070  -42.0911  -22.1653 C.ar    1  UNL1        0.0191
      3 C         -62.1318  -43.1472  -22.7790 C.ar    1  UNL1        0.0357
      4 C         -60.9714  -43.6741  -22.1819 C.ar    1  UNL1        0.1334
      5 N         -60.5304  -43.1261  -21.0142 N.ar    1  UNL1       -0.2278
      6 C         -61.1736  -42.1004  -20.3971 C.ar    1  UNL1        0.1149
      7 N         -60.2472  -44.7772  -22.7800 N.pl3   1  UNL1       -0.2718
      8 C         -60.7306  -45.3930  -24.0304 C.3     1  UNL1        0.0944
      9 C         -60.0438  -46.7355  -24.3172 C.3     1  UNL1        0.0254
     10 C         -59.9046  -47.5431  -23.0182 C.3     1  UNL1        0.0496
     11 C         -59.0325  -46.7936  -21.9770 C.3     1  UNL1        0.0545
     12 C         -58.9902  -45.2606  -22.1795 C.3     1  UNL1        0.1897
     13 O         -57.9228  -44.9108  -23.0238 O.3     1  UNL1       -0.3670
     14 H         -57.0905  -44.9838  -22.4869 H       1  UNL1        0.2122
     15 C         -59.3461  -48.9488  -23.3117 C.3     1  UNL1        0.2055
     16 O         -60.0865  -49.9520  -22.6140 O.3     1  UNL1       -0.4755
     17 C         -61.2767  -50.5490  -23.0609 C.ar    1  UNL1        0.1388
     18 C         -61.6481  -51.8617  -22.7133 C.ar    1  UNL1        0.0369
     19 C         -62.8437  -52.4026  -23.1899 C.ar    1  UNL1        0.0033
     20 C         -63.6816  -51.6455  -24.0112 C.ar    1  UNL1        0.0066
     21 C         -63.3316  -50.3318  -24.3643 C.ar    1  UNL1        0.0785
     22 C         -62.1252  -49.7932  -23.8800 C.ar    1  UNL1        0.0433
     23 C         -64.2215  -49.5301  -25.2331 C.2     1  UNL1        0.3381
     24 O         -63.8453  -49.1818  -26.3851 O.2     1  UNL1       -0.2451
     25 O         -65.4850  -49.1523  -24.7859 O.3     1  UNL1       -0.4771
     26 H         -66.1022  -48.6036  -25.3726 H       1  UNL1        0.2954
     27 C         -62.7084  -39.0837  -20.5674 C.2     1  UNL1        0.2839
     28 O         -61.6178  -38.7741  -21.1184 O.2     1  UNL1       -0.2665
     29 N         -63.0401  -40.4638  -20.3444 N.am    1  UNL1       -0.2766
     30 H         -63.7740  -40.6829  -19.6333 H       1  UNL1        0.1553
     31 C         -65.9075  -39.1025  -20.7634 C.3     1  UNL1        0.0345
     32 C         -65.0272  -38.0303  -20.1951 C.ar    1  UNL1        0.0202
     33 C         -63.6303  -38.0259  -20.1119 C.ar    1  UNL1        0.1946
     34 O         -63.2148  -36.9066  -19.5461 O.2     1  UNL1       -0.4492
     35 C         -64.2701  -36.1843  -19.2592 C.ar    1  UNL1        0.1452
     36 C         -64.2968  -34.9313  -18.6570 C.ar    1  UNL1        0.0375
     37 C         -65.5484  -34.3291  -18.4413 C.ar    1  UNL1        0.0031
     38 C         -66.7487  -34.9845  -18.8281 C.ar    1  UNL1        0.0002
     39 C         -66.6772  -36.2601  -19.4378 C.ar    1  UNL1        0.0028
     40 C         -65.4179  -36.8282  -19.6366 C.ar    1  UNL1        0.0337
     41 C         -68.0653  -34.3384  -18.5951 C.ar    1  UNL1        0.0000
     42 C         -69.2128  -34.7856  -19.2773 C.ar    1  UNL1        0.0000
     43 C         -70.4514  -34.1759  -19.0552 C.ar    1  UNL1        0.0000
     44 C         -70.5590  -33.1152  -18.1530 C.ar    1  UNL1        0.0000
     45 C         -69.4280  -32.6621  -17.4704 C.ar    1  UNL1        0.0000
     46 C         -68.1871  -33.2687  -17.6878 C.ar    1  UNL1        0.0000
@<TRIPOS>BOND
     1    31    32    1
     2    32    33   ar
     3    33    27    1
     4    27    28    2
     5    27    29   am
     6    29     1    1
     7     1     2   ar
     8     2     3   ar
     9     3     4   ar
    10     4     7    1
    11     7     8    1
    12     8     9    1
    13     9    10    1
    14    10    15    1
    15    15    16    1
    16    16    17    1
    17    17    18   ar
    18    18    19   ar
    19    19    20   ar
    20    20    21   ar
    21    21    23    1
    22    23    24    2
    23    23    25    1
    24    21    22   ar
    25    10    11    1
    26    11    12    1
    27    12    13    1
    28     4     5   ar
    29     5     6   ar
    30    33    34   ar
    31    34    35   ar
    32    35    36   ar
    33    36    37   ar
    34    37    38   ar
    35    38    41    1
    36    41    42   ar
    37    42    43   ar
    38    43    44   ar
    39    44    45   ar
    40    45    46   ar
    41    38    39   ar
    42    39    40   ar
    43    40    32   ar
    44     6     1   ar
    45    40    35   ar
    46    12     7    1
    47    46    41   ar
    48    22    17   ar
    49    29    30    1
    50    25    26    1
    51    13    14    1
@<TRIPOS>MOLECULE
*****
 46 51 0 0 0
SMALL
GASTEIGER

@<TRIPOS>ATOM
      1 C         -63.8860  -50.5830  -24.4142 C.ar    1  UNL1        0.0702
      2 C         -63.9411  -49.3905  -25.1435 C.ar    1  UNL1        0.0191
      3 C         -62.9082  -48.4569  -25.0479 C.ar    1  UNL1        0.0357
      4 C         -61.8148  -48.7107  -24.1989 C.ar    1  UNL1        0.1334
      5 N         -61.8003  -49.8688  -23.4799 N.ar    1  UNL1       -0.2278
      6 C         -62.7928  -50.7936  -23.5601 C.ar    1  UNL1        0.1149
      7 N         -60.7167  -47.7734  -24.0790 N.pl3   1  UNL1       -0.2718
      8 C         -59.6587  -47.9924  -23.0745 C.3     1  UNL1        0.0944
      9 C         -58.7884  -46.7445  -22.8695 C.3     1  UNL1        0.0254
     10 C         -59.6685  -45.4858  -22.8570 C.3     1  UNL1        0.0496
     11 C         -60.4189  -45.3071  -24.2029 C.3     1  UNL1        0.0545
     12 C         -60.6118  -46.6222  -24.9944 C.3     1  UNL1        0.1897
     13 O         -59.5258  -46.8320  -25.8611 O.3     1  UNL1       -0.3670
     14 H         -59.6413  -46.2121  -26.6284 H       1  UNL1        0.2122
     15 C         -58.8285  -44.2411  -22.5121 C.3     1  UNL1        0.2055
     16 O         -59.5268  -43.0406  -22.8479 O.3     1  UNL1       -0.4755
     17 C         -60.4457  -42.3712  -22.0232 C.ar    1  UNL1        0.1388
     18 C         -60.2409  -42.1930  -20.6419 C.ar    1  UNL1        0.0369
     19 C         -61.1917  -41.5200  -19.8721 C.ar    1  UNL1        0.0033
     20 C         -62.3503  -41.0155  -20.4663 C.ar    1  UNL1        0.0066
     21 C         -62.5700  -41.1779  -21.8442 C.ar    1  UNL1        0.0785
     22 C         -61.6073  -41.8571  -22.6135 C.ar    1  UNL1        0.0433
     23 C         -63.7974  -40.6411  -22.4727 C.2     1  UNL1        0.3381
     24 O         -64.2851  -41.1933  -23.4959 O.2     1  UNL1       -0.2451
     25 O         -64.4264  -39.5193  -21.9387 O.3     1  UNL1       -0.4771
     26 H         -65.2671  -39.1437  -22.3611 H       1  UNL1        0.2954
     27 C         -64.9592  -52.8236  -23.8915 C.2     1  UNL1        0.2839
     28 O         -63.8839  -53.3066  -23.4450 O.2     1  UNL1       -0.2665
     29 N         -64.9687  -51.5250  -24.5062 N.am    1  UNL1       -0.2766
     30 H         -65.7739  -51.2822  -25.1269 H       1  UNL1        0.1553
     31 C         -67.1784  -52.7106  -21.5816 C.3     1  UNL1        0.0345
     32 C         -67.1770  -53.5631  -22.8147 C.ar    1  UNL1        0.0202
     33 C         -66.2055  -53.6098  -23.8208 C.ar    1  UNL1        0.1946
     34 O         -66.5561  -54.4838  -24.7476 O.2     1  UNL1       -0.4492
     35 C         -67.7045  -55.0072  -24.3938 C.ar    1  UNL1        0.1452
     36 C         -68.4384  -55.9712  -25.0760 C.ar    1  UNL1        0.0375
     37 C         -69.6538  -56.3968  -24.5127 C.ar    1  UNL1        0.0031
     38 C         -70.1157  -55.8554  -23.2826 C.ar    1  UNL1        0.0002
     39 C         -69.3381  -54.8751  -22.6203 C.ar    1  UNL1        0.0028
     40 C         -68.1369  -54.4760  -23.2083 C.ar    1  UNL1        0.0337
     41 C         -71.4014  -56.3128  -22.6969 C.ar    1  UNL1        0.0000
     42 C         -72.5819  -56.3010  -23.4642 C.ar    1  UNL1        0.0000
     43 C         -73.7909  -56.7333  -22.9104 C.ar    1  UNL1        0.0000
     44 C         -73.8362  -57.1802  -21.5880 C.ar    1  UNL1        0.0000
     45 C         -72.6722  -57.1965  -20.8165 C.ar    1  UNL1        0.0000
     46 C         -71.4602  -56.7664  -21.3654 C.ar    1  UNL1        0.0000
@<TRIPOS>BOND
     1    31    32    1
     2    32    33   ar
     3    33    27    1
     4    27    28    2
     5    27    29   am
     6    29     1    1
     7     1     2   ar
     8     2     3   ar
     9     3     4   ar
    10     4     7    1
    11     7     8    1
    12     8     9    1
    13     9    10    1
    14    10    15    1
    15    15    16    1
    16    16    17    1
    17    17    18   ar
    18    18    19   ar
    19    19    20   ar
    20    20    21   ar
    21    21    23    1
    22    23    24    2
    23    23    25    1
    24    21    22   ar
    25    10    11    1
    26    11    12    1
    27    12    13    1
    28     4     5   ar
    29     5     6   ar
    30    33    34   ar
    31    34    35   ar
    32    35    36   ar
    33    36    37   ar
    34    37    38   ar
    35    38    41    1
    36    41    42   ar
    37    42    43   ar
    38    43    44   ar
    39    44    45   ar
    40    45    46   ar
    41    38    39   ar
    42    39    40   ar
    43    40    32   ar
    44     6     1   ar
    45    40    35   ar
    46    12     7    1
    47    46    41   ar
    48    22    17   ar
    49    29    30    1
    50    25    26    1
    51    13    14    1
@<TRIPOS>MOLECULE
*****
 46 51 0 0 0
SMALL
GASTEIGER

@<TRIPOS>ATOM
      1 C         -63.8596  -50.9745  -24.3286 C.ar    1  UNL1        0.0702
      2 C         -63.1222  -51.8135  -23.4863 C.ar    1  UNL1        0.0191
      3 C         -63.6621  -53.0234  -23.0475 C.ar    1  UNL1        0.0357
      4 C         -64.9622  -53.3908  -23.4415 C.ar    1  UNL1        0.1334
      5 N         -65.6678  -52.5415  -24.2410 N.ar    1  UNL1       -0.2278
      6 C         -65.1610  -51.3607  -24.6833 C.ar    1  UNL1        0.1149
      7 N         -65.5557  -54.6427  -23.0176 N.pl3   1  UNL1       -0.2718
      8 C         -66.5183  -55.3420  -23.8897 C.3     1  UNL1        0.0944
      9 C         -67.2809  -56.4448  -23.1422 C.3     1  UNL1        0.0254
     10 C         -67.6666  -55.9579  -21.7375 C.3     1  UNL1        0.0496
     11 C         -66.4113  -55.6139  -20.8937 C.3     1  UNL1        0.0545
     12 C         -65.1638  -55.2613  -21.7378 C.3     1  UNL1        0.1897
     13 O         -64.4154  -56.4198  -22.0068 O.3     1  UNL1       -0.3670
     14 H         -63.9324  -56.6553  -21.1716 H       1  UNL1        0.2122
     15 C         -68.5530  -56.9993  -21.0279 C.3     1  UNL1        0.2055
     16 O         -69.5629  -56.3644  -20.2414 O.3     1  UNL1       -0.4755
     17 C         -70.9195  -56.2531  -20.5876 C.ar    1  UNL1        0.1388
     18 C         -71.9494  -56.2076  -19.6290 C.ar    1  UNL1        0.0369
     19 C         -73.2811  -56.0982  -20.0338 C.ar    1  UNL1        0.0033
     20 C         -73.6015  -56.0293  -21.3912 C.ar    1  UNL1        0.0066
     21 C         -72.5877  -56.0671  -22.3627 C.ar    1  UNL1        0.0785
     22 C         -71.2479  -56.1773  -21.9472 C.ar    1  UNL1        0.0433
     23 C         -72.9287  -55.9921  -23.8007 C.2     1  UNL1        0.3381
     24 O         -72.0489  -55.6873  -24.6509 O.2     1  UNL1       -0.2451
     25 O         -74.2268  -56.2582  -24.2290 O.3     1  UNL1       -0.4771
     26 H         -74.4710  -56.2099  -25.2110 H       1  UNL1        0.2954
     27 C         -63.5785  -49.1028  -26.0207 C.2     1  UNL1        0.2839
     28 O         -64.1411  -49.7605  -26.9371 O.2     1  UNL1       -0.2665
     29 N         -63.2982  -49.7207  -24.7541 N.am    1  UNL1       -0.2766
     30 H         -62.5791  -49.2757  -24.1399 H       1  UNL1        0.1553
     31 C         -63.7639  -47.4906  -28.7846 C.3     1  UNL1        0.0345
     32 C         -63.2479  -46.9987  -27.4659 C.ar    1  UNL1        0.0202
     33 C         -63.1682  -47.7063  -26.2612 C.ar    1  UNL1        0.1946
     34 O         -62.6587  -46.9354  -25.3170 O.2     1  UNL1       -0.4492
     35 C         -62.4027  -45.7645  -25.8474 C.ar    1  UNL1        0.1452
     36 C         -61.8579  -44.6525  -25.2150 C.ar    1  UNL1        0.0375
     37 C         -61.6639  -43.4881  -25.9781 C.ar    1  UNL1        0.0031
     38 C         -62.0156  -43.4521  -27.3546 C.ar    1  UNL1        0.0002
     39 C         -62.5682  -44.6064  -27.9600 C.ar    1  UNL1        0.0028
     40 C         -62.7469  -45.7447  -27.1724 C.ar    1  UNL1        0.0337
     41 C         -61.8059  -42.2163  -28.1508 C.ar    1  UNL1        0.0000
     42 C         -60.6214  -41.4678  -28.0122 C.ar    1  UNL1        0.0000
     43 C         -60.4264  -40.3050  -28.7640 C.ar    1  UNL1        0.0000
     44 C         -61.4085  -39.8762  -29.6595 C.ar    1  UNL1        0.0000
     45 C         -62.5880  -40.6096  -29.8058 C.ar    1  UNL1        0.0000
     46 C         -62.7880  -41.7737  -29.0574 C.ar    1  UNL1        0.0000
@<TRIPOS>BOND
     1    31    32    1
     2    32    33   ar
     3    33    27    1
     4    27    28    2
     5    27    29   am
     6    29     1    1
     7     1     2   ar
     8     2     3   ar
     9     3     4   ar
    10     4     7    1
    11     7     8    1
    12     8     9    1
    13     9    10    1
    14    10    15    1
    15    15    16    1
    16    16    17    1
    17    17    18   ar
    18    18    19   ar
    19    19    20   ar
    20    20    21   ar
    21    21    23    1
    22    23    24    2
    23    23    25    1
    24    21    22   ar
    25    10    11    1
    26    11    12    1
    27    12    13    1
    28     4     5   ar
    29     5     6   ar
    30    33    34   ar
    31    34    35   ar
    32    35    36   ar
    33    36    37   ar
    34    37    38   ar
    35    38    41    1
    36    41    42   ar
    37    42    43   ar
    38    43    44   ar
    39    44    45   ar
    40    45    46   ar
    41    38    39   ar
    42    39    40   ar
    43    40    32   ar
    44     6     1   ar
    45    40    35   ar
    46    12     7    1
    47    46    41   ar
    48    22    17   ar
    49    29    30    1
    50    25    26    1
    51    13    14    1
@<TRIPOS>MOLECULE
*****
 46 51 0 0 0
SMALL
GASTEIGER

@<TRIPOS>ATOM
      1 C         -62.6831  -40.4938  -20.7726 C.ar    1  UNL1        0.0702
      2 C         -61.6335  -41.1166  -20.0888 C.ar    1  UNL1        0.0191
      3 C         -60.9007  -42.1356  -20.6990 C.ar    1  UNL1        0.0357
      4 C         -61.2326  -42.5492  -22.0026 C.ar    1  UNL1        0.1334
      5 N         -62.2770  -41.9428  -22.6350 N.ar    1  UNL1       -0.2278
      6 C         -63.0018  -40.9463  -22.0620 C.ar    1  UNL1        0.1149
      7 N         -60.4905  -43.5953  -22.6763 N.pl3   1  UNL1       -0.2718
      8 C         -60.7793  -43.9222  -24.0856 C.3     1  UNL1        0.0944
      9 C         -60.1474  -45.2548  -24.5116 C.3     1  UNL1        0.0254
     10 C         -60.3048  -46.2933  -23.3910 C.3     1  UNL1        0.0496
     11 C         -59.5872  -45.8381  -22.0932 C.3     1  UNL1        0.0545
     12 C         -59.4013  -44.3064  -21.9819 C.3     1  UNL1        0.1897
     13 O         -58.1758  -43.9225  -22.5523 O.3     1  UNL1       -0.3670
     14 H         -57.4628  -44.1769  -21.9094 H       1  UNL1        0.2122
     15 C         -59.8020  -47.6731  -23.8571 C.3     1  UNL1        0.2055
     16 O         -60.7011  -48.2552  -24.8029 O.3     1  UNL1       -0.4755
     17 C         -61.6679  -49.2332  -24.5172 C.ar    1  UNL1        0.1388
     18 C         -63.0038  -49.1333  -24.9499 C.ar    1  UNL1        0.0369
     19 C         -63.9213  -50.1370  -24.6335 C.ar    1  UNL1        0.0033
     20 C         -63.5206  -51.2486  -23.8894 C.ar    1  UNL1        0.0066
     21 C         -62.1907  -51.3695  -23.4537 C.ar    1  UNL1        0.0785
     22 C         -61.2717  -50.3541  -23.7765 C.ar    1  UNL1        0.0433
     23 C         -61.7673  -52.5490  -22.6669 C.2     1  UNL1        0.3381
     24 O         -60.5717  -52.6659  -22.2839 O.2     1  UNL1       -0.2451
     25 O         -62.6871  -53.5426  -22.3412 O.3     1  UNL1       -0.4771
     26 H         -62.4079  -54.3541  -21.8030 H       1  UNL1        0.2954
     27 C         -63.2362  -38.0549  -20.3351 C.2     1  UNL1        0.2839
     28 O         -62.1964  -37.6480  -20.9200 O.2     1  UNL1       -0.2665
     29 N         -63.4432  -39.4607  -20.1222 N.am    1  UNL1       -0.2766
     30 H         -64.1295  -39.7496  -19.3887 H       1  UNL1        0.1553
     31 C         -66.4213  -38.2062  -20.6594 C.3     1  UNL1        0.0345
     32 C         -65.6165  -37.1465  -19.9690 C.ar    1  UNL1        0.0202
     33 C         -64.2254  -37.0840  -19.8301 C.ar    1  UNL1        0.1946
     34 O         -63.8867  -35.9988  -19.1568 O.2     1  UNL1       -0.4492
     35 C         -64.9863  -35.3537  -18.8529 C.ar    1  UNL1        0.1452
     36 C         -65.0970  -34.1592  -18.1499 C.ar    1  UNL1        0.0375
     37 C         -66.3840  -33.6366  -17.9347 C.ar    1  UNL1        0.0031
     38 C         -67.5354  -34.3120  -18.4223 C.ar    1  UNL1        0.0002
     39 C         -67.3787  -35.5262  -19.1330 C.ar    1  UNL1        0.0028
     40 C         -66.0863  -36.0159  -19.3282 C.ar    1  UNL1        0.0337
     41 C         -68.8901  -33.7502  -18.1890 C.ar    1  UNL1        0.0000
     42 C         -69.0679  -32.6371  -17.3453 C.ar    1  UNL1        0.0000
     43 C         -70.3446  -32.1097  -17.1282 C.ar    1  UNL1        0.0000
     44 C         -71.4558  -32.6857  -17.7479 C.ar    1  UNL1        0.0000
     45 C         -71.2926  -33.7903  -18.5868 C.ar    1  UNL1        0.0000
     46 C         -70.0182  -34.3213  -18.8083 C.ar    1  UNL1        0.0000
@<TRIPOS>BOND
     1    31    32    1
     2    32    33   ar
     3    33    27    1
     4    27    28    2
     5    27    29   am
     6    29     1    1
     7     1     2   ar
     8     2     3   ar
     9     3     4   ar
    10     4     7    1
    11     7     8    1
    12     8     9    1
    13     9    10    1
    14    10    15    1
    15    15    16    1
    16    16    17    1
    17    17    18   ar
    18    18    19   ar
    19    19    20   ar
    20    20    21   ar
    21    21    23    1
    22    23    24    2
    23    23    25    1
    24    21    22   ar
    25    10    11    1
    26    11    12    1
    27    12    13    1
    28     4     5   ar
    29     5     6   ar
    30    33    34   ar
    31    34    35   ar
    32    35    36   ar
    33    36    37   ar
    34    37    38   ar
    35    38    41    1
    36    41    42   ar
    37    42    43   ar
    38    43    44   ar
    39    44    45   ar
    40    45    46   ar
    41    38    39   ar
    42    39    40   ar
    43    40    32   ar
    44     6     1   ar
    45    40    35   ar
    46    12     7    1
    47    46    41   ar
    48    22    17   ar
    49    29    30    1
    50    25    26    1
    51    13    14    1
