@<TRIPOS>MOLECULE
*****
 45 50 0 0 0
SMALL
GASTEIGER

@<TRIPOS>ATOM
      1 C         -63.7912  -51.7544  -24.3571 C.ar    1  UNL1        0.0702
      2 C         -63.3387  -52.3426  -23.1658 C.ar    1  UNL1        0.0191
      3 C         -64.0821  -53.3555  -22.5577 C.ar    1  UNL1        0.0356
      4 C         -65.2940  -53.7696  -23.1351 C.ar    1  UNL1        0.1318
      5 N         -65.7188  -53.1724  -24.2831 N.ar    1  UNL1       -0.2279
      6 C         -65.0114  -52.1849  -24.8925 C.ar    1  UNL1        0.1149
      7 N         -66.0902  -54.8147  -22.5399 N.pl3   1  UNL1       -0.2932
      8 C         -66.6209  -55.9166  -23.3554 C.3     1  UNL1        0.0923
      9 C         -66.5930  -57.2341  -22.5705 C.3     1  UNL1        0.0252
     10 C         -67.2322  -57.1030  -21.1729 C.3     1  UNL1        0.0472
     11 C         -66.5865  -55.9378  -20.3982 C.3     1  UNL1        0.0252
     12 C         -66.6290  -54.6244  -21.1865 C.3     1  UNL1        0.0923
     13 C         -68.7662  -56.9751  -21.2333 C.3     1  UNL1        0.2054
     14 O         -69.2995  -56.9119  -19.9122 O.3     1  UNL1       -0.4755
     15 C         -70.0999  -55.8670  -19.4278 C.ar    1  UNL1        0.1388
     16 C         -70.5876  -54.8423  -20.2599 C.ar    1  UNL1        0.0369
     17 C         -71.3821  -53.8248  -19.7279 C.ar    1  UNL1        0.0033
     18 C         -71.6980  -53.8168  -18.3675 C.ar    1  UNL1        0.0066
     19 C         -71.2194  -54.8321  -17.5208 C.ar    1  UNL1        0.0785
     20 C         -70.4197  -55.8533  -18.0643 C.ar    1  UNL1        0.0433
     21 C         -71.5503  -54.8299  -16.0786 C.2     1  UNL1        0.3381
     22 O         -72.7322  -54.6164  -15.6946 O.2     1  UNL1       -0.2451
     23 O         -70.5577  -55.0640  -15.1302 O.3     1  UNL1       -0.4771
     24 H         -70.7736  -55.0648  -14.1404 H       1  UNL1        0.2954
     25 C         -63.5487  -49.3426  -25.1117 C.2     1  UNL1        0.2839
     26 O         -64.5300  -48.9599  -24.4194 O.2     1  UNL1       -0.2665
     27 N         -63.0670  -50.6916  -25.0003 N.am    1  UNL1       -0.2766
     28 H         -62.0968  -50.8948  -25.3321 H       1  UNL1        0.1553
     29 C         -60.9411  -45.6278  -29.0555 C.ar    1  UNL1        0.0002
     30 C         -60.3489  -45.1643  -27.8496 C.ar    1  UNL1        0.0031
     31 C         -60.6686  -45.7567  -26.6157 C.ar    1  UNL1        0.0375
     32 C         -61.5797  -46.8070  -26.6122 C.ar    1  UNL1        0.1452
     33 O         -62.0073  -47.4856  -25.5755 O.2     1  UNL1       -0.4492
     34 C         -62.8648  -48.3923  -26.0093 C.ar    1  UNL1        0.1946
     35 C         -62.9993  -48.2979  -27.3991 C.ar    1  UNL1        0.0202
     36 C         -63.8645  -49.1329  -28.2944 C.3     1  UNL1        0.0345
     37 C         -62.1577  -47.2650  -27.7656 C.ar    1  UNL1        0.0337
     38 C         -61.8637  -46.7005  -29.0078 C.ar    1  UNL1        0.0028
     39 C         -59.6005  -43.1727  -34.1420 C.3     1  UNL1        0.0310
     40 C         -59.9377  -43.7794  -32.8122 C.ar    1  UNL1       -0.0218
     41 C         -61.2364  -43.6715  -32.2950 C.ar    1  UNL1       -0.0043
     42 C         -61.5616  -44.2675  -31.0732 C.ar    1  UNL1       -0.0003
     43 C         -60.5960  -44.9944  -30.3535 C.ar    1  UNL1       -0.0000
     44 C         -59.2997  -45.1148  -30.8862 C.ar    1  UNL1       -0.0003
     45 C         -58.9760  -44.5174  -32.1078 C.ar    1  UNL1       -0.0043
@<TRIPOS>BOND
     1    39    40    1
     2    40    41   ar
     3    41    42   ar
     4    42    43   ar
     5    43    29    1
     6    29    30   ar
     7    30    31   ar
     8    31    32   ar
     9    32    33   ar
    10    33    34   ar
    11    34    25    1
    12    25    26    2
    13    25    27   am
    14    27     1    1
    15     1     2   ar
    16     2     3   ar
    17     3     4   ar
    18     4     7    1
    19     7     8    1
    20     8     9    1
    21     9    10    1
    22    10    13    1
    23    13    14    1
    24    14    15    1
    25    15    16   ar
    26    16    17   ar
    27    17    18   ar
    28    18    19   ar
    29    19    21    1
    30    21    22    2
    31    21    23    1
    32    19    20   ar
    33    10    11    1
    34    11    12    1
    35     4     5   ar
    36     5     6   ar
    37    34    35   ar
    38    35    36    1
    39    35    37   ar
    40    37    38   ar
    41    43    44   ar
    42    44    45   ar
    43    45    40   ar
    44    38    29   ar
    45    37    32   ar
    46     6     1   ar
    47    12     7    1
    48    20    15   ar
    49    27    28    1
    50    23    24    1
