@<TRIPOS>MOLECULE
*****
 39 42 0 0 0
SMALL
GASTEIGER

@<TRIPOS>ATOM
      1 C          46.7948   14.9601  -25.6632 C.ar    1  UNL1        0.0568
      2 C          46.5208   14.0716  -24.6116 C.ar    1  UNL1        0.0420
      3 C          46.1337   12.7469  -24.8774 C.ar    1  UNL1        0.1455
      4 C          46.0479   12.3093  -26.2024 C.ar    1  UNL1        0.0390
      5 C          46.3155   13.1874  -27.2635 C.ar    1  UNL1        0.0205
      6 C          46.6527   14.5196  -26.9886 C.ar    1  UNL1        0.0062
      7 C          46.2199   12.7317  -28.6650 C.ar    1  UNL1        0.0774
      8 N          45.7145   13.5956  -29.5891 N.ar    1  UNL1       -0.2442
      9 C          45.5814   13.2615  -30.8987 C.ar    1  UNL1        0.0988
     10 C          45.9655   11.9964  -31.3382 C.ar    1  UNL1        0.0204
     11 C          46.5027   11.0900  -30.4252 C.ar    1  UNL1       -0.0012
     12 C          46.6598   11.4497  -29.0778 C.ar    1  UNL1       -0.0042
     13 C          47.2779   10.4620  -28.1233 C.3     1  UNL1        0.0326
     14 N          48.4996   16.6466  -24.7867 N.am    1  UNL1       -0.2644
     15 C          47.2209   16.3469  -25.3682 C.2     1  UNL1        0.2507
     16 O          46.4465   17.2994  -25.6542 O.2     1  UNL1       -0.2698
     17 H          48.9030   17.5941  -24.9640 H       1  UNL1        0.1566
     18 N          50.5523   14.5081  -22.8670 N.ar    1  UNL1       -0.2188
     19 C          49.5302   14.6591  -22.0021 C.ar    1  UNL1        0.1008
     20 C          48.6006   15.5080  -22.5663 C.ar    1  UNL1        0.0565
     21 C          49.1391   15.8265  -23.7979 C.ar    1  UNL1        0.1558
     22 N          50.3189   15.2000  -23.9702 N.ar    1  UNL1       -0.1518
     23 C          51.7125   13.6403  -22.6806 C.3     1  UNL1        0.2734
     24 O          51.3482   12.2824  -22.8363 O.3     1  UNL1       -0.3284
     25 C          51.3985   11.8818  -24.1955 C.3     1  UNL1        0.1764
     26 C          52.8281   11.4757  -24.5588 C.3     1  UNL1        0.1743
     27 C          51.9962    9.3099  -24.5893 C.3     1  UNL1        0.1742
     28 O          53.0694   10.1321  -24.1846 O.3     1  UNL1       -0.3484
     29 O          45.8798   11.8277  -23.8484 O.3     1  UNL1       -0.4535
     30 C          46.7271   11.5700  -22.7611 C.ar    1  UNL1        0.1454
     31 C          47.8688   10.7579  -22.8842 C.ar    1  UNL1        0.0388
     32 C          48.6962   10.5340  -21.7799 C.ar    1  UNL1        0.0215
     33 C          48.3977   11.1232  -20.5443 C.ar    1  UNL1        0.1059
     34 C          47.2768   11.9558  -20.4279 C.ar    1  UNL1        0.0215
     35 C          46.4496   12.1798  -21.5324 C.ar    1  UNL1        0.0388
     36 S          49.4493   10.8545  -19.1585 S.O2    1  UNL1        0.0105
     37 C          50.7686   12.0465  -19.1785 C.3     1  UNL1        0.1816
     38 O          50.0240    9.4669  -19.2169 O.2     1  UNL1       -0.1686
     39 O          48.6618   10.9971  -17.8862 O.2     1  UNL1       -0.1686
@<TRIPOS>BOND
     1    27    28    1
     2    28    26    1
     3    26    25    1
     4    25    24    1
     5    24    23    1
     6    23    18    1
     7    18    19   ar
     8    19    20   ar
     9    20    21   ar
    10    21    14    1
    11    14    15   am
    12    15    16    2
    13    15     1    1
    14     1     2   ar
    15     2     3   ar
    16     3    29    1
    17    29    30    1
    18    30    31   ar
    19    31    32   ar
    20    32    33   ar
    21    33    36    1
    22    36    37    1
    23    36    38    2
    24    36    39    2
    25    33    34   ar
    26    34    35   ar
    27     3     4   ar
    28     4     5   ar
    29     5     7    1
    30     7     8   ar
    31     8     9   ar
    32     9    10   ar
    33    10    11   ar
    34    11    12   ar
    35    12    13    1
    36     5     6   ar
    37    21    22   ar
    38    22    18   ar
    39     6     1   ar
    40    35    30   ar
    41    12     7   ar
    42    14    17    1
@<TRIPOS>MOLECULE
*****
 39 42 0 0 0
SMALL
GASTEIGER

@<TRIPOS>ATOM
      1 C          46.0089   14.7588  -27.1367 C.ar    1  UNL1        0.0568
      2 C          45.6515   14.3578  -25.8398 C.ar    1  UNL1        0.0420
      3 C          45.5967   12.9945  -25.5025 C.ar    1  UNL1        0.1455
      4 C          45.9273   12.0354  -26.4645 C.ar    1  UNL1        0.0390
      5 C          46.2829   12.4216  -27.7656 C.ar    1  UNL1        0.0205
      6 C          46.2866   13.7812  -28.1053 C.ar    1  UNL1        0.0062
      7 C          46.6266   11.4118  -28.7871 C.ar    1  UNL1        0.0774
      8 N          47.2096   10.2519  -28.3743 N.ar    1  UNL1       -0.2442
      9 C          47.5676    9.2705  -29.2420 C.ar    1  UNL1        0.0988
     10 C          47.3438    9.4314  -30.6077 C.ar    1  UNL1        0.0204
     11 C          46.7339   10.5979  -31.0673 C.ar    1  UNL1       -0.0012
     12 C          46.3447   11.5981  -30.1631 C.ar    1  UNL1       -0.0042
     13 C          45.6542   12.8301  -30.6864 C.3     1  UNL1        0.0326
     14 N          47.3276   16.8558  -27.7550 N.am    1  UNL1       -0.2644
     15 C          46.0820   16.1988  -27.4723 C.2     1  UNL1        0.2507
     16 O          45.0158   16.8685  -27.5324 O.2     1  UNL1       -0.2698
     17 H          47.2990   17.7140  -28.3506 H       1  UNL1        0.1566
     18 N          50.0649   15.4659  -26.0094 N.ar    1  UNL1       -0.2188
     19 C          50.4957   16.7389  -26.1073 C.ar    1  UNL1        0.1008
     20 C          49.5530   17.4683  -26.8019 C.ar    1  UNL1        0.0565
     21 C          48.5607   16.5508  -27.0876 C.ar    1  UNL1        0.1558
     22 N          48.8813   15.3421  -26.5874 N.ar    1  UNL1       -0.1518
     23 C          50.7388   14.3850  -25.2944 C.3     1  UNL1        0.2734
     24 O          49.8829   13.8257  -24.3169 O.3     1  UNL1       -0.3284
     25 C          50.1750   14.3237  -23.0218 C.3     1  UNL1        0.1764
     26 C          48.9005   14.8829  -22.3869 C.3     1  UNL1        0.1743
     27 C          47.5174   16.4630  -23.3738 C.3     1  UNL1        0.1742
     28 O          47.9143   15.1087  -23.3768 O.3     1  UNL1       -0.3484
     29 O          45.2698   12.5632  -24.2082 O.3     1  UNL1       -0.4535
     30 C          46.1855   12.1164  -23.2447 C.ar    1  UNL1        0.1454
     31 C          47.3656   11.4379  -23.5986 C.ar    1  UNL1        0.0388
     32 C          48.2603   11.0184  -22.6098 C.ar    1  UNL1        0.0215
     33 C          47.9910   11.2774  -21.2594 C.ar    1  UNL1        0.1059
     34 C          46.8300   11.9787  -20.9079 C.ar    1  UNL1        0.0215
     35 C          45.9355   12.3984  -21.8969 C.ar    1  UNL1        0.0388
     36 S          49.1262   10.7637  -20.0162 S.O2    1  UNL1        0.0105
     37 C          48.9260   11.7859  -18.5751 C.3     1  UNL1        0.1816
     38 O          50.5336   10.8876  -20.5292 O.2     1  UNL1       -0.1686
     39 O          48.8697    9.3277  -19.6539 O.2     1  UNL1       -0.1686
@<TRIPOS>BOND
     1    27    28    1
     2    28    26    1
     3    26    25    1
     4    25    24    1
     5    24    23    1
     6    23    18    1
     7    18    19   ar
     8    19    20   ar
     9    20    21   ar
    10    21    14    1
    11    14    15   am
    12    15    16    2
    13    15     1    1
    14     1     2   ar
    15     2     3   ar
    16     3    29    1
    17    29    30    1
    18    30    31   ar
    19    31    32   ar
    20    32    33   ar
    21    33    36    1
    22    36    37    1
    23    36    38    2
    24    36    39    2
    25    33    34   ar
    26    34    35   ar
    27     3     4   ar
    28     4     5   ar
    29     5     7    1
    30     7     8   ar
    31     8     9   ar
    32     9    10   ar
    33    10    11   ar
    34    11    12   ar
    35    12    13    1
    36     5     6   ar
    37    21    22   ar
    38    22    18   ar
    39     6     1   ar
    40    35    30   ar
    41    12     7   ar
    42    14    17    1
@<TRIPOS>MOLECULE
*****
 39 42 0 0 0
SMALL
GASTEIGER

@<TRIPOS>ATOM
      1 C          46.0124   12.7219  -25.2849 C.ar    1  UNL1        0.0568
      2 C          47.2001   13.3780  -24.9249 C.ar    1  UNL1        0.0420
      3 C          48.1227   13.7766  -25.9073 C.ar    1  UNL1        0.1455
      4 C          47.8370   13.5378  -27.2548 C.ar    1  UNL1        0.0390
      5 C          46.6556   12.8800  -27.6290 C.ar    1  UNL1        0.0205
      6 C          45.7657   12.4428  -26.6385 C.ar    1  UNL1        0.0062
      7 C          46.3524   12.6195  -29.0507 C.ar    1  UNL1        0.0774
      8 N          45.8397   13.6380  -29.7961 N.ar    1  UNL1       -0.2442
      9 C          45.5231   13.4891  -31.1083 C.ar    1  UNL1        0.0988
     10 C          45.7176   12.2615  -31.7377 C.ar    1  UNL1        0.0204
     11 C          46.2560   11.1995  -31.0123 C.ar    1  UNL1       -0.0012
     12 C          46.6034   11.3666  -29.6629 C.ar    1  UNL1       -0.0042
     13 C          47.2177   10.2117  -28.9163 C.3     1  UNL1        0.0326
     14 N          45.3856   12.2931  -22.8473 N.am    1  UNL1       -0.2644
     15 C          45.0403   12.3257  -24.2411 C.2     1  UNL1        0.2507
     16 O          43.8642   12.0260  -24.5817 O.2     1  UNL1       -0.2698
     17 H          44.6120   12.4016  -22.1532 H       1  UNL1        0.1566
     18 N          48.4237   10.7048  -21.9992 N.ar    1  UNL1       -0.2188
     19 C          48.5182   11.7890  -21.2046 C.ar    1  UNL1        0.1008
     20 C          47.4068   12.5802  -21.4090 C.ar    1  UNL1        0.0565
     21 C          46.6707   11.8899  -22.3523 C.ar    1  UNL1        0.1558
     22 N          47.2963   10.7461  -22.6903 N.ar    1  UNL1       -0.1518
     23 C          49.3639    9.5877  -22.0412 C.3     1  UNL1        0.2734
     24 O          50.5231    9.9402  -22.7713 O.3     1  UNL1       -0.3284
     25 C          50.6659    9.1466  -23.9376 C.3     1  UNL1        0.1764
     26 C          51.9796    9.4965  -24.6392 C.3     1  UNL1        0.1743
     27 C          50.4317   10.1602  -26.2351 C.3     1  UNL1        0.1742
     28 O          51.7567    9.7256  -26.0181 O.3     1  UNL1       -0.3484
     29 O          49.3049   14.4581  -25.5816 O.3     1  UNL1       -0.4535
     30 C          50.0791   14.2396  -24.4328 C.ar    1  UNL1        0.1454
     31 C          51.1421   13.3188  -24.4167 C.ar    1  UNL1        0.0388
     32 C          51.8990   13.1373  -23.2555 C.ar    1  UNL1        0.0215
     33 C          51.6083   13.8769  -22.1016 C.ar    1  UNL1        0.1059
     34 C          50.5681   14.8154  -22.1254 C.ar    1  UNL1        0.0215
     35 C          49.8115   14.9970  -23.2868 C.ar    1  UNL1        0.0388
     36 S          52.5725   13.6601  -20.6449 S.O2    1  UNL1        0.0105
     37 C          51.6502   12.7036  -19.4634 C.3     1  UNL1        0.1816
     38 O          52.9101   15.0001  -20.0537 O.2     1  UNL1       -0.1686
     39 O          53.8512   12.9458  -20.9820 O.2     1  UNL1       -0.1686
@<TRIPOS>BOND
     1    27    28    1
     2    28    26    1
     3    26    25    1
     4    25    24    1
     5    24    23    1
     6    23    18    1
     7    18    19   ar
     8    19    20   ar
     9    20    21   ar
    10    21    14    1
    11    14    15   am
    12    15    16    2
    13    15     1    1
    14     1     2   ar
    15     2     3   ar
    16     3    29    1
    17    29    30    1
    18    30    31   ar
    19    31    32   ar
    20    32    33   ar
    21    33    36    1
    22    36    37    1
    23    36    38    2
    24    36    39    2
    25    33    34   ar
    26    34    35   ar
    27     3     4   ar
    28     4     5   ar
    29     5     7    1
    30     7     8   ar
    31     8     9   ar
    32     9    10   ar
    33    10    11   ar
    34    11    12   ar
    35    12    13    1
    36     5     6   ar
    37    21    22   ar
    38    22    18   ar
    39     6     1   ar
    40    35    30   ar
    41    12     7   ar
    42    14    17    1
@<TRIPOS>MOLECULE
*****
 39 42 0 0 0
SMALL
GASTEIGER

@<TRIPOS>ATOM
      1 C          51.9915   12.8812  -24.6456 C.ar    1  UNL1        0.0568
      2 C          52.1268   13.2613  -23.3011 C.ar    1  UNL1        0.0420
      3 C          51.3758   14.3294  -22.7810 C.ar    1  UNL1        0.1455
      4 C          50.4689   14.9981  -23.6085 C.ar    1  UNL1        0.0390
      5 C          50.3258   14.6313  -24.9552 C.ar    1  UNL1        0.0205
      6 C          51.1152   13.5973  -25.4764 C.ar    1  UNL1        0.0062
      7 C          49.3739   15.3391  -25.8350 C.ar    1  UNL1        0.0774
      8 N          48.1828   14.7378  -26.1095 N.ar    1  UNL1       -0.2442
      9 C          47.2497   15.3091  -26.9142 C.ar    1  UNL1        0.0988
     10 C          47.4953   16.5521  -27.4935 C.ar    1  UNL1        0.0204
     11 C          48.6963   17.2067  -27.2229 C.ar    1  UNL1       -0.0012
     12 C          49.6464   16.6218  -26.3716 C.ar    1  UNL1       -0.0042
     13 C          50.9178   17.3704  -26.0688 C.3     1  UNL1        0.0326
     14 N          52.2171   10.4233  -25.2986 N.am    1  UNL1       -0.2644
     15 C          52.7741   11.7414  -25.1747 C.2     1  UNL1        0.2507
     16 O          53.9622   11.9353  -25.5485 O.2     1  UNL1       -0.2698
     17 H          52.6366    9.7844  -26.0113 H       1  UNL1        0.1566
     18 N          50.1699    9.5475  -22.5575 N.ar    1  UNL1       -0.2188
     19 C          49.9063    8.5022  -23.3660 C.ar    1  UNL1        0.1008
     20 C          50.6097    8.6687  -24.5410 C.ar    1  UNL1        0.0565
     21 C          51.2931    9.8554  -24.3591 C.ar    1  UNL1        0.1558
     22 N          51.0251   10.3695  -23.1434 N.ar    1  UNL1       -0.1518
     23 C          49.6745    9.7241  -21.1948 C.3     1  UNL1        0.2734
     24 O          48.9508   10.9342  -21.0814 O.3     1  UNL1       -0.3284
     25 C          47.6898   10.8497  -21.7242 C.3     1  UNL1        0.1764
     26 C          47.3753   12.1781  -22.4148 C.3     1  UNL1        0.1743
     27 C          47.8826   11.6297  -24.6115 C.3     1  UNL1        0.1742
     28 O          48.2674   12.3975  -23.4917 O.3     1  UNL1       -0.3484
     29 O          51.4685   14.7153  -21.4354 O.3     1  UNL1       -0.4535
     30 C          50.8770   14.0450  -20.3549 C.ar    1  UNL1        0.1454
     31 C          49.5017   14.1477  -20.0789 C.ar    1  UNL1        0.0388
     32 C          48.9463   13.4546  -18.9994 C.ar    1  UNL1        0.0215
     33 C          49.7549   12.6468  -18.1890 C.ar    1  UNL1        0.1059
     34 C          51.1196   12.5209  -18.4806 C.ar    1  UNL1        0.0215
     35 C          51.6748   13.2139  -19.5603 C.ar    1  UNL1        0.0388
     36 S          49.0519   11.7610  -16.8402 S.O2    1  UNL1        0.0105
     37 C          48.8374   12.8605  -15.4594 C.3     1  UNL1        0.1816
     38 O          49.9593   10.6294  -16.4459 O.2     1  UNL1       -0.1686
     39 O          47.7197   11.1930  -17.2426 O.2     1  UNL1       -0.1686
@<TRIPOS>BOND
     1    27    28    1
     2    28    26    1
     3    26    25    1
     4    25    24    1
     5    24    23    1
     6    23    18    1
     7    18    19   ar
     8    19    20   ar
     9    20    21   ar
    10    21    14    1
    11    14    15   am
    12    15    16    2
    13    15     1    1
    14     1     2   ar
    15     2     3   ar
    16     3    29    1
    17    29    30    1
    18    30    31   ar
    19    31    32   ar
    20    32    33   ar
    21    33    36    1
    22    36    37    1
    23    36    38    2
    24    36    39    2
    25    33    34   ar
    26    34    35   ar
    27     3     4   ar
    28     4     5   ar
    29     5     7    1
    30     7     8   ar
    31     8     9   ar
    32     9    10   ar
    33    10    11   ar
    34    11    12   ar
    35    12    13    1
    36     5     6   ar
    37    21    22   ar
    38    22    18   ar
    39     6     1   ar
    40    35    30   ar
    41    12     7   ar
    42    14    17    1
@<TRIPOS>MOLECULE
*****
 39 42 0 0 0
SMALL
GASTEIGER

@<TRIPOS>ATOM
      1 C          52.3360   10.8068  -25.5968 C.ar    1  UNL1        0.0568
      2 C          51.7243   10.2920  -24.4431 C.ar    1  UNL1        0.0420
      3 C          50.7384    9.2951  -24.5408 C.ar    1  UNL1        0.1455
      4 C          50.3872    8.7978  -25.7993 C.ar    1  UNL1        0.0390
      5 C          50.9878    9.3055  -26.9612 C.ar    1  UNL1        0.0205
      6 C          51.9339   10.3340  -26.8561 C.ar    1  UNL1        0.0062
      7 C          50.6152    8.7881  -28.2933 C.ar    1  UNL1        0.0774
      8 N          49.2913    8.6486  -28.5819 N.ar    1  UNL1       -0.2442
      9 C          48.8550    8.1734  -29.7770 C.ar    1  UNL1        0.0988
     10 C          49.7729    7.8064  -30.7587 C.ar    1  UNL1        0.0204
     11 C          51.1367    7.9504  -30.5069 C.ar    1  UNL1       -0.0012
     12 C          51.5805    8.4645  -29.2787 C.ar    1  UNL1       -0.0042
     13 C          53.0585    8.6433  -29.0508 C.3     1  UNL1        0.0326
     14 N          53.5648   12.6177  -24.2817 N.am    1  UNL1       -0.2644
     15 C          53.3873   11.8423  -25.4777 C.2     1  UNL1        0.2507
     16 O          54.1667   12.0383  -26.4488 O.2     1  UNL1       -0.2698
     17 H          54.5123   13.0193  -24.1002 H       1  UNL1        0.1566
     18 N          51.2805   13.4351  -21.7155 N.ar    1  UNL1       -0.2188
     19 C          50.5537   13.8221  -22.7822 C.ar    1  UNL1        0.1008
     20 C          51.2993   13.6049  -23.9224 C.ar    1  UNL1        0.0565
     21 C          52.4826   13.0678  -23.4539 C.ar    1  UNL1        0.1558
     22 N          52.4495   12.9590  -22.1119 N.ar    1  UNL1       -0.1518
     23 C          50.8326   13.4400  -20.3252 C.3     1  UNL1        0.2734
     24 O          51.3199   12.3015  -19.6415 O.3     1  UNL1       -0.3284
     25 C          52.2904   12.6530  -18.6694 C.3     1  UNL1        0.1764
     26 C          51.6747   12.5604  -17.2720 C.3     1  UNL1        0.1743
     27 C          49.8852   11.7339  -16.0481 C.3     1  UNL1        0.1742
     28 O          50.5827   11.6599  -17.2727 O.3     1  UNL1       -0.3484
     29 O          50.1285    8.7413  -23.4052 O.3     1  UNL1       -0.4535
     30 C          49.4418    9.4626  -22.4179 C.ar    1  UNL1        0.1454
     31 C          48.4520   10.4082  -22.7410 C.ar    1  UNL1        0.0388
     32 C          47.7806   11.0990  -21.7280 C.ar    1  UNL1        0.0215
     33 C          48.0840   10.8488  -20.3832 C.ar    1  UNL1        0.1059
     34 C          49.0493    9.8861  -20.0596 C.ar    1  UNL1        0.0215
     35 C          49.7205    9.1952  -21.0728 C.ar    1  UNL1        0.0388
     36 S          47.2263   11.7067  -19.1078 S.O2    1  UNL1        0.0105
     37 C          45.5684   12.0591  -19.6450 C.3     1  UNL1        0.1816
     38 O          47.9371   12.9930  -18.7923 O.2     1  UNL1       -0.1686
     39 O          47.1836   10.8620  -17.8652 O.2     1  UNL1       -0.1686
@<TRIPOS>BOND
     1    27    28    1
     2    28    26    1
     3    26    25    1
     4    25    24    1
     5    24    23    1
     6    23    18    1
     7    18    19   ar
     8    19    20   ar
     9    20    21   ar
    10    21    14    1
    11    14    15   am
    12    15    16    2
    13    15     1    1
    14     1     2   ar
    15     2     3   ar
    16     3    29    1
    17    29    30    1
    18    30    31   ar
    19    31    32   ar
    20    32    33   ar
    21    33    36    1
    22    36    37    1
    23    36    38    2
    24    36    39    2
    25    33    34   ar
    26    34    35   ar
    27     3     4   ar
    28     4     5   ar
    29     5     7    1
    30     7     8   ar
    31     8     9   ar
    32     9    10   ar
    33    10    11   ar
    34    11    12   ar
    35    12    13    1
    36     5     6   ar
    37    21    22   ar
    38    22    18   ar
    39     6     1   ar
    40    35    30   ar
    41    12     7   ar
    42    14    17    1
@<TRIPOS>MOLECULE
*****
 39 42 0 0 0
SMALL
GASTEIGER

@<TRIPOS>ATOM
      1 C          49.1103   13.3617  -23.6341 C.ar    1  UNL1        0.0568
      2 C          50.0814   12.4257  -24.0231 C.ar    1  UNL1        0.0420
      3 C          51.0086   12.7351  -25.0331 C.ar    1  UNL1        0.1455
      4 C          50.9744   13.9973  -25.6333 C.ar    1  UNL1        0.0390
      5 C          50.0072   14.9414  -25.2569 C.ar    1  UNL1        0.0205
      6 C          49.0564   14.6051  -24.2838 C.ar    1  UNL1        0.0062
      7 C          49.9628   16.2736  -25.8927 C.ar    1  UNL1        0.0774
      8 N          50.9925   17.1336  -25.6565 N.ar    1  UNL1       -0.2442
      9 C          51.0335   18.3813  -26.1912 C.ar    1  UNL1        0.0988
     10 C          49.9977   18.8227  -27.0118 C.ar    1  UNL1        0.0204
     11 C          48.9342   17.9652  -27.2906 C.ar    1  UNL1       -0.0012
     12 C          48.9095   16.6686  -26.7542 C.ar    1  UNL1       -0.0042
     13 C          47.7660   15.7529  -27.1039 C.3     1  UNL1        0.0326
     14 N          47.0383   12.1485  -22.7660 N.am    1  UNL1       -0.2644
     15 C          48.1529   13.0296  -22.5550 C.2     1  UNL1        0.2507
     16 O          48.3304   13.5186  -21.4068 O.2     1  UNL1       -0.2698
     17 H          46.6522   11.6470  -21.9344 H       1  UNL1        0.1566
     18 N          45.8053   11.8622  -26.0628 N.ar    1  UNL1       -0.2188
     19 C          44.6897   12.3094  -25.4536 C.ar    1  UNL1        0.1008
     20 C          44.9575   12.4667  -24.1095 C.ar    1  UNL1        0.0565
     21 C          46.2821   12.0953  -23.9843 C.ar    1  UNL1        0.1558
     22 N          46.7859   11.7435  -25.1828 N.ar    1  UNL1       -0.1518
     23 C          45.9644   11.6266  -27.4956 C.3     1  UNL1        0.2734
     24 O          46.4335   12.7938  -28.1426 O.3     1  UNL1       -0.3284
     25 C          46.0646   12.8150  -29.5115 C.3     1  UNL1        0.1764
     26 C          46.4386   11.4833  -30.1650 C.3     1  UNL1        0.1743
     27 C          45.6479   12.7816  -31.9180 C.3     1  UNL1        0.1742
     28 O          46.2111   11.5378  -31.5610 O.3     1  UNL1       -0.3484
     29 O          52.0077   11.8316  -25.4248 O.3     1  UNL1       -0.4535
     30 C          51.9545   10.9992  -26.5522 C.ar    1  UNL1        0.1454
     31 C          52.8775   11.1162  -27.6071 C.ar    1  UNL1        0.0388
     32 C          52.7995   10.2599  -28.7093 C.ar    1  UNL1        0.0215
     33 C          51.8055    9.2741  -28.7673 C.ar    1  UNL1        0.1059
     34 C          50.9037    9.1379  -27.7036 C.ar    1  UNL1        0.0215
     35 C          50.9819    9.9941  -26.6013 C.ar    1  UNL1        0.0388
     36 S          51.7183    8.1852  -30.1475 S.O2    1  UNL1        0.0105
     37 C          50.0472    7.6092  -30.3405 C.3     1  UNL1        0.1816
     38 O          52.6327    7.0124  -29.9294 O.2     1  UNL1       -0.1686
     39 O          52.1487    8.9069  -31.3938 O.2     1  UNL1       -0.1686
@<TRIPOS>BOND
     1    27    28    1
     2    28    26    1
     3    26    25    1
     4    25    24    1
     5    24    23    1
     6    23    18    1
     7    18    19   ar
     8    19    20   ar
     9    20    21   ar
    10    21    14    1
    11    14    15   am
    12    15    16    2
    13    15     1    1
    14     1     2   ar
    15     2     3   ar
    16     3    29    1
    17    29    30    1
    18    30    31   ar
    19    31    32   ar
    20    32    33   ar
    21    33    36    1
    22    36    37    1
    23    36    38    2
    24    36    39    2
    25    33    34   ar
    26    34    35   ar
    27     3     4   ar
    28     4     5   ar
    29     5     7    1
    30     7     8   ar
    31     8     9   ar
    32     9    10   ar
    33    10    11   ar
    34    11    12   ar
    35    12    13    1
    36     5     6   ar
    37    21    22   ar
    38    22    18   ar
    39     6     1   ar
    40    35    30   ar
    41    12     7   ar
    42    14    17    1
@<TRIPOS>MOLECULE
*****
 39 42 0 0 0
SMALL
GASTEIGER

@<TRIPOS>ATOM
      1 C          45.8880   14.8127  -27.4675 C.ar    1  UNL1        0.0568
      2 C          45.6096   14.5316  -26.1206 C.ar    1  UNL1        0.0420
      3 C          45.6797   13.2143  -25.6359 C.ar    1  UNL1        0.1455
      4 C          46.0558   12.1831  -26.5018 C.ar    1  UNL1        0.0390
      5 C          46.3335   12.4489  -27.8511 C.ar    1  UNL1        0.0205
      6 C          46.2127   13.7583  -28.3357 C.ar    1  UNL1        0.0062
      7 C          46.7247   11.3620  -28.7713 C.ar    1  UNL1        0.0774
      8 N          47.3754   10.2834  -28.2528 N.ar    1  UNL1       -0.2442
      9 C          47.7807    9.2408  -29.0230 C.ar    1  UNL1        0.0988
     10 C          47.5367    9.2509  -30.3947 C.ar    1  UNL1        0.0204
     11 C          46.8583   10.3299  -30.9600 C.ar    1  UNL1       -0.0012
     12 C          46.4212   11.3931  -30.1549 C.ar    1  UNL1       -0.0042
     13 C          45.6582   12.5264  -30.7890 C.3     1  UNL1        0.0326
     14 N          47.0143   16.9832  -28.2016 N.am    1  UNL1       -0.2644
     15 C          45.8298   16.2077  -27.9597 C.2     1  UNL1        0.2507
     16 O          44.7059   16.7280  -28.1942 O.2     1  UNL1       -0.2698
     17 H          46.9499   17.7643  -28.8928 H       1  UNL1        0.1566
     18 N          49.7230   16.1210  -26.1060 N.ar    1  UNL1       -0.2188
     19 C          49.9575   17.4422  -26.2287 C.ar    1  UNL1        0.1008
     20 C          48.9959   17.9829  -27.0569 C.ar    1  UNL1        0.0565
     21 C          48.1975   16.9070  -27.3934 C.ar    1  UNL1        0.1558
     22 N          48.6454   15.7857  -26.7965 N.ar    1  UNL1       -0.1518
     23 C          50.4735   15.1910  -25.2661 C.3     1  UNL1        0.2734
     24 O          50.7077   13.9773  -25.9538 O.3     1  UNL1       -0.3284
     25 C          50.7572   12.8748  -25.0636 C.3     1  UNL1        0.1764
     26 C          49.7837   11.7918  -25.5325 C.3     1  UNL1        0.1743
     27 C          49.9999   10.1769  -23.8806 C.3     1  UNL1        0.1742
     28 O          49.1606   11.1741  -24.4218 O.3     1  UNL1       -0.3484
     29 O          45.4341   12.9053  -24.2897 O.3     1  UNL1       -0.4535
     30 C          46.4090   12.8135  -23.2857 C.ar    1  UNL1        0.1454
     31 C          46.4762   11.7127  -22.4129 C.ar    1  UNL1        0.0388
     32 C          47.4703   11.6513  -21.4320 C.ar    1  UNL1        0.0215
     33 C          48.4113   12.6830  -21.3163 C.ar    1  UNL1        0.1059
     34 C          48.3628   13.7660  -22.2040 C.ar    1  UNL1        0.0215
     35 C          47.3688   13.8271  -23.1850 C.ar    1  UNL1        0.0388
     36 S          49.6730   12.5970  -20.0919 S.O2    1  UNL1        0.0105
     37 C          48.9935   11.9313  -18.5896 C.3     1  UNL1        0.1816
     38 O          50.2227   13.9712  -19.8299 O.2     1  UNL1       -0.1686
     39 O          50.7904   11.7143  -20.5730 O.2     1  UNL1       -0.1686
@<TRIPOS>BOND
     1    27    28    1
     2    28    26    1
     3    26    25    1
     4    25    24    1
     5    24    23    1
     6    23    18    1
     7    18    19   ar
     8    19    20   ar
     9    20    21   ar
    10    21    14    1
    11    14    15   am
    12    15    16    2
    13    15     1    1
    14     1     2   ar
    15     2     3   ar
    16     3    29    1
    17    29    30    1
    18    30    31   ar
    19    31    32   ar
    20    32    33   ar
    21    33    36    1
    22    36    37    1
    23    36    38    2
    24    36    39    2
    25    33    34   ar
    26    34    35   ar
    27     3     4   ar
    28     4     5   ar
    29     5     7    1
    30     7     8   ar
    31     8     9   ar
    32     9    10   ar
    33    10    11   ar
    34    11    12   ar
    35    12    13    1
    36     5     6   ar
    37    21    22   ar
    38    22    18   ar
    39     6     1   ar
    40    35    30   ar
    41    12     7   ar
    42    14    17    1
@<TRIPOS>MOLECULE
*****
 39 42 0 0 0
SMALL
GASTEIGER

@<TRIPOS>ATOM
      1 C          51.1869   12.8699  -25.0263 C.ar    1  UNL1        0.0568
      2 C          51.6346   12.8021  -23.6976 C.ar    1  UNL1        0.0420
      3 C          51.6102   13.9420  -22.8759 C.ar    1  UNL1        0.1455
      4 C          51.1102   15.1445  -23.3845 C.ar    1  UNL1        0.0390
      5 C          50.6627   15.2277  -24.7116 C.ar    1  UNL1        0.0205
      6 C          50.7373   14.0978  -25.5373 C.ar    1  UNL1        0.0062
      7 C          50.1398   16.4974  -25.2555 C.ar    1  UNL1        0.0774
      8 N          50.9220   17.1947  -26.1259 N.ar    1  UNL1       -0.2442
      9 C          50.5282   18.3750  -26.6701 C.ar    1  UNL1        0.0988
     10 C          49.2865   18.9147  -26.3416 C.ar    1  UNL1        0.0204
     11 C          48.4504   18.2220  -25.4669 C.ar    1  UNL1       -0.0012
     12 C          48.8532   16.9911  -24.9264 C.ar    1  UNL1       -0.0042
     13 C          47.9124   16.2488  -24.0141 C.3     1  UNL1        0.0326
     14 N          50.3071   10.5545  -25.6459 N.am    1  UNL1       -0.2644
     15 C          51.1996   11.6564  -25.8743 C.2     1  UNL1        0.2507
     16 O          52.0053   11.5938  -26.8417 O.2     1  UNL1       -0.2698
     17 H          50.0788    9.9387  -26.4586 H       1  UNL1        0.1566
     18 N          48.8638   10.0175  -22.4678 N.ar    1  UNL1       -0.2188
     19 C          49.8400    9.0900  -22.4205 C.ar    1  UNL1        0.1008
     20 C          50.5288    9.1175  -23.6155 C.ar    1  UNL1        0.0565
     21 C          49.9027   10.1115  -24.3423 C.ar    1  UNL1        0.1558
     22 N          48.9017   10.6572  -23.6252 N.ar    1  UNL1       -0.1518
     23 C          47.9471   10.3540  -21.3814 C.3     1  UNL1        0.2734
     24 O          46.6942   10.7620  -21.8959 O.3     1  UNL1       -0.3284
     25 C          46.5442   12.1711  -21.8463 C.3     1  UNL1        0.1764
     26 C          46.2631   12.7076  -23.2511 C.3     1  UNL1        0.1743
     27 C          44.7725   12.4533  -25.0109 C.3     1  UNL1        0.1742
     28 O          44.9129   12.4755  -23.6068 O.3     1  UNL1       -0.3484
     29 O          52.0250   13.8998  -21.5364 O.3     1  UNL1       -0.4535
     30 C          51.2220   13.5291  -20.4480 C.ar    1  UNL1        0.1454
     31 C          49.8416   13.7971  -20.4170 C.ar    1  UNL1        0.0388
     32 C          49.0718   13.4011  -19.3194 C.ar    1  UNL1        0.0215
     33 C          49.6690   12.7279  -18.2455 C.ar    1  UNL1        0.1059
     34 C          51.0385   12.4347  -18.2885 C.ar    1  UNL1        0.0215
     35 C          51.8081   12.8306  -19.3864 C.ar    1  UNL1        0.0388
     36 S          48.6961   12.2146  -16.8713 S.O2    1  UNL1        0.0105
     37 C          49.7630   11.5939  -15.5915 C.3     1  UNL1        0.1816
     38 O          47.7415   11.1349  -17.2982 O.2     1  UNL1       -0.1686
     39 O          47.9036   13.3784  -16.3451 O.2     1  UNL1       -0.1686
@<TRIPOS>BOND
     1    27    28    1
     2    28    26    1
     3    26    25    1
     4    25    24    1
     5    24    23    1
     6    23    18    1
     7    18    19   ar
     8    19    20   ar
     9    20    21   ar
    10    21    14    1
    11    14    15   am
    12    15    16    2
    13    15     1    1
    14     1     2   ar
    15     2     3   ar
    16     3    29    1
    17    29    30    1
    18    30    31   ar
    19    31    32   ar
    20    32    33   ar
    21    33    36    1
    22    36    37    1
    23    36    38    2
    24    36    39    2
    25    33    34   ar
    26    34    35   ar
    27     3     4   ar
    28     4     5   ar
    29     5     7    1
    30     7     8   ar
    31     8     9   ar
    32     9    10   ar
    33    10    11   ar
    34    11    12   ar
    35    12    13    1
    36     5     6   ar
    37    21    22   ar
    38    22    18   ar
    39     6     1   ar
    40    35    30   ar
    41    12     7   ar
    42    14    17    1
@<TRIPOS>MOLECULE
*****
 39 42 0 0 0
SMALL
GASTEIGER

@<TRIPOS>ATOM
      1 C          47.6424   12.6576  -23.1922 C.ar    1  UNL1        0.0568
      2 C          47.0328   11.8670  -24.1791 C.ar    1  UNL1        0.0420
      3 C          46.9939   12.2970  -25.5166 C.ar    1  UNL1        0.1455
      4 C          47.5922   13.5116  -25.8650 C.ar    1  UNL1        0.0390
      5 C          48.2019   14.3137  -24.8886 C.ar    1  UNL1        0.0205
      6 C          48.1919   13.8990  -23.5499 C.ar    1  UNL1        0.0062
      7 C          48.8295   15.6007  -25.2506 C.ar    1  UNL1        0.0774
      8 N          50.0424   15.5731  -25.8699 N.ar    1  UNL1       -0.2442
      9 C          50.6984   16.7056  -26.2323 C.ar    1  UNL1        0.0988
     10 C          50.1340   17.9523  -25.9711 C.ar    1  UNL1        0.0204
     11 C          48.8858   18.0213  -25.3536 C.ar    1  UNL1       -0.0012
     12 C          48.2023   16.8468  -25.0031 C.ar    1  UNL1       -0.0042
     13 C          46.8391   16.9535  -24.3715 C.3     1  UNL1        0.0326
     14 N          48.7901   11.4038  -21.2872 N.am    1  UNL1       -0.2644
     15 C          47.6937   12.1828  -21.7910 C.2     1  UNL1        0.2507
     16 O          46.7555   12.4878  -21.0063 O.2     1  UNL1       -0.2698
     17 H          48.9773   11.4373  -20.2597 H       1  UNL1        0.1566
     18 N          50.8088    9.5270  -23.4951 N.ar    1  UNL1       -0.2188
     19 C          50.0775    8.5256  -22.9679 C.ar    1  UNL1        0.1008
     20 C          49.2155    9.0583  -22.0317 C.ar    1  UNL1        0.0565
     21 C          49.4858   10.4128  -22.0573 C.ar    1  UNL1        0.1558
     22 N          50.4470   10.6823  -22.9615 N.ar    1  UNL1       -0.1518
     23 C          51.7938    9.3979  -24.5660 C.3     1  UNL1        0.2734
     24 O          51.4801   10.2663  -25.6377 O.3     1  UNL1       -0.3284
     25 C          52.5567   11.1408  -25.9323 C.3     1  UNL1        0.1764
     26 C          52.8389   12.0337  -24.7226 C.3     1  UNL1        0.1743
     27 C          51.8906   13.6178  -23.3173 C.3     1  UNL1        0.1742
     28 O          51.8368   13.0255  -24.5971 O.3     1  UNL1       -0.3484
     29 O          46.4166   11.5173  -26.5299 O.3     1  UNL1       -0.4535
     30 C          46.3298   11.8768  -27.8826 C.ar    1  UNL1        0.1454
     31 C          46.5449   10.9459  -28.9147 C.ar    1  UNL1        0.0388
     32 C          46.4376   11.3395  -30.2518 C.ar    1  UNL1        0.0215
     33 C          46.1078   12.6628  -30.5729 C.ar    1  UNL1        0.1059
     34 C          45.8649   13.5839  -29.5453 C.ar    1  UNL1        0.0215
     35 C          45.9720   13.1900  -28.2083 C.ar    1  UNL1        0.0388
     36 S          45.9564   13.1537  -32.2565 S.O2    1  UNL1        0.0105
     37 C          44.3925   12.5985  -32.8950 C.3     1  UNL1        0.1816
     38 O          47.0719   12.5521  -33.0646 O.2     1  UNL1       -0.1686
     39 O          46.0390   14.6509  -32.3601 O.2     1  UNL1       -0.1686
@<TRIPOS>BOND
     1    27    28    1
     2    28    26    1
     3    26    25    1
     4    25    24    1
     5    24    23    1
     6    23    18    1
     7    18    19   ar
     8    19    20   ar
     9    20    21   ar
    10    21    14    1
    11    14    15   am
    12    15    16    2
    13    15     1    1
    14     1     2   ar
    15     2     3   ar
    16     3    29    1
    17    29    30    1
    18    30    31   ar
    19    31    32   ar
    20    32    33   ar
    21    33    36    1
    22    36    37    1
    23    36    38    2
    24    36    39    2
    25    33    34   ar
    26    34    35   ar
    27     3     4   ar
    28     4     5   ar
    29     5     7    1
    30     7     8   ar
    31     8     9   ar
    32     9    10   ar
    33    10    11   ar
    34    11    12   ar
    35    12    13    1
    36     5     6   ar
    37    21    22   ar
    38    22    18   ar
    39     6     1   ar
    40    35    30   ar
    41    12     7   ar
    42    14    17    1
