@<TRIPOS>MOLECULE
*****
 46 51 0 0 0
SMALL
GASTEIGER

@<TRIPOS>ATOM
      1 C          61.0701   89.4633    9.3665 C.ar    1  UNL1        0.0702
      2 C          60.4386   90.2479   10.3437 C.ar    1  UNL1        0.0191
      3 C          60.3962   89.8160   11.6703 C.ar    1  UNL1        0.0356
      4 C          60.9985   88.5965   12.0246 C.ar    1  UNL1        0.1318
      5 N          61.6298   87.8680   11.0613 N.ar    1  UNL1       -0.2279
      6 C          61.6841   88.2694    9.7640 C.ar    1  UNL1        0.1149
      7 N          60.9778   88.1162   13.3864 N.pl3   1  UNL1       -0.2932
      8 C          59.7592   87.4848   13.9158 C.3     1  UNL1        0.0923
      9 C          60.1263   86.4323   14.9646 C.3     1  UNL1        0.0252
     10 C          60.9348   87.0341   16.1426 C.3     1  UNL1        0.0472
     11 C          61.7107   88.3160   15.7474 C.3     1  UNL1        0.0252
     12 C          62.1361   88.3191   14.2740 C.3     1  UNL1        0.0923
     13 C          61.8850   85.9809   16.7498 C.3     1  UNL1        0.2054
     14 O          63.0971   85.8839   15.9991 O.3     1  UNL1       -0.4755
     15 C          63.4358   84.8413   15.1206 C.ar    1  UNL1        0.1388
     16 C          64.3253   85.1241   14.0794 C.ar    1  UNL1        0.0369
     17 C          64.7002   84.1279   13.1772 C.ar    1  UNL1        0.0033
     18 C          64.1875   82.8354   13.3039 C.ar    1  UNL1        0.0066
     19 C          63.2878   82.5256   14.3389 C.ar    1  UNL1        0.0785
     20 C          62.9254   83.5340   15.2522 C.ar    1  UNL1        0.0433
     21 C          62.7406   81.1550   14.4921 C.2     1  UNL1        0.3381
     22 O          63.4973   80.2168   14.8589 O.2     1  UNL1       -0.2451
     23 O          61.3962   80.8702   14.2551 O.3     1  UNL1       -0.4771
     24 H          60.7125   81.5898   14.0595 H       1  UNL1        0.2954
     25 C          60.0355   89.9456    7.0989 C.2     1  UNL1        0.2839
     26 O          58.9499   89.3819    7.4029 O.2     1  UNL1       -0.2665
     27 N          61.1573   89.8864    7.9949 N.am    1  UNL1       -0.2766
     28 H          62.1071   90.0823    7.6051 H       1  UNL1        0.1553
     29 C          60.2160   92.7952    1.8175 C.ar    1  UNL1       -0.0001
     30 C          61.6026   92.5885    2.0236 C.ar    1  UNL1        0.0031
     31 C          62.0636   91.9359    3.1802 C.ar    1  UNL1        0.0375
     32 C          61.1179   91.4957    4.1016 C.ar    1  UNL1        0.1452
     33 O          61.3392   90.8725    5.2331 O.2     1  UNL1       -0.4492
     34 C          60.1702   90.6343    5.8012 C.ar    1  UNL1        0.1946
     35 C          59.1369   91.1286    4.9971 C.ar    1  UNL1        0.0202
     36 C          57.6628   91.0751    5.2632 C.3     1  UNL1        0.0345
     37 C          59.7747   91.6812    3.9034 C.ar    1  UNL1        0.0337
     38 C          59.2835   92.3240    2.7661 C.ar    1  UNL1        0.0028
     39 C          60.5988   94.2608   -0.2116 C.ar    1  UNL1       -0.0222
     40 C          60.0735   94.8920   -1.3537 C.ar    1  UNL1       -0.0043
     41 C          58.7310   94.7312   -1.7021 C.ar    1  UNL1       -0.0003
     42 C          57.8906   93.9514   -0.9082 C.ar    1  UNL1       -0.0000
     43 C          58.3898   93.3282    0.2364 C.ar    1  UNL1       -0.0003
     44 C          59.7401   93.4702    0.5944 C.ar    1  UNL1       -0.0040
     45 C          62.9827   94.0992   -0.9524 C.3     1  UNL1        0.0050
     46 C          62.0388   94.5274    0.1670 C.3     1  UNL1        0.0264
@<TRIPOS>BOND
     1    45    46    1
     2    46    39    1
     3    39    40   ar
     4    40    41   ar
     5    41    42   ar
     6    42    43   ar
     7    43    44   ar
     8    44    29    1
     9    29    30   ar
    10    30    31   ar
    11    31    32   ar
    12    32    33   ar
    13    33    34   ar
    14    34    25    1
    15    25    26    2
    16    25    27   am
    17    27     1    1
    18     1     2   ar
    19     2     3   ar
    20     3     4   ar
    21     4     7    1
    22     7     8    1
    23     8     9    1
    24     9    10    1
    25    10    13    1
    26    13    14    1
    27    14    15    1
    28    15    16   ar
    29    16    17   ar
    30    17    18   ar
    31    18    19   ar
    32    19    21    1
    33    21    22    2
    34    21    23    1
    35    19    20   ar
    36    10    11    1
    37    11    12    1
    38     4     5   ar
    39     5     6   ar
    40    34    35   ar
    41    35    36    1
    42    35    37   ar
    43    37    38   ar
    44    44    39   ar
    45    38    29   ar
    46    37    32   ar
    47     6     1   ar
    48    12     7    1
    49    20    15   ar
    50    27    28    1
    51    23    24    1
@<TRIPOS>MOLECULE
*****
 46 51 0 0 0
SMALL
GASTEIGER

@<TRIPOS>ATOM
      1 C          61.7851   87.2407    9.7457 C.ar    1  UNL1        0.0702
      2 C          60.5543   87.4288    9.0984 C.ar    1  UNL1        0.0191
      3 C          59.8006   86.3269    8.6910 C.ar    1  UNL1        0.0356
      4 C          60.2753   85.0280    8.9419 C.ar    1  UNL1        0.1318
      5 N          61.4600   84.8737    9.5977 N.ar    1  UNL1       -0.2279
      6 C          62.2098   85.9318   10.0041 C.ar    1  UNL1        0.1149
      7 N          59.5241   83.8627    8.5378 N.pl3   1  UNL1       -0.2932
      8 C          60.0274   83.0167    7.4448 C.3     1  UNL1        0.0923
      9 C          59.5984   81.5641    7.6648 C.3     1  UNL1        0.0252
     10 C          58.0578   81.4133    7.7506 C.3     1  UNL1        0.0472
     11 C          57.3511   82.7108    8.2178 C.3     1  UNL1        0.0252
     12 C          58.2229   83.5540    9.1562 C.3     1  UNL1        0.0923
     13 C          57.6731   80.2219    8.6525 C.3     1  UNL1        0.2054
     14 O          57.3947   80.6517    9.9866 O.3     1  UNL1       -0.4755
     15 C          58.2710   80.5507   11.0799 C.ar    1  UNL1        0.1388
     16 C          58.3351   79.3296   11.7582 C.ar    1  UNL1        0.0369
     17 C          59.1888   79.1693   12.8501 C.ar    1  UNL1        0.0033
     18 C          59.9883   80.2305   13.2793 C.ar    1  UNL1        0.0066
     19 C          59.9396   81.4703   12.6179 C.ar    1  UNL1        0.0785
     20 C          59.0847   81.6187   11.5091 C.ar    1  UNL1        0.0433
     21 C          60.7890   82.6051   13.0564 C.2     1  UNL1        0.3381
     22 O          61.4845   82.4985   14.1016 O.2     1  UNL1       -0.2451
     23 O          60.8554   83.7952   12.3327 O.3     1  UNL1       -0.4771
     24 H          60.4069   83.9125   11.4335 H       1  UNL1        0.2954
     25 C          62.3814   89.0126   11.4633 C.2     1  UNL1        0.2839
     26 O          61.3287   88.8144   12.1275 O.2     1  UNL1       -0.2665
     27 N          62.5778   88.3498   10.2036 N.am    1  UNL1       -0.2766
     28 H          63.2834   88.7493    9.5441 H       1  UNL1        0.1553
     29 C          66.6047   92.6185   13.7454 C.ar    1  UNL1       -0.0001
     30 C          66.1995   93.3999   12.6349 C.ar    1  UNL1        0.0031
     31 C          65.1938   92.9406   11.7667 C.ar    1  UNL1        0.0375
     32 C          64.6092   91.7074   12.0402 C.ar    1  UNL1        0.1452
     33 O          63.6646   91.1061   11.3593 O.2     1  UNL1       -0.4492
     34 C          63.3985   89.9592   11.9592 C.ar    1  UNL1        0.1946
     35 C          64.2127   89.8082   13.0874 C.ar    1  UNL1        0.0202
     36 C          64.2427   88.6587   14.0490 C.3     1  UNL1        0.0345
     37 C          64.9872   90.9517   13.1190 C.ar    1  UNL1        0.0337
     38 C          65.9812   91.3785   14.0008 C.ar    1  UNL1        0.0028
     39 C          68.9945   92.6613   14.5812 C.ar    1  UNL1       -0.0222
     40 C          69.9379   93.1617   15.4968 C.ar    1  UNL1       -0.0043
     41 C          69.5669   94.1036   16.4585 C.ar    1  UNL1       -0.0003
     42 C          68.2470   94.5477   16.5300 C.ar    1  UNL1       -0.0000
     43 C          67.2933   94.0530   15.6393 C.ar    1  UNL1       -0.0003
     44 C          67.6525   93.1142   14.6588 C.ar    1  UNL1       -0.0040
     45 C          68.9476   91.9071   12.1966 C.3     1  UNL1        0.0050
     46 C          69.4265   91.5861   13.6090 C.3     1  UNL1        0.0264
@<TRIPOS>BOND
     1    45    46    1
     2    46    39    1
     3    39    40   ar
     4    40    41   ar
     5    41    42   ar
     6    42    43   ar
     7    43    44   ar
     8    44    29    1
     9    29    30   ar
    10    30    31   ar
    11    31    32   ar
    12    32    33   ar
    13    33    34   ar
    14    34    25    1
    15    25    26    2
    16    25    27   am
    17    27     1    1
    18     1     2   ar
    19     2     3   ar
    20     3     4   ar
    21     4     7    1
    22     7     8    1
    23     8     9    1
    24     9    10    1
    25    10    13    1
    26    13    14    1
    27    14    15    1
    28    15    16   ar
    29    16    17   ar
    30    17    18   ar
    31    18    19   ar
    32    19    21    1
    33    21    22    2
    34    21    23    1
    35    19    20   ar
    36    10    11    1
    37    11    12    1
    38     4     5   ar
    39     5     6   ar
    40    34    35   ar
    41    35    36    1
    42    35    37   ar
    43    37    38   ar
    44    44    39   ar
    45    38    29   ar
    46    37    32   ar
    47     6     1   ar
    48    12     7    1
    49    20    15   ar
    50    27    28    1
    51    23    24    1
@<TRIPOS>MOLECULE
*****
 46 51 0 0 0
SMALL
GASTEIGER

@<TRIPOS>ATOM
      1 C          61.8549   86.9962    9.4686 C.ar    1  UNL1        0.0702
      2 C          60.6704   87.2128    8.7480 C.ar    1  UNL1        0.0191
      3 C          59.8963   86.1294    8.3290 C.ar    1  UNL1        0.0356
      4 C          60.3036   84.8210    8.6417 C.ar    1  UNL1        0.1318
      5 N          61.4430   84.6403    9.3673 N.ar    1  UNL1       -0.2279
      6 C          62.2114   85.6801    9.7862 C.ar    1  UNL1        0.1149
      7 N          59.5294   83.6743    8.2280 N.pl3   1  UNL1       -0.2932
      8 C          60.0226   82.8198    7.1370 C.3     1  UNL1        0.0923
      9 C          59.5586   81.3768    7.3492 C.3     1  UNL1        0.0252
     10 C          58.0143   81.2613    7.4214 C.3     1  UNL1        0.0472
     11 C          57.3334   82.5734    7.8861 C.3     1  UNL1        0.0252
     12 C          58.2162   83.3940    8.8343 C.3     1  UNL1        0.0923
     13 C          57.5945   80.0766    8.3166 C.3     1  UNL1        0.2054
     14 O          57.2760   80.5150    9.6389 O.3     1  UNL1       -0.4755
     15 C          58.1228   80.4306   10.7566 C.ar    1  UNL1        0.1388
     16 C          58.1852   79.2131   11.4415 C.ar    1  UNL1        0.0369
     17 C          59.0104   79.0691   12.5574 C.ar    1  UNL1        0.0033
     18 C          59.7826   80.1431   13.0042 C.ar    1  UNL1        0.0066
     19 C          59.7349   81.3795   12.3365 C.ar    1  UNL1        0.0785
     20 C          58.9092   81.5116   11.2038 C.ar    1  UNL1        0.0433
     21 C          60.5557   82.5280   12.7937 C.2     1  UNL1        0.3381
     22 O          61.2480   82.4243   13.8412 O.2     1  UNL1       -0.2451
     23 O          60.5983   83.7284   12.0852 O.3     1  UNL1       -0.4771
     24 H          60.1519   83.8466   11.1851 H       1  UNL1        0.2954
     25 C          62.3279   88.9099   11.0684 C.2     1  UNL1        0.2839
     26 O          61.1651   88.8764   11.5535 O.2     1  UNL1       -0.2665
     27 N          62.6652   88.0868    9.9400 N.am    1  UNL1       -0.2766
     28 H          63.5064   88.3473    9.3769 H       1  UNL1        0.1553
     29 C          66.4853   92.3948   13.6410 C.ar    1  UNL1       -0.0001
     30 C          66.1972   93.1756   12.4940 C.ar    1  UNL1        0.0031
     31 C          65.2471   92.7405   11.5537 C.ar    1  UNL1        0.0375
     32 C          64.5988   91.5322   11.7925 C.ar    1  UNL1        0.1452
     33 O          63.6897   90.9557   11.0451 O.2     1  UNL1       -0.4492
     34 C          63.3361   89.8266   11.6337 C.ar    1  UNL1        0.1946
     35 C          64.0531   89.6618   12.8242 C.ar    1  UNL1        0.0202
     36 C          63.9660   88.5245   13.7967 C.3     1  UNL1        0.0345
     37 C          64.8633   90.7777   12.9054 C.ar    1  UNL1        0.0337
     38 C          65.7995   91.1808   13.8588 C.ar    1  UNL1        0.0028
     39 C          67.0943   93.3216   15.9173 C.ar    1  UNL1       -0.0222
     40 C          68.0891   93.7747   16.8028 C.ar    1  UNL1       -0.0043
     41 C          69.4345   93.7610   16.4297 C.ar    1  UNL1       -0.0003
     42 C          69.8048   93.3096   15.1633 C.ar    1  UNL1       -0.0000
     43 C          68.8313   92.8688   14.2656 C.ar    1  UNL1       -0.0003
     44 C          67.4750   92.8653   14.6294 C.ar    1  UNL1       -0.0040
     45 C          65.1854   92.1489   17.0302 C.3     1  UNL1        0.0050
     46 C          65.6453   93.4282   16.3380 C.3     1  UNL1        0.0264
@<TRIPOS>BOND
     1    45    46    1
     2    46    39    1
     3    39    40   ar
     4    40    41   ar
     5    41    42   ar
     6    42    43   ar
     7    43    44   ar
     8    44    29    1
     9    29    30   ar
    10    30    31   ar
    11    31    32   ar
    12    32    33   ar
    13    33    34   ar
    14    34    25    1
    15    25    26    2
    16    25    27   am
    17    27     1    1
    18     1     2   ar
    19     2     3   ar
    20     3     4   ar
    21     4     7    1
    22     7     8    1
    23     8     9    1
    24     9    10    1
    25    10    13    1
    26    13    14    1
    27    14    15    1
    28    15    16   ar
    29    16    17   ar
    30    17    18   ar
    31    18    19   ar
    32    19    21    1
    33    21    22    2
    34    21    23    1
    35    19    20   ar
    36    10    11    1
    37    11    12    1
    38     4     5   ar
    39     5     6   ar
    40    34    35   ar
    41    35    36    1
    42    35    37   ar
    43    37    38   ar
    44    44    39   ar
    45    38    29   ar
    46    37    32   ar
    47     6     1   ar
    48    12     7    1
    49    20    15   ar
    50    27    28    1
    51    23    24    1
@<TRIPOS>MOLECULE
*****
 46 51 0 0 0
SMALL
GASTEIGER

@<TRIPOS>ATOM
      1 C          59.8094   88.4818    7.2756 C.ar    1  UNL1        0.0702
      2 C          60.1951   88.9555    8.5390 C.ar    1  UNL1        0.0191
      3 C          60.0061   88.1634    9.6726 C.ar    1  UNL1        0.0356
      4 C          59.4374   86.8847    9.5411 C.ar    1  UNL1        0.1318
      5 N          59.0982   86.4381    8.2990 N.ar    1  UNL1       -0.2279
      6 C          59.2740   87.1916    7.1817 C.ar    1  UNL1        0.1149
      7 N          59.2273   86.0344   10.6893 N.pl3   1  UNL1       -0.2932
      8 C          58.1451   86.3456   11.6357 C.3     1  UNL1        0.0923
      9 C          57.6062   85.0561   12.2597 C.3     1  UNL1        0.0252
     10 C          58.7089   84.2565   13.0000 C.3     1  UNL1        0.0472
     11 C          60.1306   84.5456   12.4554 C.3     1  UNL1        0.0252
     12 C          60.1310   84.9037   10.9642 C.3     1  UNL1        0.0923
     13 C          58.4044   82.7441   12.9679 C.3     1  UNL1        0.2054
     14 O          57.9076   82.3436   11.6892 O.3     1  UNL1       -0.4755
     15 C          58.6750   81.8019   10.6448 C.ar    1  UNL1        0.1388
     16 C          58.2599   82.0448    9.3318 C.ar    1  UNL1        0.0369
     17 C          58.9836   81.5343    8.2536 C.ar    1  UNL1        0.0033
     18 C          60.1316   80.7713    8.4756 C.ar    1  UNL1        0.0066
     19 C          60.5682   80.5081    9.7859 C.ar    1  UNL1        0.0785
     20 C          59.8388   81.0383   10.8673 C.ar    1  UNL1        0.0433
     21 C          61.7908   79.7062   10.0384 C.2     1  UNL1        0.3381
     22 O          62.0992   79.3907   11.2185 O.2     1  UNL1       -0.2451
     23 O          62.6120   79.2720    8.9983 O.3     1  UNL1       -0.4771
     24 H          62.3714   79.3991    8.0240 H       1  UNL1        0.2954
     25 C          59.4724   90.5731    5.8763 C.2     1  UNL1        0.2839
     26 O          58.5736   91.0169    6.6404 O.2     1  UNL1       -0.2665
     27 N          60.0118   89.2572    6.0815 N.am    1  UNL1       -0.2766
     28 H          60.5109   88.8020    5.2839 H       1  UNL1        0.1553
     29 C          61.6936   93.6772    1.2419 C.ar    1  UNL1       -0.0001
     30 C          60.4630   94.3579    1.4161 C.ar    1  UNL1        0.0031
     31 C          59.5648   93.9641    2.4232 C.ar    1  UNL1        0.0375
     32 C          59.9286   92.8985    3.2414 C.ar    1  UNL1        0.1452
     33 O          59.2386   92.3813    4.2282 O.2     1  UNL1       -0.4492
     34 C          59.9449   91.3897    4.7420 C.ar    1  UNL1        0.1946
     35 C          61.1556   91.2563    4.0529 C.ar    1  UNL1        0.0202
     36 C          62.2478   90.2606    4.3030 C.3     1  UNL1        0.0345
     37 C          61.1222   92.2433    3.0869 C.ar    1  UNL1        0.0337
     38 C          62.0367   92.6092    2.0981 C.ar    1  UNL1        0.0028
     39 C          62.1950   94.5155   -1.0942 C.ar    1  UNL1       -0.0222
     40 C          63.1500   94.8924   -2.0559 C.ar    1  UNL1       -0.0043
     41 C          64.5121   94.8810   -1.7494 C.ar    1  UNL1       -0.0003
     42 C          64.9414   94.4791   -0.4849 C.ar    1  UNL1       -0.0000
     43 C          64.0102   94.0885    0.4784 C.ar    1  UNL1       -0.0003
     44 C          62.6360   94.1054    0.1901 C.ar    1  UNL1       -0.0040
     45 C          60.3433   93.0680   -1.9504 C.3     1  UNL1        0.0050
     46 C          60.7379   94.4703   -1.4976 C.3     1  UNL1        0.0264
@<TRIPOS>BOND
     1    45    46    1
     2    46    39    1
     3    39    40   ar
     4    40    41   ar
     5    41    42   ar
     6    42    43   ar
     7    43    44   ar
     8    44    29    1
     9    29    30   ar
    10    30    31   ar
    11    31    32   ar
    12    32    33   ar
    13    33    34   ar
    14    34    25    1
    15    25    26    2
    16    25    27   am
    17    27     1    1
    18     1     2   ar
    19     2     3   ar
    20     3     4   ar
    21     4     7    1
    22     7     8    1
    23     8     9    1
    24     9    10    1
    25    10    13    1
    26    13    14    1
    27    14    15    1
    28    15    16   ar
    29    16    17   ar
    30    17    18   ar
    31    18    19   ar
    32    19    21    1
    33    21    22    2
    34    21    23    1
    35    19    20   ar
    36    10    11    1
    37    11    12    1
    38     4     5   ar
    39     5     6   ar
    40    34    35   ar
    41    35    36    1
    42    35    37   ar
    43    37    38   ar
    44    44    39   ar
    45    38    29   ar
    46    37    32   ar
    47     6     1   ar
    48    12     7    1
    49    20    15   ar
    50    27    28    1
    51    23    24    1
@<TRIPOS>MOLECULE
*****
 46 51 0 0 0
SMALL
GASTEIGER

@<TRIPOS>ATOM
      1 C          59.6634   88.4118    7.1075 C.ar    1  UNL1        0.0702
      2 C          60.4126   88.5610    8.2846 C.ar    1  UNL1        0.0191
      3 C          60.1767   87.7246    9.3769 C.ar    1  UNL1        0.0356
      4 C          59.1923   86.7252    9.2882 C.ar    1  UNL1        0.1318
      5 N          58.4991   86.5835    8.1234 N.ar    1  UNL1       -0.2279
      6 C          58.7127   87.3857    7.0474 C.ar    1  UNL1        0.1149
      7 N          58.9198   85.8390   10.3954 N.pl3   1  UNL1       -0.2932
      8 C          57.6219   85.1513   10.4733 C.3     1  UNL1        0.0923
      9 C          57.7852   83.7986   11.1704 C.3     1  UNL1        0.0252
     10 C          58.3668   83.9413   12.6004 C.3     1  UNL1        0.0472
     11 C          59.2082   85.2298   12.7823 C.3     1  UNL1        0.0252
     12 C          59.8966   85.6744   11.4860 C.3     1  UNL1        0.0923
     13 C          59.1845   82.6911   12.9868 C.3     1  UNL1        0.2054
     14 O          59.3239   81.8010   11.8776 O.3     1  UNL1       -0.4755
     15 C          60.5351   81.4368   11.2663 C.ar    1  UNL1        0.1388
     16 C          60.5655   80.2505   10.5266 C.ar    1  UNL1        0.0369
     17 C          61.7397   79.8389    9.8951 C.ar    1  UNL1        0.0033
     18 C          62.9002   80.6084    9.9977 C.ar    1  UNL1        0.0066
     19 C          62.8981   81.8028   10.7393 C.ar    1  UNL1        0.0785
     20 C          61.7053   82.2168   11.3623 C.ar    1  UNL1        0.0433
     21 C          64.1208   82.6360   10.8511 C.2     1  UNL1        0.3381
     22 O          64.9805   82.6118    9.9304 O.2     1  UNL1       -0.2451
     23 O          64.3455   83.4669   11.9483 O.3     1  UNL1       -0.4771
     24 H          63.6536   83.6145   12.6714 H       1  UNL1        0.2954
     25 C          59.5142   90.6190    5.8622 C.2     1  UNL1        0.2839
     26 O          58.7220   91.1157    6.7074 O.2     1  UNL1       -0.2665
     27 N          59.8948   89.2364    5.9523 N.am    1  UNL1       -0.2766
     28 H          60.2877   88.7793    5.0984 H       1  UNL1        0.1553
     29 C          61.8575   93.7486    1.3057 C.ar    1  UNL1       -0.0001
     30 C          60.6948   94.5206    1.5513 C.ar    1  UNL1        0.0031
     31 C          59.7957   94.1546    2.5681 C.ar    1  UNL1        0.0375
     32 C          60.0908   93.0238    3.3239 C.ar    1  UNL1        0.1452
     33 O          59.3879   92.5186    4.3079 O.2     1  UNL1       -0.4492
     34 C          60.0217   91.4475    4.7520 C.ar    1  UNL1        0.1946
     35 C          61.1964   91.2471    4.0181 C.ar    1  UNL1        0.0202
     36 C          62.2066   90.1525    4.1861 C.3     1  UNL1        0.0345
     37 C          61.2193   92.2793    3.1003 C.ar    1  UNL1        0.0337
     38 C          62.1328   92.6152    2.1000 C.ar    1  UNL1        0.0028
     39 C          62.4052   94.2626   -1.1124 C.ar    1  UNL1       -0.0222
     40 C          63.3633   94.6281   -2.0754 C.ar    1  UNL1       -0.0043
     41 C          64.6829   94.8914   -1.7029 C.ar    1  UNL1       -0.0003
     42 C          65.0687   94.7789   -0.3676 C.ar    1  UNL1       -0.0000
     43 C          64.1360   94.4042    0.6007 C.ar    1  UNL1       -0.0003
     44 C          62.8023   94.1473    0.2445 C.ar    1  UNL1       -0.0040
     45 C          60.7176   92.4318   -1.3521 C.3     1  UNL1        0.0050
     46 C          61.0083   93.9127   -1.5751 C.3     1  UNL1        0.0264
@<TRIPOS>BOND
     1    45    46    1
     2    46    39    1
     3    39    40   ar
     4    40    41   ar
     5    41    42   ar
     6    42    43   ar
     7    43    44   ar
     8    44    29    1
     9    29    30   ar
    10    30    31   ar
    11    31    32   ar
    12    32    33   ar
    13    33    34   ar
    14    34    25    1
    15    25    26    2
    16    25    27   am
    17    27     1    1
    18     1     2   ar
    19     2     3   ar
    20     3     4   ar
    21     4     7    1
    22     7     8    1
    23     8     9    1
    24     9    10    1
    25    10    13    1
    26    13    14    1
    27    14    15    1
    28    15    16   ar
    29    16    17   ar
    30    17    18   ar
    31    18    19   ar
    32    19    21    1
    33    21    22    2
    34    21    23    1
    35    19    20   ar
    36    10    11    1
    37    11    12    1
    38     4     5   ar
    39     5     6   ar
    40    34    35   ar
    41    35    36    1
    42    35    37   ar
    43    37    38   ar
    44    44    39   ar
    45    38    29   ar
    46    37    32   ar
    47     6     1   ar
    48    12     7    1
    49    20    15   ar
    50    27    28    1
    51    23    24    1
@<TRIPOS>MOLECULE
*****
 46 51 0 0 0
SMALL
GASTEIGER

@<TRIPOS>ATOM
      1 C          62.4405   85.1675   12.3459 C.ar    1  UNL1        0.0702
      2 C          61.9496   84.5387   13.5005 C.ar    1  UNL1        0.0191
      3 C          61.2844   83.3154   13.4039 C.ar    1  UNL1        0.0356
      4 C          61.1182   82.7112   12.1457 C.ar    1  UNL1        0.1318
      5 N          61.6297   83.3294   11.0442 N.ar    1  UNL1       -0.2279
      6 C          62.2814   84.5200   11.1148 C.ar    1  UNL1        0.1149
      7 N          60.4376   81.4453   12.0045 N.pl3   1  UNL1       -0.2932
      8 C          59.6330   80.9244   13.1203 C.3     1  UNL1        0.0923
      9 C          58.4688   80.0887   12.5830 C.3     1  UNL1        0.0252
     10 C          58.9517   78.9006   11.7119 C.3     1  UNL1        0.0472
     11 C          60.3393   79.1505   11.0689 C.3     1  UNL1        0.0252
     12 C          60.6010   80.6346   10.7851 C.3     1  UNL1        0.0923
     13 C          57.9028   78.5473   10.6368 C.3     1  UNL1        0.2054
     14 O          57.1262   79.6914   10.2761 O.3     1  UNL1       -0.4755
     15 C          57.6032   80.8246    9.5968 C.ar    1  UNL1        0.1388
     16 C          58.0529   80.6606    8.2829 C.ar    1  UNL1        0.0369
     17 C          58.5355   81.7505    7.5577 C.ar    1  UNL1        0.0033
     18 C          58.5767   83.0193    8.1391 C.ar    1  UNL1        0.0066
     19 C          58.1352   83.2108    9.4601 C.ar    1  UNL1        0.0785
     20 C          57.6377   82.1076   10.1797 C.ar    1  UNL1        0.0433
     21 C          58.1647   84.5542   10.0894 C.2     1  UNL1        0.3381
     22 O          57.0863   85.1723   10.2951 O.2     1  UNL1       -0.2451
     23 O          59.3605   85.1564   10.4793 O.3     1  UNL1       -0.4771
     24 H          60.2506   84.6774   10.4399 H       1  UNL1        0.2954
     25 C          62.6286   87.6127   13.0021 C.2     1  UNL1        0.2839
     26 O          61.4019   87.6991   13.2785 O.2     1  UNL1       -0.2665
     27 N          63.1537   86.4147   12.4074 N.am    1  UNL1       -0.2766
     28 H          64.0744   86.4740   11.9161 H       1  UNL1        0.1553
     29 C          66.4531   92.0671   14.2585 C.ar    1  UNL1       -0.0001
     30 C          65.6739   92.6980   13.2570 C.ar    1  UNL1        0.0031
     31 C          64.6152   92.0116   12.6371 C.ar    1  UNL1        0.0375
     32 C          64.3562   90.7065   13.0454 C.ar    1  UNL1        0.1452
     33 O          63.4239   89.9024   12.5961 O.2     1  UNL1       -0.4492
     34 C          63.5228   88.7593   13.2516 C.ar    1  UNL1        0.1946
     35 C          64.5737   88.8248   14.1735 C.ar    1  UNL1        0.0202
     36 C          65.0340   87.7542   15.1163 C.3     1  UNL1        0.0345
     37 C          65.0975   90.0940   14.0217 C.ar    1  UNL1        0.0337
     38 C          66.1543   90.7470   14.6578 C.ar    1  UNL1        0.0028
     39 C          68.9066   92.6381   14.5149 C.ar    1  UNL1       -0.0222
     40 C          69.9086   93.3531   15.1958 C.ar    1  UNL1       -0.0043
     41 C          69.5798   94.2231   16.2372 C.ar    1  UNL1       -0.0003
     42 C          68.2493   94.3805   16.6239 C.ar    1  UNL1       -0.0000
     43 C          67.2421   93.6696   15.9697 C.ar    1  UNL1       -0.0003
     44 C          67.5546   92.7994   14.9127 C.ar    1  UNL1       -0.0040
     45 C          68.7264   92.0345   12.0940 C.3     1  UNL1        0.0050
     46 C          69.3190   91.6504   13.4462 C.3     1  UNL1        0.0264
@<TRIPOS>BOND
     1    45    46    1
     2    46    39    1
     3    39    40   ar
     4    40    41   ar
     5    41    42   ar
     6    42    43   ar
     7    43    44   ar
     8    44    29    1
     9    29    30   ar
    10    30    31   ar
    11    31    32   ar
    12    32    33   ar
    13    33    34   ar
    14    34    25    1
    15    25    26    2
    16    25    27   am
    17    27     1    1
    18     1     2   ar
    19     2     3   ar
    20     3     4   ar
    21     4     7    1
    22     7     8    1
    23     8     9    1
    24     9    10    1
    25    10    13    1
    26    13    14    1
    27    14    15    1
    28    15    16   ar
    29    16    17   ar
    30    17    18   ar
    31    18    19   ar
    32    19    21    1
    33    21    22    2
    34    21    23    1
    35    19    20   ar
    36    10    11    1
    37    11    12    1
    38     4     5   ar
    39     5     6   ar
    40    34    35   ar
    41    35    36    1
    42    35    37   ar
    43    37    38   ar
    44    44    39   ar
    45    38    29   ar
    46    37    32   ar
    47     6     1   ar
    48    12     7    1
    49    20    15   ar
    50    27    28    1
    51    23    24    1
