@<TRIPOS>MOLECULE
*****
 47 52 0 0 0
SMALL
GASTEIGER

@<TRIPOS>ATOM
      1 C          10.5025   81.1205   24.9415 C.ar    1  UNL1        0.0702
      2 C          10.3023   80.6476   26.2435 C.ar    1  UNL1        0.0191
      3 C           9.5868   79.4697   26.4630 C.ar    1  UNL1        0.0356
      4 C           9.0493   78.7694   25.3693 C.ar    1  UNL1        0.1318
      5 N           9.2401   79.2614   24.1128 N.ar    1  UNL1       -0.2279
      6 C           9.9373   80.4035   23.8751 C.ar    1  UNL1        0.1149
      7 N           8.3046   77.5454   25.5528 N.pl3   1  UNL1       -0.2932
      8 C           8.8251   76.2872   24.9961 C.3     1  UNL1        0.0923
      9 C           8.4157   75.1118   25.8866 C.3     1  UNL1        0.0252
     10 C           6.8766   74.9995   26.0439 C.3     1  UNL1        0.0471
     11 C           6.1471   76.3455   25.8057 C.3     1  UNL1        0.0252
     12 C           6.9919   77.5560   26.2218 C.3     1  UNL1        0.0923
     13 C           6.5078   74.4080   27.4146 C.3     1  UNL1        0.2054
     14 O           7.4192   74.8803   28.4051 O.3     1  UNL1       -0.4757
     15 C           7.1415   75.8899   29.3424 C.ar    1  UNL1        0.1371
     16 C           5.8953   75.9532   29.9908 C.ar    1  UNL1        0.0367
     17 C           5.6344   76.9477   30.9258 C.ar    1  UNL1        0.0033
     18 C           6.6034   77.8987   31.2264 C.ar    1  UNL1        0.0064
     19 C           7.8572   77.8806   30.5914 C.ar    1  UNL1        0.0768
     20 C           8.1381   76.8550   29.6380 C.ar    1  UNL1        0.0472
     21 C           8.8297   78.9408   30.9705 C.2     1  UNL1        0.3379
     22 O           9.5187   78.8521   32.0208 O.2     1  UNL1       -0.2451
     23 O           9.0154   80.0394   30.1345 O.3     1  UNL1       -0.4771
     24 H           9.6820   80.7654   30.3689 H       1  UNL1        0.2954
     25 C           9.4933   76.7491   28.9658 C.3     1  UNL1        0.1668
     26 O           9.9684   75.4348   29.0648 O.3     1  UNL1       -0.3771
     27 H          10.8812   75.4402   28.6751 H       1  UNL1        0.2109
     28 C          12.6473   82.4773   24.8718 C.2     1  UNL1        0.2839
     29 O          13.3153   81.5698   25.4365 O.2     1  UNL1       -0.2665
     30 N          11.2230   82.3474   24.7329 N.am    1  UNL1       -0.2766
     31 H          10.6671   83.2138   24.5518 H       1  UNL1        0.1553
     32 C          15.4643   82.6434   23.3518 C.3     1  UNL1        0.0345
     33 C          14.5515   83.7733   23.7229 C.ar    1  UNL1        0.0202
     34 C          13.3223   83.6964   24.3875 C.ar    1  UNL1        0.1946
     35 O          12.8112   84.9060   24.5340 O.2     1  UNL1       -0.4492
     36 C          13.6458   85.7634   23.9992 C.ar    1  UNL1        0.1452
     37 C          13.5060   87.1450   23.9280 C.ar    1  UNL1        0.0375
     38 C          14.5281   87.8807   23.3037 C.ar    1  UNL1        0.0031
     39 C          15.6689   87.2285   22.7626 C.ar    1  UNL1        0.0002
     40 C          15.7725   85.8197   22.8566 C.ar    1  UNL1        0.0028
     41 C          14.7393   85.1211   23.4832 C.ar    1  UNL1        0.0337
     42 C          16.7423   88.0162   22.1051 C.ar    1  UNL1        0.0000
     43 C          16.5612   88.5284   20.8062 C.ar    1  UNL1        0.0000
     44 C          17.5741   89.2690   20.1893 C.ar    1  UNL1        0.0000
     45 C          18.7759   89.5073   20.8595 C.ar    1  UNL1        0.0000
     46 C          18.9678   89.0049   22.1485 C.ar    1  UNL1        0.0000
     47 C          17.9588   88.2629   22.7699 C.ar    1  UNL1        0.0000
@<TRIPOS>BOND
     1    32    33    1
     2    33    34   ar
     3    34    28    1
     4    28    29    2
     5    28    30   am
     6    30     1    1
     7     1     2   ar
     8     2     3   ar
     9     3     4   ar
    10     4     7    1
    11     7     8    1
    12     8     9    1
    13     9    10    1
    14    10    13    1
    15    13    14    1
    16    14    15    1
    17    15    16   ar
    18    16    17   ar
    19    17    18   ar
    20    18    19   ar
    21    19    21    1
    22    21    22    2
    23    21    23    1
    24    19    20   ar
    25    20    25    1
    26    25    26    1
    27    10    11    1
    28    11    12    1
    29     4     5   ar
    30     5     6   ar
    31    34    35   ar
    32    35    36   ar
    33    36    37   ar
    34    37    38   ar
    35    38    39   ar
    36    39    42    1
    37    42    43   ar
    38    43    44   ar
    39    44    45   ar
    40    45    46   ar
    41    46    47   ar
    42    39    40   ar
    43    40    41   ar
    44    41    33   ar
    45     6     1   ar
    46    41    36   ar
    47    12     7    1
    48    47    42   ar
    49    20    15   ar
    50    30    31    1
    51    23    24    1
    52    26    27    1
@<TRIPOS>MOLECULE
*****
 47 52 0 0 0
SMALL
GASTEIGER

@<TRIPOS>ATOM
      1 C          10.4200   80.9137   24.6976 C.ar    1  UNL1        0.0702
      2 C          10.1444   80.3801   25.9619 C.ar    1  UNL1        0.0191
      3 C           9.4181   79.1946   26.0832 C.ar    1  UNL1        0.0356
      4 C           8.9458   78.5480   24.9280 C.ar    1  UNL1        0.1318
      5 N           9.2093   79.0985   23.7095 N.ar    1  UNL1       -0.2279
      6 C           9.9186   80.2491   23.5673 C.ar    1  UNL1        0.1149
      7 N           8.1925   77.3183   25.0095 N.pl3   1  UNL1       -0.2932
      8 C           6.7420   77.3366   24.7653 C.3     1  UNL1        0.0923
      9 C           6.3008   76.0142   24.1337 C.3     1  UNL1        0.0252
     10 C           6.6511   74.7912   25.0212 C.3     1  UNL1        0.0471
     11 C           7.8296   75.0669   25.9884 C.3     1  UNL1        0.0252
     12 C           8.8458   76.0605   25.4120 C.3     1  UNL1        0.0923
     13 C           6.9262   73.5489   24.1577 C.3     1  UNL1        0.2054
     14 O           7.5774   73.9356   22.9490 O.3     1  UNL1       -0.4757
     15 C           8.9249   73.6817   22.6406 C.ar    1  UNL1        0.1371
     16 C           9.5146   72.4406   22.9392 C.ar    1  UNL1        0.0367
     17 C          10.8443   72.1942   22.6188 C.ar    1  UNL1        0.0033
     18 C          11.6108   73.1779   22.0036 C.ar    1  UNL1        0.0064
     19 C          11.0650   74.4371   21.7003 C.ar    1  UNL1        0.0768
     20 C           9.6960   74.6947   22.0153 C.ar    1  UNL1        0.0472
     21 C          11.9606   75.4301   21.0482 C.2     1  UNL1        0.3379
     22 O          12.4484   76.3952   21.6935 O.2     1  UNL1       -0.2451
     23 O          12.3015   75.2770   19.7063 O.3     1  UNL1       -0.4771
     24 H          12.9200   75.9354   19.2476 H       1  UNL1        0.2954
     25 C           9.0361   76.0124   21.6575 C.3     1  UNL1        0.1668
     26 O           9.7569   77.0712   22.2250 O.3     1  UNL1       -0.3771
     27 H           9.2444   77.8962   22.0204 H       1  UNL1        0.2109
     28 C          12.5713   82.2597   24.7742 C.2     1  UNL1        0.2839
     29 O          13.2205   81.3130   25.2947 O.2     1  UNL1       -0.2665
     30 N          11.1507   82.1475   24.5898 N.am    1  UNL1       -0.2766
     31 H          10.6033   83.0272   24.4522 H       1  UNL1        0.1553
     32 C          15.4619   82.5128   23.4126 C.3     1  UNL1        0.0345
     33 C          14.5251   83.6192   23.7944 C.ar    1  UNL1        0.0202
     34 C          13.2638   83.5044   24.3897 C.ar    1  UNL1        0.1946
     35 O          12.7393   84.7032   24.5724 O.2     1  UNL1       -0.4492
     36 C          13.5957   85.5897   24.1269 C.ar    1  UNL1        0.1452
     37 C          13.4522   86.9727   24.1207 C.ar    1  UNL1        0.0375
     38 C          14.5011   87.7428   23.5893 C.ar    1  UNL1        0.0031
     39 C          15.6718   87.1229   23.0747 C.ar    1  UNL1        0.0002
     40 C          15.7781   85.7115   23.1003 C.ar    1  UNL1        0.0028
     41 C          14.7178   84.9783   23.6354 C.ar    1  UNL1        0.0337
     42 C          16.7734   87.9469   22.5156 C.ar    1  UNL1        0.0000
     43 C          16.6421   88.5559   21.2529 C.ar    1  UNL1        0.0000
     44 C          17.6815   89.3303   20.7286 C.ar    1  UNL1        0.0000
     45 C          18.8604   89.5067   21.4562 C.ar    1  UNL1        0.0000
     46 C          19.0028   88.9082   22.7100 C.ar    1  UNL1        0.0000
     47 C          17.9672   88.1318   23.2389 C.ar    1  UNL1        0.0000
@<TRIPOS>BOND
     1    32    33    1
     2    33    34   ar
     3    34    28    1
     4    28    29    2
     5    28    30   am
     6    30     1    1
     7     1     2   ar
     8     2     3   ar
     9     3     4   ar
    10     4     7    1
    11     7     8    1
    12     8     9    1
    13     9    10    1
    14    10    13    1
    15    13    14    1
    16    14    15    1
    17    15    16   ar
    18    16    17   ar
    19    17    18   ar
    20    18    19   ar
    21    19    21    1
    22    21    22    2
    23    21    23    1
    24    19    20   ar
    25    20    25    1
    26    25    26    1
    27    10    11    1
    28    11    12    1
    29     4     5   ar
    30     5     6   ar
    31    34    35   ar
    32    35    36   ar
    33    36    37   ar
    34    37    38   ar
    35    38    39   ar
    36    39    42    1
    37    42    43   ar
    38    43    44   ar
    39    44    45   ar
    40    45    46   ar
    41    46    47   ar
    42    39    40   ar
    43    40    41   ar
    44    41    33   ar
    45     6     1   ar
    46    41    36   ar
    47    12     7    1
    48    47    42   ar
    49    20    15   ar
    50    30    31    1
    51    23    24    1
    52    26    27    1
@<TRIPOS>MOLECULE
*****
 47 52 0 0 0
SMALL
GASTEIGER

@<TRIPOS>ATOM
      1 C          11.4569   80.5497   25.2199 C.ar    1  UNL1        0.0702
      2 C          12.8247   80.3786   24.9774 C.ar    1  UNL1        0.0191
      3 C          13.6010   81.4503   24.5340 C.ar    1  UNL1        0.0356
      4 C          12.9976   82.7002   24.3120 C.ar    1  UNL1        0.1318
      5 N          11.6601   82.8360   24.5355 N.ar    1  UNL1       -0.2279
      6 C          10.8857   81.8078   24.9718 C.ar    1  UNL1        0.1149
      7 N          13.7655   83.8352   23.8556 N.pl3   1  UNL1       -0.2932
      8 C          15.0919   83.6222   23.2564 C.3     1  UNL1        0.0923
      9 C          15.3649   84.6911   22.1956 C.3     1  UNL1        0.0252
     10 C          15.2941   86.1282   22.7750 C.3     1  UNL1        0.0471
     11 C          14.4232   86.2200   24.0531 C.3     1  UNL1        0.0252
     12 C          13.2703   85.2085   24.0553 C.3     1  UNL1        0.0923
     13 C          14.8133   87.1258   21.7080 C.3     1  UNL1        0.2054
     14 O          14.1654   86.4243   20.6483 O.3     1  UNL1       -0.4757
     15 C          14.2108   86.7890   19.2918 C.ar    1  UNL1        0.1371
     16 C          13.9335   88.1068   18.8867 C.ar    1  UNL1        0.0367
     17 C          13.9933   88.4612   17.5443 C.ar    1  UNL1        0.0033
     18 C          14.3222   87.5118   16.5828 C.ar    1  UNL1        0.0064
     19 C          14.5928   86.1804   16.9427 C.ar    1  UNL1        0.0768
     20 C          14.5453   85.8103   18.3213 C.ar    1  UNL1        0.0472
     21 C          14.9295   85.2320   15.8469 C.2     1  UNL1        0.3379
     22 O          14.2643   85.2035   14.7780 O.2     1  UNL1       -0.2451
     23 O          16.0233   84.3802   15.9819 O.3     1  UNL1       -0.4771
     24 H          16.2763   83.7362   15.2418 H       1  UNL1        0.2954
     25 C          14.8862   84.4041   18.7753 C.3     1  UNL1        0.1668
     26 O          16.2492   84.1572   18.5652 O.3     1  UNL1       -0.3771
     27 H          16.3997   83.2075   18.8110 H       1  UNL1        0.2109
     28 C          11.2062   78.2675   26.3038 C.2     1  UNL1        0.2839
     29 O          12.4488   78.0564   26.2963 O.2     1  UNL1       -0.2665
     30 N          10.6659   79.4305   25.6555 N.am    1  UNL1       -0.2766
     31 H           9.6500   79.4272   25.4097 H       1  UNL1        0.1553
     32 C           8.1025   77.8122   25.6460 C.3     1  UNL1        0.0345
     33 C           8.9426   77.0950   26.6596 C.ar    1  UNL1        0.0202
     34 C          10.2977   77.2975   26.9443 C.ar    1  UNL1        0.1946
     35 O          10.6868   76.4730   27.9006 O.2     1  UNL1       -0.4492
     36 C           9.6538   75.7466   28.2512 C.ar    1  UNL1        0.1452
     37 C           9.6124   74.7511   29.2210 C.ar    1  UNL1        0.0375
     38 C           8.3908   74.0900   29.4367 C.ar    1  UNL1        0.0031
     39 C           7.2347   74.4317   28.6842 C.ar    1  UNL1        0.0002
     40 C           7.3197   75.4519   27.7064 C.ar    1  UNL1        0.0028
     41 C           8.5482   76.0873   27.5189 C.ar    1  UNL1        0.0337
     42 C           5.9496   73.7262   28.9208 C.ar    1  UNL1        0.0000
     43 C           5.5796   72.6261   28.1238 C.ar    1  UNL1        0.0000
     44 C           4.3685   71.9645   28.3484 C.ar    1  UNL1        0.0000
     45 C           3.5151   72.3908   29.3684 C.ar    1  UNL1        0.0000
     46 C           3.8709   73.4806   30.1661 C.ar    1  UNL1        0.0000
     47 C           5.0803   74.1467   29.9456 C.ar    1  UNL1        0.0000
@<TRIPOS>BOND
     1    32    33    1
     2    33    34   ar
     3    34    28    1
     4    28    29    2
     5    28    30   am
     6    30     1    1
     7     1     2   ar
     8     2     3   ar
     9     3     4   ar
    10     4     7    1
    11     7     8    1
    12     8     9    1
    13     9    10    1
    14    10    13    1
    15    13    14    1
    16    14    15    1
    17    15    16   ar
    18    16    17   ar
    19    17    18   ar
    20    18    19   ar
    21    19    21    1
    22    21    22    2
    23    21    23    1
    24    19    20   ar
    25    20    25    1
    26    25    26    1
    27    10    11    1
    28    11    12    1
    29     4     5   ar
    30     5     6   ar
    31    34    35   ar
    32    35    36   ar
    33    36    37   ar
    34    37    38   ar
    35    38    39   ar
    36    39    42    1
    37    42    43   ar
    38    43    44   ar
    39    44    45   ar
    40    45    46   ar
    41    46    47   ar
    42    39    40   ar
    43    40    41   ar
    44    41    33   ar
    45     6     1   ar
    46    41    36   ar
    47    12     7    1
    48    47    42   ar
    49    20    15   ar
    50    30    31    1
    51    23    24    1
    52    26    27    1
@<TRIPOS>MOLECULE
*****
 47 52 0 0 0
SMALL
GASTEIGER

@<TRIPOS>ATOM
      1 C          11.7505   80.7081   25.1118 C.ar    1  UNL1        0.0702
      2 C          13.1487   80.6813   25.0536 C.ar    1  UNL1        0.0191
      3 C          13.8576   81.8040   24.6241 C.ar    1  UNL1        0.0356
      4 C          13.1586   82.9580   24.2297 C.ar    1  UNL1        0.1318
      5 N          11.7966   82.9521   24.2757 N.ar    1  UNL1       -0.2279
      6 C          11.0859   81.8722   24.6950 C.ar    1  UNL1        0.1149
      7 N          13.8541   84.1417   23.7812 N.pl3   1  UNL1       -0.2932
      8 C          15.2205   84.0244   23.2488 C.3     1  UNL1        0.0923
      9 C          15.4573   85.0895   22.1756 C.3     1  UNL1        0.0252
     10 C          15.2443   86.5280   22.7155 C.3     1  UNL1        0.0471
     11 C          14.3088   86.5756   23.9497 C.3     1  UNL1        0.0252
     12 C          13.2418   85.4742   23.9240 C.3     1  UNL1        0.0923
     13 C          14.7367   87.4608   21.6033 C.3     1  UNL1        0.2054
     14 O          14.1156   86.6921   20.5746 O.3     1  UNL1       -0.4757
     15 C          14.1885   86.9741   19.1997 C.ar    1  UNL1        0.1371
     16 C          13.9204   88.2648   18.7101 C.ar    1  UNL1        0.0367
     17 C          14.0075   88.5373   17.3501 C.ar    1  UNL1        0.0033
     18 C          14.3551   87.5317   16.4547 C.ar    1  UNL1        0.0064
     19 C          14.6175   86.2247   16.8999 C.ar    1  UNL1        0.0768
     20 C          14.5419   85.9387   18.2972 C.ar    1  UNL1        0.0472
     21 C          14.9757   85.2119   15.8706 C.2     1  UNL1        0.3379
     22 O          14.3075   85.0915   14.8100 O.2     1  UNL1       -0.2451
     23 O          16.0926   84.4010   16.0580 O.3     1  UNL1       -0.4771
     24 H          16.3602   83.7142   15.3629 H       1  UNL1        0.2954
     25 C          14.8727   84.5627   18.8423 C.3     1  UNL1        0.1668
     26 O          13.7551   84.0346   19.5017 O.3     1  UNL1       -0.3771
     27 H          14.0482   83.1723   19.8962 H       1  UNL1        0.2109
     28 C           9.9794   79.5473   26.5124 C.2     1  UNL1        0.2839
     29 O           9.7997   80.5604   27.2404 O.2     1  UNL1       -0.2665
     30 N          11.0333   79.5360   25.5357 N.am    1  UNL1       -0.2766
     31 H          11.3556   78.6102   25.1730 H       1  UNL1        0.1553
     32 C           8.1237   78.8603   29.0338 C.3     1  UNL1        0.0345
     33 C           8.3202   78.0493   27.7884 C.ar    1  UNL1        0.0202
     34 C           9.1323   78.3526   26.6898 C.ar    1  UNL1        0.1946
     35 O           9.0430   77.3952   25.7837 O.2     1  UNL1       -0.4492
     36 C           8.2153   76.4863   26.2382 C.ar    1  UNL1        0.1452
     37 C           7.8283   75.3078   25.6099 C.ar    1  UNL1        0.0375
     38 C           6.9206   74.4697   26.2802 C.ar    1  UNL1        0.0031
     39 C           6.4158   74.8195   27.5618 C.ar    1  UNL1        0.0002
     40 C           6.8360   76.0285   28.1667 C.ar    1  UNL1        0.0028
     41 C           7.7382   76.8364   27.4727 C.ar    1  UNL1        0.0337
     42 C           5.4571   73.9262   28.2603 C.ar    1  UNL1        0.0000
     43 C           4.6600   74.4147   29.3130 C.ar    1  UNL1        0.0000
     44 C           3.7589   73.5709   29.9695 C.ar    1  UNL1        0.0000
     45 C           3.6422   72.2337   29.5840 C.ar    1  UNL1        0.0000
     46 C           4.4271   71.7370   28.5410 C.ar    1  UNL1        0.0000
     47 C           5.3306   72.5759   27.8815 C.ar    1  UNL1        0.0000
@<TRIPOS>BOND
     1    32    33    1
     2    33    34   ar
     3    34    28    1
     4    28    29    2
     5    28    30   am
     6    30     1    1
     7     1     2   ar
     8     2     3   ar
     9     3     4   ar
    10     4     7    1
    11     7     8    1
    12     8     9    1
    13     9    10    1
    14    10    13    1
    15    13    14    1
    16    14    15    1
    17    15    16   ar
    18    16    17   ar
    19    17    18   ar
    20    18    19   ar
    21    19    21    1
    22    21    22    2
    23    21    23    1
    24    19    20   ar
    25    20    25    1
    26    25    26    1
    27    10    11    1
    28    11    12    1
    29     4     5   ar
    30     5     6   ar
    31    34    35   ar
    32    35    36   ar
    33    36    37   ar
    34    37    38   ar
    35    38    39   ar
    36    39    42    1
    37    42    43   ar
    38    43    44   ar
    39    44    45   ar
    40    45    46   ar
    41    46    47   ar
    42    39    40   ar
    43    40    41   ar
    44    41    33   ar
    45     6     1   ar
    46    41    36   ar
    47    12     7    1
    48    47    42   ar
    49    20    15   ar
    50    30    31    1
    51    23    24    1
    52    26    27    1
@<TRIPOS>MOLECULE
*****
 47 52 0 0 0
SMALL
GASTEIGER

@<TRIPOS>ATOM
      1 C          10.6282   80.9938   24.4255 C.ar    1  UNL1        0.0702
      2 C          10.4216   80.1913   23.2976 C.ar    1  UNL1        0.0191
      3 C           9.7725   78.9616   23.4173 C.ar    1  UNL1        0.0356
      4 C           9.3442   78.5223   24.6818 C.ar    1  UNL1        0.1318
      5 N           9.5757   79.3125   25.7679 N.ar    1  UNL1       -0.2279
      6 C          10.2013   80.5154   25.6742 C.ar    1  UNL1        0.1149
      7 N           8.6669   77.2576   24.8487 N.pl3   1  UNL1       -0.2932
      8 C           8.6354   76.6188   26.1734 C.3     1  UNL1        0.0923
      9 C           7.3350   75.8299   26.3434 C.3     1  UNL1        0.0252
     10 C           7.1578   74.7430   25.2511 C.3     1  UNL1        0.0471
     11 C           7.9485   75.0563   23.9560 C.3     1  UNL1        0.0252
     12 C           8.0759   76.5617   23.6922 C.3     1  UNL1        0.0923
     13 C           5.6687   74.5118   24.9450 C.3     1  UNL1        0.2054
     14 O           5.2038   75.5041   24.0319 O.3     1  UNL1       -0.4757
     15 C           4.1569   76.4071   24.2845 C.ar    1  UNL1        0.1371
     16 C           3.7759   76.7244   25.6004 C.ar    1  UNL1        0.0367
     17 C           2.7480   77.6283   25.8404 C.ar    1  UNL1        0.0033
     18 C           2.0777   78.2257   24.7785 C.ar    1  UNL1        0.0064
     19 C           2.4170   77.9262   23.4478 C.ar    1  UNL1        0.0768
     20 C           3.4801   77.0074   23.1921 C.ar    1  UNL1        0.0472
     21 C           1.6421   78.6075   22.3760 C.2     1  UNL1        0.3379
     22 O           2.1425   79.5462   21.7019 O.2     1  UNL1       -0.2451
     23 O           0.3494   78.1812   22.0800 O.3     1  UNL1       -0.4771
     24 H          -0.1896   78.6240   21.3453 H       1  UNL1        0.2954
     25 C           3.9303   76.6917   21.7788 C.3     1  UNL1        0.1668
     26 O           4.5716   77.8082   21.2266 O.3     1  UNL1       -0.3771
     27 H           4.7792   77.5710   20.2855 H       1  UNL1        0.2109
     28 C          12.6372   82.5003   24.8006 C.2     1  UNL1        0.2839
     29 O          13.1617   81.7032   25.6241 O.2     1  UNL1       -0.2665
     30 N          11.3180   82.2483   24.2896 N.am    1  UNL1       -0.2766
     31 H          10.7945   83.0487   23.8679 H       1  UNL1        0.1553
     32 C          15.4627   82.6439   23.2944 C.3     1  UNL1        0.0345
     33 C          14.5945   83.7852   23.7315 C.ar    1  UNL1        0.0202
     34 C          13.3615   83.7182   24.3899 C.ar    1  UNL1        0.1946
     35 O          12.8985   84.9363   24.6077 O.2     1  UNL1       -0.4492
     36 C          13.7680   85.7900   24.1251 C.ar    1  UNL1        0.1452
     37 C          13.6834   87.1778   24.1360 C.ar    1  UNL1        0.0375
     38 C          14.7357   87.9079   23.5569 C.ar    1  UNL1        0.0031
     39 C          15.8512   87.2440   22.9786 C.ar    1  UNL1        0.0002
     40 C          15.8984   85.8291   22.9888 C.ar    1  UNL1        0.0028
     41 C          14.8365   85.1363   23.5724 C.ar    1  UNL1        0.0337
     42 C          16.9569   88.0259   22.3695 C.ar    1  UNL1        0.0000
     43 C          16.8961   88.4195   21.0190 C.ar    1  UNL1        0.0000
     44 C          17.9393   89.1548   20.4479 C.ar    1  UNL1        0.0000
     45 C          19.0518   89.5060   21.2156 C.ar    1  UNL1        0.0000
     46 C          19.1239   89.1219   22.5565 C.ar    1  UNL1        0.0000
     47 C          18.0843   88.3856   23.1325 C.ar    1  UNL1        0.0000
@<TRIPOS>BOND
     1    32    33    1
     2    33    34   ar
     3    34    28    1
     4    28    29    2
     5    28    30   am
     6    30     1    1
     7     1     2   ar
     8     2     3   ar
     9     3     4   ar
    10     4     7    1
    11     7     8    1
    12     8     9    1
    13     9    10    1
    14    10    13    1
    15    13    14    1
    16    14    15    1
    17    15    16   ar
    18    16    17   ar
    19    17    18   ar
    20    18    19   ar
    21    19    21    1
    22    21    22    2
    23    21    23    1
    24    19    20   ar
    25    20    25    1
    26    25    26    1
    27    10    11    1
    28    11    12    1
    29     4     5   ar
    30     5     6   ar
    31    34    35   ar
    32    35    36   ar
    33    36    37   ar
    34    37    38   ar
    35    38    39   ar
    36    39    42    1
    37    42    43   ar
    38    43    44   ar
    39    44    45   ar
    40    45    46   ar
    41    46    47   ar
    42    39    40   ar
    43    40    41   ar
    44    41    33   ar
    45     6     1   ar
    46    41    36   ar
    47    12     7    1
    48    47    42   ar
    49    20    15   ar
    50    30    31    1
    51    23    24    1
    52    26    27    1
@<TRIPOS>MOLECULE
*****
 47 52 0 0 0
SMALL
GASTEIGER

@<TRIPOS>ATOM
      1 C          10.6506   81.1772   24.9670 C.ar    1  UNL1        0.0702
      2 C          10.4061   80.7027   26.2608 C.ar    1  UNL1        0.0191
      3 C           9.6607   79.5390   26.4553 C.ar    1  UNL1        0.0356
      4 C           9.1381   78.8549   25.3442 C.ar    1  UNL1        0.1318
      5 N           9.3725   79.3485   24.0957 N.ar    1  UNL1       -0.2279
      6 C          10.0994   80.4769   23.8824 C.ar    1  UNL1        0.1149
      7 N           8.3636   77.6460   25.5017 N.pl3   1  UNL1       -0.2932
      8 C           7.8119   77.3026   26.8215 C.3     1  UNL1        0.0923
      9 C           6.4888   76.5514   26.6564 C.3     1  UNL1        0.0252
     10 C           6.6473   75.2552   25.8192 C.3     1  UNL1        0.0471
     11 C           7.8723   75.2965   24.8716 C.3     1  UNL1        0.0252
     12 C           8.1867   76.7131   24.3751 C.3     1  UNL1        0.0923
     13 C           5.3582   74.9455   25.0400 C.3     1  UNL1        0.2054
     14 O           4.6544   76.1565   24.7703 O.3     1  UNL1       -0.4757
     15 C           4.2374   76.5821   23.4974 C.ar    1  UNL1        0.1371
     16 C           4.8717   76.1132   22.3333 C.ar    1  UNL1        0.0367
     17 C           4.4441   76.5297   21.0784 C.ar    1  UNL1        0.0033
     18 C           3.3851   77.4232   20.9597 C.ar    1  UNL1        0.0064
     19 C           2.7323   77.9275   22.0977 C.ar    1  UNL1        0.0768
     20 C           3.1576   77.4955   23.3909 C.ar    1  UNL1        0.0472
     21 C           1.6141   78.8835   21.8757 C.2     1  UNL1        0.3379
     22 O           1.7732   79.9307   21.1946 O.2     1  UNL1       -0.2451
     23 O           0.3527   78.6048   22.3968 O.3     1  UNL1       -0.4771
     24 H          -0.4245   79.2369   22.2458 H       1  UNL1        0.2954
     25 C           2.4527   77.9585   24.6513 C.3     1  UNL1        0.1668
     26 O           1.2679   77.2310   24.8244 O.3     1  UNL1       -0.3771
     27 H           0.8166   77.6215   25.6174 H       1  UNL1        0.2109
     28 C          12.8354   82.4650   24.8468 C.2     1  UNL1        0.2839
     29 O          13.5010   81.5059   25.3219 O.2     1  UNL1       -0.2665
     30 N          11.4018   82.3897   24.7837 N.am    1  UNL1       -0.2766
     31 H          10.8680   83.2825   24.6824 H       1  UNL1        0.1553
     32 C          15.5753   82.6246   23.1914 C.3     1  UNL1        0.0345
     33 C          14.7210   83.7608   23.6675 C.ar    1  UNL1        0.0202
     34 C          13.5253   83.6867   24.3910 C.ar    1  UNL1        0.1946
     35 O          13.0632   84.9020   24.6261 O.2     1  UNL1       -0.4492
     36 C          13.8978   85.7604   24.0929 C.ar    1  UNL1        0.1452
     37 C          13.8009   87.1475   24.1002 C.ar    1  UNL1        0.0375
     38 C          14.8140   87.8834   23.4617 C.ar    1  UNL1        0.0031
     39 C          15.9033   87.2260   22.8287 C.ar    1  UNL1        0.0002
     40 C          15.9643   85.8117   22.8446 C.ar    1  UNL1        0.0028
     41 C          14.9415   85.1130   23.4879 C.ar    1  UNL1        0.0337
     42 C          16.9677   88.0141   22.1570 C.ar    1  UNL1        0.0000
     43 C          18.2275   88.1786   22.7638 C.ar    1  UNL1        0.0000
     44 C          19.2275   88.9221   22.1295 C.ar    1  UNL1        0.0000
     45 C          18.9833   89.5076   20.8854 C.ar    1  UNL1        0.0000
     46 C          17.7379   89.3515   20.2728 C.ar    1  UNL1        0.0000
     47 C          16.7339   88.6100   20.9029 C.ar    1  UNL1        0.0000
@<TRIPOS>BOND
     1    32    33    1
     2    33    34   ar
     3    34    28    1
     4    28    29    2
     5    28    30   am
     6    30     1    1
     7     1     2   ar
     8     2     3   ar
     9     3     4   ar
    10     4     7    1
    11     7     8    1
    12     8     9    1
    13     9    10    1
    14    10    13    1
    15    13    14    1
    16    14    15    1
    17    15    16   ar
    18    16    17   ar
    19    17    18   ar
    20    18    19   ar
    21    19    21    1
    22    21    22    2
    23    21    23    1
    24    19    20   ar
    25    20    25    1
    26    25    26    1
    27    10    11    1
    28    11    12    1
    29     4     5   ar
    30     5     6   ar
    31    34    35   ar
    32    35    36   ar
    33    36    37   ar
    34    37    38   ar
    35    38    39   ar
    36    39    42    1
    37    42    43   ar
    38    43    44   ar
    39    44    45   ar
    40    45    46   ar
    41    46    47   ar
    42    39    40   ar
    43    40    41   ar
    44    41    33   ar
    45     6     1   ar
    46    41    36   ar
    47    12     7    1
    48    47    42   ar
    49    20    15   ar
    50    30    31    1
    51    23    24    1
    52    26    27    1
@<TRIPOS>MOLECULE
*****
 47 52 0 0 0
SMALL
GASTEIGER

@<TRIPOS>ATOM
      1 C          11.4206   80.9594   25.2716 C.ar    1  UNL1        0.0702
      2 C          12.3169   81.5608   26.1625 C.ar    1  UNL1        0.0191
      3 C          13.1371   82.6071   25.7379 C.ar    1  UNL1        0.0356
      4 C          13.0734   83.0418   24.4028 C.ar    1  UNL1        0.1318
      5 N          12.2074   82.4263   23.5492 N.ar    1  UNL1       -0.2279
      6 C          11.3960   81.4091   23.9419 C.ar    1  UNL1        0.1149
      7 N          13.9031   84.1226   23.9236 N.pl3   1  UNL1       -0.2932
      8 C          15.1291   83.8189   23.1694 C.3     1  UNL1        0.0923
      9 C          15.3984   84.9211   22.1424 C.3     1  UNL1        0.0252
     10 C          15.5402   86.3184   22.8007 C.3     1  UNL1        0.0471
     11 C          14.8239   86.4138   24.1713 C.3     1  UNL1        0.0252
     12 C          13.5784   85.5224   24.2493 C.3     1  UNL1        0.0923
     13 C          15.0561   87.4243   21.8481 C.3     1  UNL1        0.2054
     14 O          13.9946   86.9294   21.0338 O.3     1  UNL1       -0.4757
     15 C          14.1029   86.6166   19.6679 C.ar    1  UNL1        0.1371
     16 C          14.3041   85.2916   19.2423 C.ar    1  UNL1        0.0367
     17 C          14.3971   84.9901   17.8889 C.ar    1  UNL1        0.0033
     18 C          14.2989   85.9997   16.9376 C.ar    1  UNL1        0.0064
     19 C          14.1118   87.3391   17.3200 C.ar    1  UNL1        0.0768
     20 C          14.0032   87.6563   18.7083 C.ar    1  UNL1        0.0472
     21 C          14.0244   88.3530   16.2347 C.2     1  UNL1        0.3379
     22 O          15.0596   88.8513   15.7191 O.2     1  UNL1       -0.2451
     23 O          12.7776   88.7381   15.7473 O.3     1  UNL1       -0.4771
     24 H          12.6977   89.4176   15.0001 H       1  UNL1        0.2954
     25 C          13.7410   89.0742   19.1780 C.3     1  UNL1        0.1668
     26 O          12.5449   89.1171   19.9063 O.3     1  UNL1       -0.3771
     27 H          12.3882   90.0723   20.1253 H       1  UNL1        0.2109
     28 C          11.0946   78.5499   26.0022 C.2     1  UNL1        0.2839
     29 O          12.2498   78.2127   25.6274 O.2     1  UNL1       -0.2665
     30 N          10.5977   79.8679   25.7182 N.am    1  UNL1       -0.2766
     31 H           9.5646   80.0212   25.7571 H       1  UNL1        0.1553
     32 C           8.0190   77.9050   25.3712 C.3     1  UNL1        0.0345
     33 C           8.8897   77.2913   26.4261 C.ar    1  UNL1        0.0202
     34 C          10.2323   77.5765   26.6989 C.ar    1  UNL1        0.1946
     35 O          10.6580   76.8304   27.7028 O.2     1  UNL1       -0.4492
     36 C           9.6605   76.0764   28.0956 C.ar    1  UNL1        0.1452
     37 C           9.6644   75.1396   29.1230 C.ar    1  UNL1        0.0375
     38 C           8.4759   74.4335   29.3772 C.ar    1  UNL1        0.0031
     39 C           7.3070   74.6729   28.6052 C.ar    1  UNL1        0.0002
     40 C           7.3455   75.6360   27.5683 C.ar    1  UNL1        0.0028
     41 C           8.5421   76.3185   27.3438 C.ar    1  UNL1        0.0337
     42 C           6.0571   73.9207   28.8828 C.ar    1  UNL1        0.0000
     43 C           5.6941   72.8170   28.0875 C.ar    1  UNL1        0.0000
     44 C           4.5161   72.1114   28.3507 C.ar    1  UNL1        0.0000
     45 C           3.6892   72.4968   29.4081 C.ar    1  UNL1        0.0000
     46 C           4.0384   73.5897   30.2046 C.ar    1  UNL1        0.0000
     47 C           5.2146   74.2997   29.9454 C.ar    1  UNL1        0.0000
@<TRIPOS>BOND
     1    32    33    1
     2    33    34   ar
     3    34    28    1
     4    28    29    2
     5    28    30   am
     6    30     1    1
     7     1     2   ar
     8     2     3   ar
     9     3     4   ar
    10     4     7    1
    11     7     8    1
    12     8     9    1
    13     9    10    1
    14    10    13    1
    15    13    14    1
    16    14    15    1
    17    15    16   ar
    18    16    17   ar
    19    17    18   ar
    20    18    19   ar
    21    19    21    1
    22    21    22    2
    23    21    23    1
    24    19    20   ar
    25    20    25    1
    26    25    26    1
    27    10    11    1
    28    11    12    1
    29     4     5   ar
    30     5     6   ar
    31    34    35   ar
    32    35    36   ar
    33    36    37   ar
    34    37    38   ar
    35    38    39   ar
    36    39    42    1
    37    42    43   ar
    38    43    44   ar
    39    44    45   ar
    40    45    46   ar
    41    46    47   ar
    42    39    40   ar
    43    40    41   ar
    44    41    33   ar
    45     6     1   ar
    46    41    36   ar
    47    12     7    1
    48    47    42   ar
    49    20    15   ar
    50    30    31    1
    51    23    24    1
    52    26    27    1
@<TRIPOS>MOLECULE
*****
 47 52 0 0 0
SMALL
GASTEIGER

@<TRIPOS>ATOM
      1 C          10.5809   81.0874   24.7369 C.ar    1  UNL1        0.0702
      2 C          10.3083   80.5861   26.0149 C.ar    1  UNL1        0.0191
      3 C           9.5800   79.4055   26.1679 C.ar    1  UNL1        0.0356
      4 C           9.1027   78.7313   25.0307 C.ar    1  UNL1        0.1318
      5 N           9.3635   79.2508   23.7980 N.ar    1  UNL1       -0.2279
      6 C          10.0745   80.3960   23.6250 C.ar    1  UNL1        0.1149
      7 N           8.3472   77.5056   25.1452 N.pl3   1  UNL1       -0.2932
      8 C           7.0215   77.5254   25.7825 C.3     1  UNL1        0.0923
      9 C           6.1185   76.4667   25.1454 C.3     1  UNL1        0.0252
     10 C           6.7145   75.0390   25.2570 C.3     1  UNL1        0.0471
     11 C           8.2556   75.0406   25.4174 C.3     1  UNL1        0.0252
     12 C           8.9218   76.2230   24.7030 C.3     1  UNL1        0.0923
     13 C           6.2860   74.1716   24.0617 C.3     1  UNL1        0.2054
     14 O           5.2920   74.8555   23.3008 O.3     1  UNL1       -0.4757
     15 C           5.1390   74.7665   21.9066 C.ar    1  UNL1        0.1371
     16 C           5.8630   73.8221   21.1575 C.ar    1  UNL1        0.0367
     17 C           5.6956   73.7329   19.7807 C.ar    1  UNL1        0.0033
     18 C           4.8125   74.5842   19.1255 C.ar    1  UNL1        0.0064
     19 C           4.0797   75.5520   19.8340 C.ar    1  UNL1        0.0768
     20 C           4.2368   75.6425   21.2506 C.ar    1  UNL1        0.0472
     21 C           3.1636   76.4235   19.0499 C.2     1  UNL1        0.3379
     22 O           1.9935   76.0554   18.7652 O.2     1  UNL1       -0.2451
     23 O           3.5872   77.6888   18.6499 O.3     1  UNL1       -0.4771
     24 H           2.9738   78.3020   18.1264 H       1  UNL1        0.2954
     25 C           3.4286   76.6258   22.0751 C.3     1  UNL1        0.1668
     26 O           2.5727   75.9279   22.9373 O.3     1  UNL1       -0.3771
     27 H           2.0223   76.6144   23.3965 H       1  UNL1        0.2109
     28 C          12.7230   82.4460   24.8456 C.2     1  UNL1        0.2839
     29 O          13.3466   81.5336   25.4515 O.2     1  UNL1       -0.2665
     30 N          11.3138   82.3167   24.5961 N.am    1  UNL1       -0.2766
     31 H          10.7723   83.1844   24.3809 H       1  UNL1        0.1553
     32 C          15.4710   82.6131   23.2044 C.3     1  UNL1        0.0345
     33 C          14.6309   83.7475   23.7092 C.ar    1  UNL1        0.0202
     34 C          13.4317   83.6702   24.4264 C.ar    1  UNL1        0.1946
     35 O          12.9857   84.8848   24.6938 O.2     1  UNL1       -0.4492
     36 C          13.8342   85.7459   24.1876 C.ar    1  UNL1        0.1452
     37 C          13.7567   87.1335   24.2333 C.ar    1  UNL1        0.0375
     38 C          14.7824   87.8725   23.6190 C.ar    1  UNL1        0.0031
     39 C          15.8647   87.2177   22.9714 C.ar    1  UNL1        0.0002
     40 C          15.9058   85.8028   22.9480 C.ar    1  UNL1        0.0028
     41 C          14.8709   85.1010   23.5681 C.ar    1  UNL1        0.0337
     42 C          16.9425   88.0092   22.3255 C.ar    1  UNL1        0.0000
     43 C          16.8025   88.4608   20.9993 C.ar    1  UNL1        0.0000
     44 C          17.8195   89.2049   20.3935 C.ar    1  UNL1        0.0000
     45 C          18.9844   89.5071   21.1020 C.ar    1  UNL1        0.0000
     46 C          19.1353   89.0652   22.4183 C.ar    1  UNL1        0.0000
     47 C          18.1221   88.3199   23.0288 C.ar    1  UNL1        0.0000
@<TRIPOS>BOND
     1    32    33    1
     2    33    34   ar
     3    34    28    1
     4    28    29    2
     5    28    30   am
     6    30     1    1
     7     1     2   ar
     8     2     3   ar
     9     3     4   ar
    10     4     7    1
    11     7     8    1
    12     8     9    1
    13     9    10    1
    14    10    13    1
    15    13    14    1
    16    14    15    1
    17    15    16   ar
    18    16    17   ar
    19    17    18   ar
    20    18    19   ar
    21    19    21    1
    22    21    22    2
    23    21    23    1
    24    19    20   ar
    25    20    25    1
    26    25    26    1
    27    10    11    1
    28    11    12    1
    29     4     5   ar
    30     5     6   ar
    31    34    35   ar
    32    35    36   ar
    33    36    37   ar
    34    37    38   ar
    35    38    39   ar
    36    39    42    1
    37    42    43   ar
    38    43    44   ar
    39    44    45   ar
    40    45    46   ar
    41    46    47   ar
    42    39    40   ar
    43    40    41   ar
    44    41    33   ar
    45     6     1   ar
    46    41    36   ar
    47    12     7    1
    48    47    42   ar
    49    20    15   ar
    50    30    31    1
    51    23    24    1
    52    26    27    1
@<TRIPOS>MOLECULE
*****
 47 52 0 0 0
SMALL
GASTEIGER

@<TRIPOS>ATOM
      1 C          10.5979   80.9527   24.3273 C.ar    1  UNL1        0.0702
      2 C          10.4440   80.1878   23.1653 C.ar    1  UNL1        0.0191
      3 C           9.7602   78.9720   23.2077 C.ar    1  UNL1        0.0356
      4 C           9.2430   78.5079   24.4295 C.ar    1  UNL1        0.1318
      5 N           9.4240   79.2610   25.5509 N.ar    1  UNL1       -0.2279
      6 C          10.0822   80.4500   25.5323 C.ar    1  UNL1        0.1149
      7 N           8.5272   77.2565   24.5162 N.pl3   1  UNL1       -0.2932
      8 C           9.1972   76.0069   24.1241 C.3     1  UNL1        0.0923
      9 C           8.6695   74.8433   24.9667 C.3     1  UNL1        0.0252
     10 C           7.1353   74.6625   24.8270 C.3     1  UNL1        0.0471
     11 C           6.4125   75.9634   24.3958 C.3     1  UNL1        0.0252
     12 C           7.1097   77.2261   24.9168 C.3     1  UNL1        0.0923
     13 C           6.5298   74.0998   26.1236 C.3     1  UNL1        0.2054
     14 O           5.7923   75.1200   26.7945 O.3     1  UNL1       -0.4757
     15 C           5.6503   75.2301   28.1884 C.ar    1  UNL1        0.1371
     16 C           6.4493   74.4690   29.0600 C.ar    1  UNL1        0.0367
     17 C           6.3105   74.5940   30.4371 C.ar    1  UNL1        0.0033
     18 C           5.3720   75.4709   30.9702 C.ar    1  UNL1        0.0064
     19 C           4.5435   76.2400   30.1351 C.ar    1  UNL1        0.0768
     20 C           4.6876   76.1265   28.7187 C.ar    1  UNL1        0.0472
     21 C           3.5640   77.1464   30.7928 C.2     1  UNL1        0.3379
     22 O           3.8655   78.3328   31.0883 O.2     1  UNL1       -0.2451
     23 O           2.2735   76.6941   31.0578 O.3     1  UNL1       -0.4771
     24 H           1.5884   77.3001   31.4935 H       1  UNL1        0.2954
     25 C           3.8639   76.9747   27.7690 C.3     1  UNL1        0.1668
     26 O           4.6958   77.5272   26.7865 O.3     1  UNL1       -0.3771
     27 H           4.1208   78.1243   26.2406 H       1  UNL1        0.2109
     28 C          12.6936   82.3417   24.6803 C.2     1  UNL1        0.2839
     29 O          13.2576   81.4367   25.3521 O.2     1  UNL1       -0.2665
     30 N          11.3239   82.1928   24.2721 N.am    1  UNL1       -0.2766
     31 H          10.7978   83.0532   23.9978 H       1  UNL1        0.1553
     32 C          15.5129   82.5575   23.1709 C.3     1  UNL1        0.0345
     33 C          14.6577   83.6758   23.6863 C.ar    1  UNL1        0.0202
     34 C          13.4273   83.5772   24.3457 C.ar    1  UNL1        0.1946
     35 O          12.9770   84.7826   24.6450 O.2     1  UNL1       -0.4492
     36 C          13.8521   85.6580   24.2142 C.ar    1  UNL1        0.1452
     37 C          13.7806   87.0429   24.3160 C.ar    1  UNL1        0.0375
     38 C          14.8369   87.7996   23.7799 C.ar    1  UNL1        0.0031
     39 C          15.9432   87.1647   23.1533 C.ar    1  UNL1        0.0002
     40 C          15.9771   85.7518   23.0711 C.ar    1  UNL1        0.0028
     41 C          14.9116   85.0321   23.6141 C.ar    1  UNL1        0.0337
     42 C          17.0533   87.9746   22.5903 C.ar    1  UNL1        0.0000
     43 C          17.0684   88.3171   21.2247 C.ar    1  UNL1        0.0000
     44 C          18.1155   89.0790   20.6973 C.ar    1  UNL1        0.0000
     45 C          19.1563   89.5076   21.5239 C.ar    1  UNL1        0.0000
     46 C          19.1527   89.1747   22.8803 C.ar    1  UNL1        0.0000
     47 C          18.1088   88.4123   23.4130 C.ar    1  UNL1        0.0000
@<TRIPOS>BOND
     1    32    33    1
     2    33    34   ar
     3    34    28    1
     4    28    29    2
     5    28    30   am
     6    30     1    1
     7     1     2   ar
     8     2     3   ar
     9     3     4   ar
    10     4     7    1
    11     7     8    1
    12     8     9    1
    13     9    10    1
    14    10    13    1
    15    13    14    1
    16    14    15    1
    17    15    16   ar
    18    16    17   ar
    19    17    18   ar
    20    18    19   ar
    21    19    21    1
    22    21    22    2
    23    21    23    1
    24    19    20   ar
    25    20    25    1
    26    25    26    1
    27    10    11    1
    28    11    12    1
    29     4     5   ar
    30     5     6   ar
    31    34    35   ar
    32    35    36   ar
    33    36    37   ar
    34    37    38   ar
    35    38    39   ar
    36    39    42    1
    37    42    43   ar
    38    43    44   ar
    39    44    45   ar
    40    45    46   ar
    41    46    47   ar
    42    39    40   ar
    43    40    41   ar
    44    41    33   ar
    45     6     1   ar
    46    41    36   ar
    47    12     7    1
    48    47    42   ar
    49    20    15   ar
    50    30    31    1
    51    23    24    1
    52    26    27    1
