@<TRIPOS>MOLECULE
*****
 49 54 0 0 0
SMALL
GASTEIGER

@<TRIPOS>ATOM
      1 O         -65.1383  -39.2524  -24.5810 O.2     1  UNL1       -0.2701
      2 C         -64.4927  -40.1646  -24.0002 C.2     1  UNL1        0.2483
      3 N         -64.5181  -40.2428  -22.5633 N.am    1  UNL1       -0.2945
      4 H         -65.3361  -39.8057  -22.0813 H       1  UNL1        0.1501
      5 C         -63.7512  -41.1405  -24.8110 C.ar    1  UNL1        0.0808
      6 C         -62.6806  -41.8494  -24.2517 C.ar    1  UNL1        0.0080
      7 C         -62.0917  -42.9015  -24.9570 C.ar    1  UNL1        0.0148
      8 C         -62.5438  -43.2396  -26.2446 C.ar    1  UNL1        0.0502
      9 C         -63.5416  -42.4466  -26.8425 C.ar    1  UNL1        0.0443
     10 C         -64.1424  -41.4056  -26.1308 C.ar    1  UNL1        0.1457
     11 F         -65.1523  -40.7023  -26.7040 F       1  UNL1       -0.2040
     12 N         -62.0791  -44.4516  -26.8793 N.pl3   1  UNL1       -0.3040
     13 C         -60.6634  -44.8419  -26.8392 C.3     1  UNL1        0.1122
     14 C         -60.0426  -44.5995  -28.2184 C.3     1  UNL1        0.1123
     15 N         -60.9538  -45.0413  -29.2848 N.pl3   1  UNL1       -0.3011
     16 C         -62.1531  -45.8245  -28.9590 C.3     1  UNL1        0.1123
     17 C         -62.9595  -45.1213  -27.8551 C.3     1  UNL1        0.1122
     18 C         -60.7380  -44.5777  -30.6260 C.ar    1  UNL1        0.0928
     19 C         -59.5964  -44.9921  -31.3358 C.ar    1  UNL1        0.1485
     20 O         -58.6668  -45.8345  -30.7300 O.3     1  UNL1       -0.5042
     21 C         -59.4016  -44.5679  -32.6569 C.ar    1  UNL1        0.0493
     22 C         -60.3390  -43.7356  -33.2735 C.ar    1  UNL1        0.0616
     23 CL        -60.0947  -43.2185  -34.9315 Cl      1  UNL1       -0.0821
     24 C         -61.4702  -43.3146  -32.5686 C.ar    1  UNL1        0.0242
     25 C         -61.6735  -43.7302  -31.2479 C.ar    1  UNL1        0.0748
     26 CL        -63.0912  -43.1526  -30.3834 Cl      1  UNL1       -0.0808
     27 H         -57.8391  -46.1488  -31.2225 H       1  UNL1        0.2922
     28 C         -63.3685  -40.6092  -21.7201 C.3     1  UNL1        0.1535
     29 C         -62.7122  -39.3857  -21.1194 C.2     1  UNL1        0.2443
     30 O         -61.4570  -39.2750  -21.1332 O.2     1  UNL1       -0.2730
     31 N         -63.5260  -38.3345  -20.5726 N.am    1  UNL1       -0.2825
     32 H         -64.5627  -38.4240  -20.6711 H       1  UNL1        0.1549
     33 C         -63.0060  -37.0683  -20.1298 C.ar    1  UNL1        0.0535
     34 C         -63.4116  -36.5527  -18.8913 C.ar    1  UNL1        0.0353
     35 C         -62.9075  -35.3251  -18.4540 C.ar    1  UNL1        0.1002
     36 N         -62.0129  -34.6440  -19.2176 N.ar    1  UNL1       -0.2422
     37 C         -61.5831  -35.1290  -20.4120 C.ar    1  UNL1        0.1002
     38 C         -62.0667  -36.3501  -20.8881 C.ar    1  UNL1        0.0353
     39 C         -63.7663  -41.6751  -20.6734 C.3     1  UNL1        0.0569
     40 C         -63.1372  -43.0115  -20.9596 C.ar    1  UNL1       -0.0017
     41 C         -63.7916  -44.2384  -21.0112 C.ar    1  UNL1        0.0681
     42 N         -62.9360  -45.2147  -21.3904 N.ar    1  UNL1       -0.3523
     43 C         -61.7487  -44.6148  -21.5850 C.ar    1  UNL1        0.0563
     44 C         -60.5629  -45.2100  -22.0140 C.ar    1  UNL1        0.0170
     45 C         -59.4345  -44.3861  -22.1782 C.ar    1  UNL1        0.0015
     46 C         -59.5145  -43.0019  -21.9116 C.ar    1  UNL1        0.0001
     47 C         -60.7243  -42.4276  -21.4819 C.ar    1  UNL1        0.0012
     48 C         -61.8290  -43.2694  -21.3303 C.ar    1  UNL1        0.0131
     49 H         -63.1612  -46.2257  -21.5233 H       1  UNL1        0.1660
@<TRIPOS>BOND
     1     1     2    2
     2     2     3   am
     3     3    28    1
     4    28    39    1
     5    39    40    1
     6    40    41   ar
     7    41    42   ar
     8    42    43   ar
     9    43    44   ar
    10    44    45   ar
    11    45    46   ar
    12    46    47   ar
    13    47    48   ar
    14    28    29    1
    15    29    30    2
    16    29    31   am
    17    31    33    1
    18    33    34   ar
    19    34    35   ar
    20    35    36   ar
    21    36    37   ar
    22    37    38   ar
    23     2     5    1
    24     5     6   ar
    25     6     7   ar
    26     7     8   ar
    27     8    12    1
    28    12    13    1
    29    13    14    1
    30    14    15    1
    31    15    18    1
    32    18    19   ar
    33    19    20    1
    34    19    21   ar
    35    21    22   ar
    36    22    23    1
    37    22    24   ar
    38    24    25   ar
    39    25    26    1
    40    15    16    1
    41    16    17    1
    42     8     9   ar
    43     9    10   ar
    44    10    11    1
    45    48    40   ar
    46    38    33   ar
    47    10     5   ar
    48    48    43   ar
    49    17    12    1
    50    25    18   ar
    51     3     4    1
    52    42    49    1
    53    31    32    1
    54    20    27    1
@<TRIPOS>MOLECULE
*****
 49 54 0 0 0
SMALL
GASTEIGER

@<TRIPOS>ATOM
      1 O         -59.6130  -43.4721  -21.9900 O.2     1  UNL1       -0.2701
      2 C         -60.4710  -44.0133  -22.7365 C.2     1  UNL1        0.2483
      3 N         -60.9123  -45.3528  -22.4497 N.am    1  UNL1       -0.2945
      4 H         -60.8082  -45.6829  -21.4634 H       1  UNL1        0.1501
      5 C         -61.0166  -43.2487  -23.8667 C.ar    1  UNL1        0.0808
      6 C         -60.2205  -42.9908  -24.9897 C.ar    1  UNL1        0.0080
      7 C         -60.7859  -42.4252  -26.1350 C.ar    1  UNL1        0.0148
      8 C         -62.1485  -42.0801  -26.1629 C.ar    1  UNL1        0.0502
      9 C         -62.9114  -42.2367  -24.9901 C.ar    1  UNL1        0.0443
     10 C         -62.3505  -42.8181  -23.8506 C.ar    1  UNL1        0.1457
     11 F         -63.1273  -43.0241  -22.7564 F       1  UNL1       -0.2040
     12 N         -62.7718  -41.6951  -27.4083 N.pl3   1  UNL1       -0.3040
     13 C         -63.8757  -42.4746  -27.9845 C.3     1  UNL1        0.1122
     14 C         -63.3512  -43.2622  -29.1890 C.3     1  UNL1        0.1123
     15 N         -62.4613  -42.4273  -30.0098 N.pl3   1  UNL1       -0.3011
     16 C         -62.3613  -40.9829  -29.7620 C.3     1  UNL1        0.1123
     17 C         -62.0809  -40.7205  -28.2733 C.3     1  UNL1        0.1122
     18 C         -61.5857  -43.0586  -30.9560 C.ar    1  UNL1        0.0928
     19 C         -61.8776  -42.9969  -32.3307 C.ar    1  UNL1        0.1485
     20 O         -63.0256  -42.3416  -32.7706 O.3     1  UNL1       -0.5042
     21 C         -61.0061  -43.5831  -33.2581 C.ar    1  UNL1        0.0493
     22 C         -59.8458  -44.2278  -32.8224 C.ar    1  UNL1        0.0616
     23 CL        -58.7533  -44.9488  -33.9898 Cl      1  UNL1       -0.0821
     24 C         -59.5569  -44.2989  -31.4567 C.ar    1  UNL1        0.0242
     25 C         -60.4215  -43.7190  -30.5216 C.ar    1  UNL1        0.0748
     26 CL        -60.0409  -43.8583  -28.8108 Cl      1  UNL1       -0.0808
     27 H         -63.2546  -42.2813  -33.7557 H       1  UNL1        0.2922
     28 C         -61.2086  -46.3767  -23.4649 C.3     1  UNL1        0.1535
     29 C         -60.9407  -47.7695  -22.9389 C.2     1  UNL1        0.2443
     30 O         -60.4754  -47.9243  -21.7780 O.2     1  UNL1       -0.2730
     31 N         -61.2576  -48.9127  -23.7505 N.am    1  UNL1       -0.2825
     32 H         -61.7322  -48.7401  -24.6656 H       1  UNL1        0.1549
     33 C         -61.1922  -50.2707  -23.2801 C.ar    1  UNL1        0.0535
     34 C         -62.3802  -50.9813  -23.0607 C.ar    1  UNL1        0.0353
     35 C         -62.3234  -52.3016  -22.6072 C.ar    1  UNL1        0.1002
     36 N         -61.1210  -52.9002  -22.3990 N.ar    1  UNL1       -0.2422
     37 C         -59.9522  -52.2451  -22.6248 C.ar    1  UNL1        0.1002
     38 C         -59.9650  -50.9221  -23.0732 C.ar    1  UNL1        0.0353
     39 C         -62.6333  -46.1944  -24.0367 C.3     1  UNL1        0.0569
     40 C         -62.6764  -46.4044  -25.5259 C.ar    1  UNL1       -0.0017
     41 C         -62.1047  -45.5830  -26.4928 C.ar    1  UNL1        0.0681
     42 N         -62.2539  -46.1261  -27.7223 N.ar    1  UNL1       -0.3523
     43 C         -62.9089  -47.2860  -27.5404 C.ar    1  UNL1        0.0563
     44 C         -63.2646  -48.2162  -28.5164 C.ar    1  UNL1        0.0170
     45 C         -63.9281  -49.3851  -28.1013 C.ar    1  UNL1        0.0015
     46 C         -64.2196  -49.5957  -26.7359 C.ar    1  UNL1        0.0001
     47 C         -63.8472  -48.6414  -25.7722 C.ar    1  UNL1        0.0012
     48 C         -63.1873  -47.4916  -26.2131 C.ar    1  UNL1        0.0131
     49 H         -61.9104  -45.7307  -28.6257 H       1  UNL1        0.1660
@<TRIPOS>BOND
     1     1     2    2
     2     2     3   am
     3     3    28    1
     4    28    39    1
     5    39    40    1
     6    40    41   ar
     7    41    42   ar
     8    42    43   ar
     9    43    44   ar
    10    44    45   ar
    11    45    46   ar
    12    46    47   ar
    13    47    48   ar
    14    28    29    1
    15    29    30    2
    16    29    31   am
    17    31    33    1
    18    33    34   ar
    19    34    35   ar
    20    35    36   ar
    21    36    37   ar
    22    37    38   ar
    23     2     5    1
    24     5     6   ar
    25     6     7   ar
    26     7     8   ar
    27     8    12    1
    28    12    13    1
    29    13    14    1
    30    14    15    1
    31    15    18    1
    32    18    19   ar
    33    19    20    1
    34    19    21   ar
    35    21    22   ar
    36    22    23    1
    37    22    24   ar
    38    24    25   ar
    39    25    26    1
    40    15    16    1
    41    16    17    1
    42     8     9   ar
    43     9    10   ar
    44    10    11    1
    45    48    40   ar
    46    38    33   ar
    47    10     5   ar
    48    48    43   ar
    49    17    12    1
    50    25    18   ar
    51     3     4    1
    52    42    49    1
    53    31    32    1
    54    20    27    1
@<TRIPOS>MOLECULE
*****
 49 54 0 0 0
SMALL
GASTEIGER

@<TRIPOS>ATOM
      1 O         -59.9601  -41.0770  -27.0196 O.2     1  UNL1       -0.2701
      2 C         -60.2833  -42.2775  -26.8176 C.2     1  UNL1        0.2483
      3 N         -60.1398  -43.2362  -27.8813 N.am    1  UNL1       -0.2945
      4 H         -59.4463  -43.0100  -28.6300 H       1  UNL1        0.1501
      5 C         -60.7748  -42.6696  -25.4893 C.ar    1  UNL1        0.0808
      6 C         -59.8687  -43.0186  -24.4800 C.ar    1  UNL1        0.0080
      7 C         -60.3178  -43.2158  -23.1721 C.ar    1  UNL1        0.0148
      8 C         -61.6838  -43.0980  -22.8606 C.ar    1  UNL1        0.0502
      9 C         -62.5988  -42.8612  -23.9040 C.ar    1  UNL1        0.0443
     10 C         -62.1480  -42.6470  -25.2087 C.ar    1  UNL1        0.1457
     11 F         -63.0451  -42.3492  -26.1832 F       1  UNL1       -0.2040
     12 N         -62.1133  -43.0940  -21.4811 N.pl3   1  UNL1       -0.3040
     13 C         -63.5095  -43.3658  -21.1137 C.3     1  UNL1        0.1122
     14 C         -64.1771  -42.0524  -20.6948 C.3     1  UNL1        0.1123
     15 N         -63.2771  -41.2584  -19.8449 N.pl3   1  UNL1       -0.3011
     16 C         -62.0372  -41.8482  -19.3229 C.3     1  UNL1        0.1123
     17 C         -61.2319  -42.4843  -20.4676 C.3     1  UNL1        0.1122
     18 C         -63.5486  -39.8623  -19.6511 C.ar    1  UNL1        0.0928
     19 C         -62.9891  -38.9116  -20.5238 C.ar    1  UNL1        0.1485
     20 O         -62.1563  -39.3235  -21.5619 O.3     1  UNL1       -0.5042
     21 C         -63.2806  -37.5514  -20.3567 C.ar    1  UNL1        0.0493
     22 C         -64.1276  -37.1352  -19.3266 C.ar    1  UNL1        0.0616
     23 CL        -64.4977  -35.4321  -19.1309 Cl      1  UNL1       -0.0821
     24 C         -64.6785  -38.0761  -18.4519 C.ar    1  UNL1        0.0242
     25 C         -64.3921  -39.4369  -18.6081 C.ar    1  UNL1        0.0748
     26 CL        -65.0772  -40.5864  -17.4678 Cl      1  UNL1       -0.0808
     27 H         -61.7448  -38.6574  -22.2049 H       1  UNL1        0.2922
     28 C         -61.0808  -44.3339  -28.1574 C.3     1  UNL1        0.1535
     29 C         -61.3956  -44.4331  -29.6337 C.2     1  UNL1        0.2443
     30 O         -62.3893  -45.1044  -30.0208 O.2     1  UNL1       -0.2730
     31 N         -60.5836  -43.7263  -30.5862 N.am    1  UNL1       -0.2825
     32 H         -59.8311  -43.1040  -30.2134 H       1  UNL1        0.1549
     33 C         -60.8970  -43.6265  -31.9868 C.ar    1  UNL1        0.0535
     34 C         -62.1864  -43.2410  -32.3779 C.ar    1  UNL1        0.0353
     35 C         -62.4961  -43.1389  -33.7366 C.ar    1  UNL1        0.1002
     36 N         -61.5452  -43.3931  -34.6739 N.ar    1  UNL1       -0.2422
     37 C         -60.2802  -43.7463  -34.3257 C.ar    1  UNL1        0.1002
     38 C         -59.9310  -43.8652  -32.9782 C.ar    1  UNL1        0.0353
     39 C         -60.5813  -45.6606  -27.5404 C.3     1  UNL1        0.0569
     40 C         -61.2671  -45.9724  -26.2381 C.ar    1  UNL1       -0.0017
     41 C         -62.6389  -46.0845  -26.0331 C.ar    1  UNL1        0.0681
     42 N         -62.8967  -46.4703  -24.7628 N.ar    1  UNL1       -0.3523
     43 C         -61.7004  -46.6091  -24.1653 C.ar    1  UNL1        0.0563
     44 C         -61.4537  -47.0220  -22.8565 C.ar    1  UNL1        0.0170
     45 C         -60.1140  -47.1246  -22.4399 C.ar    1  UNL1        0.0015
     46 C         -59.0623  -46.8145  -23.3295 C.ar    1  UNL1        0.0001
     47 C         -59.3401  -46.4023  -24.6452 C.ar    1  UNL1        0.0012
     48 C         -60.6795  -46.3120  -25.0320 C.ar    1  UNL1        0.0131
     49 H         -63.8362  -46.6436  -24.3411 H       1  UNL1        0.1660
@<TRIPOS>BOND
     1     1     2    2
     2     2     3   am
     3     3    28    1
     4    28    39    1
     5    39    40    1
     6    40    41   ar
     7    41    42   ar
     8    42    43   ar
     9    43    44   ar
    10    44    45   ar
    11    45    46   ar
    12    46    47   ar
    13    47    48   ar
    14    28    29    1
    15    29    30    2
    16    29    31   am
    17    31    33    1
    18    33    34   ar
    19    34    35   ar
    20    35    36   ar
    21    36    37   ar
    22    37    38   ar
    23     2     5    1
    24     5     6   ar
    25     6     7   ar
    26     7     8   ar
    27     8    12    1
    28    12    13    1
    29    13    14    1
    30    14    15    1
    31    15    18    1
    32    18    19   ar
    33    19    20    1
    34    19    21   ar
    35    21    22   ar
    36    22    23    1
    37    22    24   ar
    38    24    25   ar
    39    25    26    1
    40    15    16    1
    41    16    17    1
    42     8     9   ar
    43     9    10   ar
    44    10    11    1
    45    48    40   ar
    46    38    33   ar
    47    10     5   ar
    48    48    43   ar
    49    17    12    1
    50    25    18   ar
    51     3     4    1
    52    42    49    1
    53    31    32    1
    54    20    27    1
@<TRIPOS>MOLECULE
*****
 49 54 0 0 0
SMALL
GASTEIGER

@<TRIPOS>ATOM
      1 O         -63.6538  -48.9394  -28.1940 O.2     1  UNL1       -0.2701
      2 C         -63.4960  -47.7737  -27.7437 C.2     1  UNL1        0.2483
      3 N         -64.2319  -46.6846  -28.3298 N.am    1  UNL1       -0.2945
      4 H         -65.1190  -46.9277  -28.8264 H       1  UNL1        0.1501
      5 C         -62.5814  -47.5640  -26.6127 C.ar    1  UNL1        0.0808
      6 C         -61.2929  -47.0621  -26.8352 C.ar    1  UNL1        0.0080
      7 C         -60.4883  -46.6926  -25.7548 C.ar    1  UNL1        0.0148
      8 C         -60.9481  -46.8491  -24.4354 C.ar    1  UNL1        0.0502
      9 C         -62.1975  -47.4617  -24.2213 C.ar    1  UNL1        0.0443
     10 C         -63.0092  -47.8153  -25.3017 C.ar    1  UNL1        0.1457
     11 F         -64.2400  -48.3382  -25.0674 F       1  UNL1       -0.2040
     12 N         -60.2048  -46.2748  -23.3375 N.pl3   1  UNL1       -0.3040
     13 C         -60.5784  -46.5363  -21.9410 C.3     1  UNL1        0.1122
     14 C         -61.2362  -45.2810  -21.3599 C.3     1  UNL1        0.1123
     15 N         -60.5044  -44.0727  -21.7687 N.pl3   1  UNL1       -0.3011
     16 C         -59.1961  -44.1845  -22.4272 C.3     1  UNL1        0.1123
     17 C         -59.2840  -45.1566  -23.6150 C.3     1  UNL1        0.1122
     18 C         -61.1444  -42.7934  -21.6496 C.ar    1  UNL1        0.0928
     19 C         -60.8453  -41.9588  -20.5575 C.ar    1  UNL1        0.1485
     20 O         -59.9448  -42.3826  -19.5826 O.3     1  UNL1       -0.5042
     21 C         -61.4432  -40.6956  -20.4578 C.ar    1  UNL1        0.0493
     22 C         -62.3350  -40.2602  -21.4411 C.ar    1  UNL1        0.0616
     23 CL        -63.0703  -38.6729  -21.3160 Cl      1  UNL1       -0.0821
     24 C         -62.6414  -41.0902  -22.5233 C.ar    1  UNL1        0.0242
     25 C         -62.0519  -42.3547  -22.6316 C.ar    1  UNL1        0.0748
     26 CL        -62.4881  -43.3827  -23.9895 Cl      1  UNL1       -0.0808
     27 H         -59.7113  -41.7976  -18.7892 H       1  UNL1        0.2922
     28 C         -63.6996  -45.3294  -28.5462 C.3     1  UNL1        0.1535
     29 C         -62.9186  -45.2430  -29.8389 C.2     1  UNL1        0.2443
     30 O         -63.4610  -45.5813  -30.9248 O.2     1  UNL1       -0.2730
     31 N         -61.5738  -44.7354  -29.8283 N.am    1  UNL1       -0.2825
     32 H         -61.1995  -44.3752  -28.9213 H       1  UNL1        0.1549
     33 C         -60.8118  -44.4637  -31.0179 C.ar    1  UNL1        0.0535
     34 C         -61.4002  -43.7357  -32.0610 C.ar    1  UNL1        0.0353
     35 C         -60.6642  -43.4654  -33.2176 C.ar    1  UNL1        0.1002
     36 N         -59.3772  -43.8897  -33.3218 N.ar    1  UNL1       -0.2422
     37 C         -58.7719  -44.5774  -32.3183 C.ar    1  UNL1        0.1002
     38 C         -59.4744  -44.8731  -31.1475 C.ar    1  UNL1        0.0353
     39 C         -64.8182  -44.2688  -28.4267 C.3     1  UNL1        0.0569
     40 C         -64.4879  -43.0107  -29.1827 C.ar    1  UNL1       -0.0017
     41 C         -65.3124  -42.3512  -30.0892 C.ar    1  UNL1        0.0681
     42 N         -64.7337  -41.2016  -30.5044 N.ar    1  UNL1       -0.3523
     43 C         -63.5542  -41.1255  -29.8638 C.ar    1  UNL1        0.0563
     44 C         -62.6141  -40.0989  -29.9458 C.ar    1  UNL1        0.0170
     45 C         -61.4497  -40.2083  -29.1640 C.ar    1  UNL1        0.0015
     46 C         -61.2518  -41.3290  -28.3282 C.ar    1  UNL1        0.0001
     47 C         -62.2179  -42.3491  -28.2634 C.ar    1  UNL1        0.0012
     48 C         -63.3653  -42.2124  -29.0486 C.ar    1  UNL1        0.0131
     49 H         -65.1345  -40.5064  -31.1726 H       1  UNL1        0.1660
@<TRIPOS>BOND
     1     1     2    2
     2     2     3   am
     3     3    28    1
     4    28    39    1
     5    39    40    1
     6    40    41   ar
     7    41    42   ar
     8    42    43   ar
     9    43    44   ar
    10    44    45   ar
    11    45    46   ar
    12    46    47   ar
    13    47    48   ar
    14    28    29    1
    15    29    30    2
    16    29    31   am
    17    31    33    1
    18    33    34   ar
    19    34    35   ar
    20    35    36   ar
    21    36    37   ar
    22    37    38   ar
    23     2     5    1
    24     5     6   ar
    25     6     7   ar
    26     7     8   ar
    27     8    12    1
    28    12    13    1
    29    13    14    1
    30    14    15    1
    31    15    18    1
    32    18    19   ar
    33    19    20    1
    34    19    21   ar
    35    21    22   ar
    36    22    23    1
    37    22    24   ar
    38    24    25   ar
    39    25    26    1
    40    15    16    1
    41    16    17    1
    42     8     9   ar
    43     9    10   ar
    44    10    11    1
    45    48    40   ar
    46    38    33   ar
    47    10     5   ar
    48    48    43   ar
    49    17    12    1
    50    25    18   ar
    51     3     4    1
    52    42    49    1
    53    31    32    1
    54    20    27    1
@<TRIPOS>MOLECULE
*****
 49 54 0 0 0
SMALL
GASTEIGER

@<TRIPOS>ATOM
      1 O         -66.6590  -40.3097  -22.1247 O.2     1  UNL1       -0.2701
      2 C         -65.4839  -40.7614  -22.1648 C.2     1  UNL1        0.2483
      3 N         -64.8573  -41.2087  -20.9489 N.am    1  UNL1       -0.2945
      4 H         -65.4915  -41.4956  -20.1691 H       1  UNL1        0.1501
      5 C         -64.7951  -40.8423  -23.4604 C.ar    1  UNL1        0.0808
      6 C         -63.7126  -41.7152  -23.6270 C.ar    1  UNL1        0.0080
      7 C         -63.1727  -41.9279  -24.8976 C.ar    1  UNL1        0.0148
      8 C         -63.6867  -41.2472  -26.0152 C.ar    1  UNL1        0.0502
      9 C         -64.6969  -40.2867  -25.8180 C.ar    1  UNL1        0.0443
     10 C         -65.2484  -40.0864  -24.5504 C.ar    1  UNL1        0.1457
     11 F         -66.2711  -39.2062  -24.4001 F       1  UNL1       -0.2040
     12 N         -63.2704  -41.6244  -27.3464 N.pl3   1  UNL1       -0.3040
     13 C         -64.2016  -41.5766  -28.4816 C.3     1  UNL1        0.1122
     14 C         -64.6025  -43.0070  -28.8551 C.3     1  UNL1        0.1123
     15 N         -63.4337  -43.8991  -28.8295 N.pl3   1  UNL1       -0.3011
     16 C         -62.0794  -43.3445  -28.7023 C.3     1  UNL1        0.1123
     17 C         -62.0138  -42.3798  -27.5070 C.3     1  UNL1        0.1122
     18 C         -63.6383  -45.3191  -28.7838 C.ar    1  UNL1        0.0928
     19 C         -64.0426  -46.0067  -29.9425 C.ar    1  UNL1        0.1485
     20 O         -64.2637  -45.3070  -31.1266 O.3     1  UNL1       -0.5042
     21 C         -64.2096  -47.3974  -29.9083 C.ar    1  UNL1        0.0493
     22 C         -63.9740  -48.1051  -28.7270 C.ar    1  UNL1        0.0616
     23 CL        -64.1733  -49.8473  -28.6949 Cl      1  UNL1       -0.0821
     24 C         -63.5806  -47.4242  -27.5714 C.ar    1  UNL1        0.0242
     25 C         -63.4131  -46.0351  -27.5935 C.ar    1  UNL1        0.0748
     26 CL        -62.9500  -45.2108  -26.1113 Cl      1  UNL1       -0.0808
     27 H         -64.5518  -45.7811  -31.9744 H       1  UNL1        0.2922
     28 C         -63.4377  -41.0130  -20.6125 C.3     1  UNL1        0.1535
     29 C         -63.2087  -39.6775  -19.9399 C.2     1  UNL1        0.2443
     30 O         -62.9531  -39.6303  -18.7069 O.2     1  UNL1       -0.2730
     31 N         -63.2424  -38.4702  -20.7193 N.am    1  UNL1       -0.2825
     32 H         -63.3600  -38.5649  -21.7536 H       1  UNL1        0.1549
     33 C         -62.8786  -37.1763  -20.2063 C.ar    1  UNL1        0.0535
     34 C         -61.9173  -36.4130  -20.8825 C.ar    1  UNL1        0.0353
     35 C         -61.5622  -35.1540  -20.3913 C.ar    1  UNL1        0.1002
     36 N         -62.1611  -34.6641  -19.2739 N.ar    1  UNL1       -0.2422
     37 C         -63.1131  -35.3704  -18.6097 C.ar    1  UNL1        0.1002
     38 C         -63.4928  -36.6356  -19.0646 C.ar    1  UNL1        0.0353
     39 C         -62.8880  -42.2135  -19.8082 C.3     1  UNL1        0.0569
     40 C         -62.4688  -43.3489  -20.7018 C.ar    1  UNL1       -0.0017
     41 C         -63.2397  -44.4536  -21.0506 C.ar    1  UNL1        0.0681
     42 N         -62.5828  -45.2241  -21.9472 N.ar    1  UNL1       -0.3523
     43 C         -61.4068  -44.6130  -22.1729 C.ar    1  UNL1        0.0563
     44 C         -60.4005  -45.0171  -23.0495 C.ar    1  UNL1        0.0170
     45 C         -59.2531  -44.2098  -23.1518 C.ar    1  UNL1        0.0015
     46 C         -59.1370  -43.0307  -22.3837 C.ar    1  UNL1        0.0001
     47 C         -60.1686  -42.6458  -21.5087 C.ar    1  UNL1        0.0012
     48 C         -61.2974  -43.4653  -21.4296 C.ar    1  UNL1        0.0131
     49 H         -62.9309  -46.1045  -22.3877 H       1  UNL1        0.1660
@<TRIPOS>BOND
     1     1     2    2
     2     2     3   am
     3     3    28    1
     4    28    39    1
     5    39    40    1
     6    40    41   ar
     7    41    42   ar
     8    42    43   ar
     9    43    44   ar
    10    44    45   ar
    11    45    46   ar
    12    46    47   ar
    13    47    48   ar
    14    28    29    1
    15    29    30    2
    16    29    31   am
    17    31    33    1
    18    33    34   ar
    19    34    35   ar
    20    35    36   ar
    21    36    37   ar
    22    37    38   ar
    23     2     5    1
    24     5     6   ar
    25     6     7   ar
    26     7     8   ar
    27     8    12    1
    28    12    13    1
    29    13    14    1
    30    14    15    1
    31    15    18    1
    32    18    19   ar
    33    19    20    1
    34    19    21   ar
    35    21    22   ar
    36    22    23    1
    37    22    24   ar
    38    24    25   ar
    39    25    26    1
    40    15    16    1
    41    16    17    1
    42     8     9   ar
    43     9    10   ar
    44    10    11    1
    45    48    40   ar
    46    38    33   ar
    47    10     5   ar
    48    48    43   ar
    49    17    12    1
    50    25    18   ar
    51     3     4    1
    52    42    49    1
    53    31    32    1
    54    20    27    1
@<TRIPOS>MOLECULE
*****
 49 54 0 0 0
SMALL
GASTEIGER

@<TRIPOS>ATOM
      1 O         -67.0309  -40.8285  -22.0335 O.2     1  UNL1       -0.2701
      2 C         -65.7901  -41.0053  -21.9099 C.2     1  UNL1        0.2483
      3 N         -65.2289  -41.1801  -20.5962 N.am    1  UNL1       -0.2945
      4 H         -65.8738  -41.5258  -19.8498 H       1  UNL1        0.1501
      5 C         -64.9531  -41.0538  -23.1169 C.ar    1  UNL1        0.0808
      6 C         -63.8806  -41.9512  -23.1923 C.ar    1  UNL1        0.0080
      7 C         -63.1978  -42.1279  -24.3980 C.ar    1  UNL1        0.0148
      8 C         -63.5570  -41.3868  -25.5375 C.ar    1  UNL1        0.0502
      9 C         -64.5593  -40.4053  -25.4193 C.ar    1  UNL1        0.0443
     10 C         -65.2536  -40.2406  -24.2185 C.ar    1  UNL1        0.1457
     11 F         -66.2646  -39.3370  -24.1519 F       1  UNL1       -0.2040
     12 N         -62.9937  -41.7216  -26.8253 N.pl3   1  UNL1       -0.3040
     13 C         -63.7653  -41.5558  -28.0643 C.3     1  UNL1        0.1122
     14 C         -64.1958  -42.9364  -28.5693 C.3     1  UNL1        0.1123
     15 N         -63.0934  -43.9022  -28.4487 N.pl3   1  UNL1       -0.3011
     16 C         -61.7375  -43.4434  -28.1187 C.3     1  UNL1        0.1123
     17 C         -61.7724  -42.5473  -26.8699 C.3     1  UNL1        0.1122
     18 C         -63.3834  -45.3065  -28.5131 C.ar    1  UNL1        0.0928
     19 C         -63.7468  -45.8917  -29.7396 C.ar    1  UNL1        0.1485
     20 O         -63.8448  -45.1051  -30.8852 O.3     1  UNL1       -0.5042
     21 C         -63.9970  -47.2685  -29.8111 C.ar    1  UNL1        0.0493
     22 C         -63.8848  -48.0637  -28.6679 C.ar    1  UNL1        0.0616
     23 CL        -64.1875  -49.7884  -28.7675 Cl      1  UNL1       -0.0821
     24 C         -63.5325  -47.4844  -27.4456 C.ar    1  UNL1        0.0242
     25 C         -63.2828  -46.1101  -27.3622 C.ar    1  UNL1        0.0748
     26 CL        -62.8750  -45.4131  -25.8006 Cl      1  UNL1       -0.0808
     27 H         -64.1014  -45.5049  -31.7801 H       1  UNL1        0.2922
     28 C         -63.9333  -40.6378  -20.1556 C.3     1  UNL1        0.1535
     29 C         -64.1100  -39.3623  -19.3616 C.2     1  UNL1        0.2443
     30 O         -63.9201  -39.3660  -18.1159 O.2     1  UNL1       -0.2730
     31 N         -64.4532  -38.1414  -20.0383 N.am    1  UNL1       -0.2825
     32 H         -64.5043  -38.1644  -21.0820 H       1  UNL1        0.1549
     33 C         -64.4834  -36.8533  -19.3984 C.ar    1  UNL1        0.0535
     34 C         -63.3131  -36.3448  -18.8189 C.ar    1  UNL1        0.0353
     35 C         -63.3351  -35.0928  -18.1989 C.ar    1  UNL1        0.1002
     36 N         -64.4816  -34.3632  -18.1756 N.ar    1  UNL1       -0.2422
     37 C         -65.6261  -34.8191  -18.7490 C.ar    1  UNL1        0.1002
     38 C         -65.6481  -36.0683  -19.3741 C.ar    1  UNL1        0.0353
     39 C         -63.1028  -41.7147  -19.4204 C.3     1  UNL1        0.0569
     40 C         -61.9032  -42.1469  -20.2189 C.ar    1  UNL1       -0.0017
     41 C         -60.6777  -41.4914  -20.2890 C.ar    1  UNL1        0.0681
     42 N         -59.7979  -42.2117  -21.0212 N.ar    1  UNL1       -0.3523
     43 C         -60.4542  -43.3191  -21.4089 C.ar    1  UNL1        0.0563
     44 C         -59.9490  -44.3800  -22.1597 C.ar    1  UNL1        0.0170
     45 C         -60.8070  -45.4609  -22.4325 C.ar    1  UNL1        0.0015
     46 C         -62.1361  -45.4573  -21.9560 C.ar    1  UNL1        0.0001
     47 C         -62.6188  -44.3747  -21.1990 C.ar    1  UNL1        0.0012
     48 C         -61.7437  -43.3166  -20.9413 C.ar    1  UNL1        0.0131
     49 H         -58.8042  -41.9635  -21.2249 H       1  UNL1        0.1660
@<TRIPOS>BOND
     1     1     2    2
     2     2     3   am
     3     3    28    1
     4    28    39    1
     5    39    40    1
     6    40    41   ar
     7    41    42   ar
     8    42    43   ar
     9    43    44   ar
    10    44    45   ar
    11    45    46   ar
    12    46    47   ar
    13    47    48   ar
    14    28    29    1
    15    29    30    2
    16    29    31   am
    17    31    33    1
    18    33    34   ar
    19    34    35   ar
    20    35    36   ar
    21    36    37   ar
    22    37    38   ar
    23     2     5    1
    24     5     6   ar
    25     6     7   ar
    26     7     8   ar
    27     8    12    1
    28    12    13    1
    29    13    14    1
    30    14    15    1
    31    15    18    1
    32    18    19   ar
    33    19    20    1
    34    19    21   ar
    35    21    22   ar
    36    22    23    1
    37    22    24   ar
    38    24    25   ar
    39    25    26    1
    40    15    16    1
    41    16    17    1
    42     8     9   ar
    43     9    10   ar
    44    10    11    1
    45    48    40   ar
    46    38    33   ar
    47    10     5   ar
    48    48    43   ar
    49    17    12    1
    50    25    18   ar
    51     3     4    1
    52    42    49    1
    53    31    32    1
    54    20    27    1
@<TRIPOS>MOLECULE
*****
 49 54 0 0 0
SMALL
GASTEIGER

@<TRIPOS>ATOM
      1 O         -60.6735  -47.7382  -21.0695 O.2     1  UNL1       -0.2701
      2 C         -60.9137  -46.7500  -21.8126 C.2     1  UNL1        0.2483
      3 N         -61.1802  -45.4671  -21.2173 N.am    1  UNL1       -0.2945
      4 H         -60.8063  -45.3068  -20.2545 H       1  UNL1        0.1501
      5 C         -60.8893  -46.9317  -23.2707 C.ar    1  UNL1        0.0808
      6 C         -61.9231  -47.6283  -23.9090 C.ar    1  UNL1        0.0080
      7 C         -61.9984  -47.6480  -25.3037 C.ar    1  UNL1        0.0148
      8 C         -61.0235  -46.9982  -26.0808 C.ar    1  UNL1        0.0502
      9 C         -59.9268  -46.4005  -25.4312 C.ar    1  UNL1        0.0443
     10 C         -59.8605  -46.3659  -24.0364 C.ar    1  UNL1        0.1457
     11 F         -58.8292  -45.7203  -23.4341 F       1  UNL1       -0.2040
     12 N         -61.2187  -46.8424  -27.5040 N.pl3   1  UNL1       -0.3040
     13 C         -60.0805  -46.7926  -28.4314 C.3     1  UNL1        0.1122
     14 C         -59.8934  -45.3497  -28.9103 C.3     1  UNL1        0.1123
     15 N         -61.1912  -44.7309  -29.2190 N.pl3   1  UNL1       -0.3011
     16 C         -62.4099  -45.5493  -29.2716 C.3     1  UNL1        0.1123
     17 C         -62.5357  -46.3923  -27.9921 C.3     1  UNL1        0.1122
     18 C         -61.2775  -43.3020  -29.3245 C.ar    1  UNL1        0.0928
     19 C         -60.8519  -42.4931  -28.2552 C.ar    1  UNL1        0.1485
     20 O         -60.3668  -43.0792  -27.0882 O.3     1  UNL1       -0.5042
     21 C         -60.9035  -41.0976  -28.3697 C.ar    1  UNL1        0.0493
     22 C         -61.3747  -40.5055  -29.5441 C.ar    1  UNL1        0.0616
     23 CL        -61.4250  -38.7580  -29.6850 Cl      1  UNL1       -0.0821
     24 C         -61.8067  -41.3059  -30.6055 C.ar    1  UNL1        0.0242
     25 C         -61.7619  -42.7007  -30.5010 C.ar    1  UNL1        0.0748
     26 CL        -62.3452  -43.6732  -31.8444 Cl      1  UNL1       -0.0808
     27 H         -60.0515  -42.5171  -26.3064 H       1  UNL1        0.2922
     28 C         -62.1691  -44.4973  -21.7157 C.3     1  UNL1        0.1535
     29 C         -63.1482  -44.1012  -20.6326 C.2     1  UNL1        0.2443
     30 O         -63.7066  -44.9894  -19.9346 O.2     1  UNL1       -0.2730
     31 N         -63.4058  -42.7104  -20.3765 N.am    1  UNL1       -0.2825
     32 H         -62.8474  -42.0080  -20.9125 H       1  UNL1        0.1549
     33 C         -64.1897  -42.2327  -19.2688 C.ar    1  UNL1        0.0535
     34 C         -63.9696  -40.9390  -18.7768 C.ar    1  UNL1        0.0353
     35 C         -64.7301  -40.4679  -17.7035 C.ar    1  UNL1        0.1002
     36 N         -65.6923  -41.2539  -17.1523 N.ar    1  UNL1       -0.2422
     37 C         -65.9449  -42.5036  -17.6223 C.ar    1  UNL1        0.1002
     38 C         -65.2033  -43.0145  -18.6902 C.ar    1  UNL1        0.0353
     39 C         -61.4732  -43.2935  -22.3915 C.3     1  UNL1        0.0569
     40 C         -62.1291  -42.9181  -23.6924 C.ar    1  UNL1       -0.0017
     41 C         -62.0267  -43.6058  -24.8978 C.ar    1  UNL1        0.0681
     42 N         -62.8247  -43.0418  -25.8327 N.ar    1  UNL1       -0.3523
     43 C         -63.4351  -42.0082  -25.2274 C.ar    1  UNL1        0.0563
     44 C         -64.3773  -41.1425  -25.7817 C.ar    1  UNL1        0.0170
     45 C         -64.9129  -40.1368  -24.9568 C.ar    1  UNL1        0.0015
     46 C         -64.4990  -40.0185  -23.6121 C.ar    1  UNL1        0.0001
     47 C         -63.5483  -40.9070  -23.0783 C.ar    1  UNL1        0.0012
     48 C         -63.0356  -41.8973  -23.9198 C.ar    1  UNL1        0.0131
     49 H         -62.9529  -43.3604  -26.8189 H       1  UNL1        0.1660
@<TRIPOS>BOND
     1     1     2    2
     2     2     3   am
     3     3    28    1
     4    28    39    1
     5    39    40    1
     6    40    41   ar
     7    41    42   ar
     8    42    43   ar
     9    43    44   ar
    10    44    45   ar
    11    45    46   ar
    12    46    47   ar
    13    47    48   ar
    14    28    29    1
    15    29    30    2
    16    29    31   am
    17    31    33    1
    18    33    34   ar
    19    34    35   ar
    20    35    36   ar
    21    36    37   ar
    22    37    38   ar
    23     2     5    1
    24     5     6   ar
    25     6     7   ar
    26     7     8   ar
    27     8    12    1
    28    12    13    1
    29    13    14    1
    30    14    15    1
    31    15    18    1
    32    18    19   ar
    33    19    20    1
    34    19    21   ar
    35    21    22   ar
    36    22    23    1
    37    22    24   ar
    38    24    25   ar
    39    25    26    1
    40    15    16    1
    41    16    17    1
    42     8     9   ar
    43     9    10   ar
    44    10    11    1
    45    48    40   ar
    46    38    33   ar
    47    10     5   ar
    48    48    43   ar
    49    17    12    1
    50    25    18   ar
    51     3     4    1
    52    42    49    1
    53    31    32    1
    54    20    27    1
@<TRIPOS>MOLECULE
*****
 49 54 0 0 0
SMALL
GASTEIGER

@<TRIPOS>ATOM
      1 O         -65.4191  -40.0033  -30.1113 O.2     1  UNL1       -0.2701
      2 C         -64.6539  -41.0034  -30.1340 C.2     1  UNL1        0.2483
      3 N         -64.6254  -41.8446  -31.3015 N.am    1  UNL1       -0.2945
      4 H         -64.9324  -41.4122  -32.2022 H       1  UNL1        0.1501
      5 C         -63.7913  -41.2676  -28.9740 C.ar    1  UNL1        0.0808
      6 C         -64.3586  -41.4895  -27.7129 C.ar    1  UNL1        0.0080
      7 C         -63.5595  -41.9171  -26.6500 C.ar    1  UNL1        0.0148
      8 C         -62.1763  -42.0987  -26.8244 C.ar    1  UNL1        0.0502
      9 C         -61.5995  -41.7615  -28.0636 C.ar    1  UNL1        0.0443
     10 C         -62.4008  -41.3504  -29.1313 C.ar    1  UNL1        0.1457
     11 F         -61.8282  -41.1007  -30.3367 F       1  UNL1       -0.2040
     12 N         -61.3947  -42.7380  -25.7910 N.pl3   1  UNL1       -0.3040
     13 C         -61.8322  -43.9941  -25.1674 C.3     1  UNL1        0.1122
     14 C         -62.3428  -43.6952  -23.7545 C.3     1  UNL1        0.1123
     15 N         -61.4564  -42.7412  -23.0713 N.pl3   1  UNL1       -0.3011
     16 C         -60.1563  -42.3864  -23.6559 C.3     1  UNL1        0.1123
     17 C         -60.3352  -41.9598  -25.1220 C.3     1  UNL1        0.1122
     18 C         -61.9349  -42.0525  -21.9063 C.ar    1  UNL1        0.0928
     19 C         -61.3356  -42.2900  -20.6561 C.ar    1  UNL1        0.1485
     20 O         -60.2931  -43.2075  -20.5460 O.3     1  UNL1       -0.5042
     21 C         -61.7787  -41.5934  -19.5240 C.ar    1  UNL1        0.0493
     22 C         -62.8135  -40.6611  -19.6327 C.ar    1  UNL1        0.0616
     23 CL        -63.3548  -39.7838  -18.2137 Cl      1  UNL1       -0.0821
     24 C         -63.4174  -40.4288  -20.8717 C.ar    1  UNL1        0.0242
     25 C         -62.9844  -41.1206  -22.0083 C.ar    1  UNL1        0.0748
     26 CL        -63.7913  -40.8255  -23.5422 Cl      1  UNL1       -0.0808
     27 H         -59.8438  -43.3924  -19.6569 H       1  UNL1        0.2922
     28 C         -64.4940  -43.3105  -31.2794 C.3     1  UNL1        0.1535
     29 C         -63.1350  -43.7506  -31.7774 C.2     1  UNL1        0.2443
     30 O         -62.8890  -43.7526  -33.0133 O.2     1  UNL1       -0.2730
     31 N         -62.1159  -44.1248  -30.8354 N.am    1  UNL1       -0.2825
     32 H         -62.3322  -44.0141  -29.8188 H       1  UNL1        0.1549
     33 C         -60.7515  -44.3992  -31.1998 C.ar    1  UNL1        0.0535
     34 C         -60.2912  -44.0316  -32.4715 C.ar    1  UNL1        0.0353
     35 C         -58.9662  -44.2922  -32.8301 C.ar    1  UNL1        0.1002
     36 N         -58.1225  -44.8815  -31.9423 N.ar    1  UNL1       -0.2422
     37 C         -58.5328  -45.2283  -30.6942 C.ar    1  UNL1        0.1002
     38 C         -59.8511  -44.9902  -30.2979 C.ar    1  UNL1        0.0353
     39 C         -64.8572  -43.8787  -29.8882 C.3     1  UNL1        0.0569
     40 C         -64.7497  -45.3787  -29.8441 C.ar    1  UNL1       -0.0017
     41 C         -65.1682  -46.2662  -30.8308 C.ar    1  UNL1        0.0681
     42 N         -64.8280  -47.5331  -30.5020 N.ar    1  UNL1       -0.3523
     43 C         -64.1929  -47.4535  -29.3197 C.ar    1  UNL1        0.0563
     44 C         -63.6282  -48.5011  -28.5931 C.ar    1  UNL1        0.0170
     45 C         -62.9826  -48.1898  -27.3826 C.ar    1  UNL1        0.0015
     46 C         -62.9175  -46.8542  -26.9292 C.ar    1  UNL1        0.0001
     47 C         -63.4941  -45.8167  -27.6837 C.ar    1  UNL1        0.0012
     48 C         -64.1263  -46.1550  -28.8828 C.ar    1  UNL1        0.0131
     49 H         -65.0068  -48.3941  -31.0652 H       1  UNL1        0.1660
@<TRIPOS>BOND
     1     1     2    2
     2     2     3   am
     3     3    28    1
     4    28    39    1
     5    39    40    1
     6    40    41   ar
     7    41    42   ar
     8    42    43   ar
     9    43    44   ar
    10    44    45   ar
    11    45    46   ar
    12    46    47   ar
    13    47    48   ar
    14    28    29    1
    15    29    30    2
    16    29    31   am
    17    31    33    1
    18    33    34   ar
    19    34    35   ar
    20    35    36   ar
    21    36    37   ar
    22    37    38   ar
    23     2     5    1
    24     5     6   ar
    25     6     7   ar
    26     7     8   ar
    27     8    12    1
    28    12    13    1
    29    13    14    1
    30    14    15    1
    31    15    18    1
    32    18    19   ar
    33    19    20    1
    34    19    21   ar
    35    21    22   ar
    36    22    23    1
    37    22    24   ar
    38    24    25   ar
    39    25    26    1
    40    15    16    1
    41    16    17    1
    42     8     9   ar
    43     9    10   ar
    44    10    11    1
    45    48    40   ar
    46    38    33   ar
    47    10     5   ar
    48    48    43   ar
    49    17    12    1
    50    25    18   ar
    51     3     4    1
    52    42    49    1
    53    31    32    1
    54    20    27    1
@<TRIPOS>MOLECULE
*****
 49 54 0 0 0
SMALL
GASTEIGER

@<TRIPOS>ATOM
      1 O         -59.8904  -42.1187  -19.3248 O.2     1  UNL1       -0.2701
      2 C         -60.7717  -41.8079  -20.1692 C.2     1  UNL1        0.2483
      3 N         -61.4373  -40.5365  -20.0601 N.am    1  UNL1       -0.2945
      4 H         -60.9305  -39.7813  -19.5450 H       1  UNL1        0.1501
      5 C         -61.0767  -42.7452  -21.2592 C.ar    1  UNL1        0.0808
      6 C         -60.2549  -42.7963  -22.3921 C.ar    1  UNL1        0.0080
      7 C         -60.4336  -43.8038  -23.3430 C.ar    1  UNL1        0.0148
      8 C         -61.4569  -44.7559  -23.1911 C.ar    1  UNL1        0.0502
      9 C         -62.3488  -44.6254  -22.1096 C.ar    1  UNL1        0.0443
     10 C         -62.1596  -43.6285  -21.1497 C.ar    1  UNL1        0.1457
     11 F         -62.9909  -43.5691  -20.0780 F       1  UNL1       -0.2040
     12 N         -61.5047  -45.9109  -24.0579 N.pl3   1  UNL1       -0.3040
     13 C         -60.4321  -46.1885  -25.0225 C.3     1  UNL1        0.1122
     14 C         -60.9360  -45.8632  -26.4320 C.3     1  UNL1        0.1123
     15 N         -62.3113  -46.3491  -26.6187 N.pl3   1  UNL1       -0.3011
     16 C         -62.9281  -47.2329  -25.6206 C.3     1  UNL1        0.1123
     17 C         -62.7863  -46.6238  -24.2161 C.3     1  UNL1        0.1122
     18 C         -63.0926  -45.8365  -27.7083 C.ar    1  UNL1        0.0928
     19 C         -63.4984  -46.6960  -28.7452 C.ar    1  UNL1        0.1485
     20 O         -63.1249  -48.0380  -28.7244 O.3     1  UNL1       -0.5042
     21 C         -64.2898  -46.2048  -29.7919 C.ar    1  UNL1        0.0493
     22 C         -64.6796  -44.8633  -29.8087 C.ar    1  UNL1        0.0616
     23 CL        -65.6804  -44.2582  -31.1158 Cl      1  UNL1       -0.0821
     24 C         -64.2710  -44.0041  -28.7848 C.ar    1  UNL1        0.0242
     25 C         -63.4785  -44.4834  -27.7358 C.ar    1  UNL1        0.0748
     26 CL        -62.9569  -43.3644  -26.4841 Cl      1  UNL1       -0.0808
     27 H         -63.4082  -48.6765  -29.4582 H       1  UNL1        0.2922
     28 C         -62.8637  -40.3065  -20.3416 C.3     1  UNL1        0.1535
     29 C         -63.4125  -39.1650  -19.5144 C.2     1  UNL1        0.2443
     30 O         -63.4260  -39.2495  -18.2572 O.2     1  UNL1       -0.2730
     31 N         -63.8780  -37.9708  -20.1651 N.am    1  UNL1       -0.2825
     32 H         -63.7570  -37.9056  -21.2012 H       1  UNL1        0.1549
     33 C         -64.2632  -36.7756  -19.4632 C.ar    1  UNL1        0.0535
     34 C         -63.3160  -36.1009  -18.6811 C.ar    1  UNL1        0.0353
     35 C         -63.6830  -34.9375  -17.9997 C.ar    1  UNL1        0.1002
     36 N         -64.9476  -34.4519  -18.1112 N.ar    1  UNL1       -0.2422
     37 C         -65.8815  -35.0707  -18.8802 C.ar    1  UNL1        0.1002
     38 C         -65.5570  -36.2394  -19.5733 C.ar    1  UNL1        0.0353
     39 C         -63.1103  -40.1457  -21.8593 C.3     1  UNL1        0.0569
     40 C         -64.5158  -40.5174  -22.2465 C.ar    1  UNL1       -0.0017
     41 C         -65.5550  -40.8363  -21.3777 C.ar    1  UNL1        0.0681
     42 N         -66.7049  -41.0227  -22.0648 N.ar    1  UNL1       -0.3523
     43 C         -66.4031  -40.8182  -23.3589 C.ar    1  UNL1        0.0563
     44 C         -67.2743  -40.8679  -24.4465 C.ar    1  UNL1        0.0170
     45 C         -66.7504  -40.5934  -25.7228 C.ar    1  UNL1        0.0015
     46 C         -65.3829  -40.2803  -25.8827 C.ar    1  UNL1        0.0001
     47 C         -64.5271  -40.2351  -24.7676 C.ar    1  UNL1        0.0012
     48 C         -65.0754  -40.5095  -23.5123 C.ar    1  UNL1        0.0131
     49 H         -67.6403  -41.2581  -21.6649 H       1  UNL1        0.1660
@<TRIPOS>BOND
     1     1     2    2
     2     2     3   am
     3     3    28    1
     4    28    39    1
     5    39    40    1
     6    40    41   ar
     7    41    42   ar
     8    42    43   ar
     9    43    44   ar
    10    44    45   ar
    11    45    46   ar
    12    46    47   ar
    13    47    48   ar
    14    28    29    1
    15    29    30    2
    16    29    31   am
    17    31    33    1
    18    33    34   ar
    19    34    35   ar
    20    35    36   ar
    21    36    37   ar
    22    37    38   ar
    23     2     5    1
    24     5     6   ar
    25     6     7   ar
    26     7     8   ar
    27     8    12    1
    28    12    13    1
    29    13    14    1
    30    14    15    1
    31    15    18    1
    32    18    19   ar
    33    19    20    1
    34    19    21   ar
    35    21    22   ar
    36    22    23    1
    37    22    24   ar
    38    24    25   ar
    39    25    26    1
    40    15    16    1
    41    16    17    1
    42     8     9   ar
    43     9    10   ar
    44    10    11    1
    45    48    40   ar
    46    38    33   ar
    47    10     5   ar
    48    48    43   ar
    49    17    12    1
    50    25    18   ar
    51     3     4    1
    52    42    49    1
    53    31    32    1
    54    20    27    1
