@<TRIPOS>MOLECULE
*****
 55 62 0 0 0
SMALL
GASTEIGER

@<TRIPOS>ATOM
      1 C          58.7263   80.4245   12.7245 C.ar    1  UNL1        0.0642
      2 N          58.8015   81.4694   13.5872 N.ar    1  UNL1       -0.2493
      3 C          59.3356   82.6660   13.2566 C.ar    1  UNL1        0.0866
      4 C          59.4371   83.6563   14.2390 C.ar    1  UNL1        0.0193
      5 C          60.0834   84.8596   13.9628 C.ar    1  UNL1        0.0016
      6 C          60.7002   85.0597   12.7200 C.ar    1  UNL1        0.0018
      7 C          60.6153   84.0474   11.7481 C.ar    1  UNL1        0.0075
      8 C          59.8303   82.8892   11.9530 C.ar    1  UNL1        0.0810
      9 C          59.5702   81.9047   10.9417 C.ar    1  UNL1        0.2293
     10 C          59.1056   80.6227   11.3684 C.ar    1  UNL1        0.0773
     11 C          59.0084   79.5936   10.4163 C.2     1  UNL1        0.0169
     12 C          59.3092   79.8343    9.0876 C.2     1  UNL1        0.1157
     13 C          59.6157   81.1222    8.6712 C.2     1  UNL1        0.4229
     14 O          59.7776   81.3301    7.4361 O.2     1  UNL1       -0.2135
     15 N          59.6989   82.1526    9.5768 N.am    1  UNL1       -0.0906
     16 C          61.4050   86.3340   12.4189 C.ar    1  UNL1        0.0192
     17 C          60.9352   87.2027   11.4168 C.ar    1  UNL1        0.0988
     18 N          61.5459   88.3966   11.1955 N.ar    1  UNL1       -0.2438
     19 C          62.6238   88.7963   11.9191 C.ar    1  UNL1        0.0813
     20 C          63.2091   90.0444   11.6773 C.ar    1  UNL1        0.0191
     21 C          64.3100   90.4587   12.4333 C.ar    1  UNL1        0.0015
     22 C          64.8307   89.6275   13.4305 C.ar    1  UNL1        0.0001
     23 C          64.2520   88.3787   13.6792 C.ar    1  UNL1        0.0015
     24 C          63.1465   87.9559   12.9254 C.ar    1  UNL1        0.0177
     25 C          62.5296   86.7222   13.1676 C.ar    1  UNL1        0.0030
     26 C          59.7102   83.4956    9.0396 C.ar    1  UNL1        0.2270
     27 C          58.5777   84.0123    8.3962 C.ar    1  UNL1        0.0691
     28 C          58.6467   85.2343    7.7301 C.ar    1  UNL1        0.0060
     29 C          59.8386   85.9773    7.7146 C.ar    1  UNL1        0.0043
     30 C          60.9556   85.5238    8.4693 C.ar    1  UNL1        0.0773
     31 C          60.8785   84.2690    9.1025 C.ar    1  UNL1        0.0729
     32 C          59.8964   87.1702    6.8399 C.ar    1  UNL1       -0.0000
     33 C          60.8489   87.2463    5.8146 C.ar    1  UNL1        0.0001
     34 C          60.8748   88.3436    4.9520 C.ar    1  UNL1        0.0045
     35 C          59.9315   89.3767    5.0830 C.ar    1  UNL1        0.0534
     36 C          58.9779   89.2998    6.1147 C.ar    1  UNL1        0.0045
     37 C          58.9569   88.2018    6.9806 C.ar    1  UNL1        0.0001
     38 C          59.9639   90.5260    4.1479 C.2     1  UNL1        0.2458
     39 O          59.2136   91.5171    4.3640 O.2     1  UNL1       -0.2701
     40 N          60.8515   90.5402    3.0168 N.am    1  UNL1       -0.3024
     41 H          61.5568   89.7769    2.9119 H       1  UNL1        0.1497
     42 C          60.8401   91.6309    2.0358 C.3     1  UNL1        0.0746
     43 C          59.7813   92.6759    2.4086 C.3     1  UNL1        0.0369
     44 C          59.7922   93.8477    1.4070 C.3     1  UNL1        0.0738
     45 N          59.9955   93.4367   -0.0074 N.3     1  UNL1       -0.2714
     46 C          61.3105   93.8476   -0.5283 C.3     1  UNL1        0.0896
     47 C          59.7257   92.0059   -0.2576 C.3     1  UNL1        0.0738
     48 C          60.5912   91.0744    0.6149 C.3     1  UNL1        0.0369
     49 C          62.2537   86.3035    8.5626 C.3     1  UNL1        0.4188
     50 F          63.1096   85.8987    7.5555 F       1  UNL1       -0.1659
     51 F          62.8714   86.0791    9.7813 F       1  UNL1       -0.1659
     52 F          62.0296   87.6645    8.4559 F       1  UNL1       -0.1659
     53 C          58.5106   77.9233   12.3473 C.3     1  UNL1        0.0063
     54 C          58.1415   79.1161   13.2438 C.3     1  UNL1        0.0405
     55 C          58.6121   78.8599   14.6801 C.3     1  UNL1        0.0063
@<TRIPOS>BOND
     1    53    54    1
     2    54    55    1
     3    54     1    1
     4     1     2   ar
     5     2     3   ar
     6     3     4   ar
     7     4     5   ar
     8     5     6   ar
     9     6    16    1
    10    16    17   ar
    11    17    18   ar
    12    18    19   ar
    13    19    20   ar
    14    20    21   ar
    15    21    22   ar
    16    22    23   ar
    17    23    24   ar
    18    24    25   ar
    19     6     7   ar
    20     7     8   ar
    21     8     9   ar
    22     9    10   ar
    23    10    11    1
    24    11    12    2
    25    12    13    1
    26    13    14    2
    27    13    15    1
    28    15    26    1
    29    26    27   ar
    30    27    28   ar
    31    28    29   ar
    32    29    32    1
    33    32    33   ar
    34    33    34   ar
    35    34    35   ar
    36    35    38    1
    37    38    39    2
    38    38    40   am
    39    40    42    1
    40    42    43    1
    41    43    44    1
    42    44    45    1
    43    45    46    1
    44    45    47    1
    45    47    48    1
    46    35    36   ar
    47    36    37   ar
    48    29    30   ar
    49    30    49    1
    50    49    50    1
    51    49    51    1
    52    49    52    1
    53    30    31   ar
    54    10     1   ar
    55    31    26   ar
    56     8     3   ar
    57    15     9    1
    58    37    32   ar
    59    25    16   ar
    60    48    42    1
    61    24    19   ar
    62    40    41    1
@<TRIPOS>MOLECULE
*****
 55 62 0 0 0
SMALL
GASTEIGER

@<TRIPOS>ATOM
      1 C          58.9712   80.6782    7.4052 C.ar    1  UNL1        0.0642
      2 N          59.7159   81.6344    6.7945 N.ar    1  UNL1       -0.2493
      3 C          60.0887   82.7830    7.4013 C.ar    1  UNL1        0.0866
      4 C          60.7911   83.7410    6.6631 C.ar    1  UNL1        0.0193
      5 C          61.0925   84.9809    7.2234 C.ar    1  UNL1        0.0016
      6 C          60.6317   85.3054    8.5070 C.ar    1  UNL1        0.0018
      7 C          59.9036   84.3450    9.2308 C.ar    1  UNL1        0.0075
      8 C          59.7259   83.0295    8.7434 C.ar    1  UNL1        0.0810
      9 C          59.1402   81.9624    9.5037 C.ar    1  UNL1        0.2293
     10 C          58.6702   80.8187    8.7879 C.ar    1  UNL1        0.0773
     11 C          57.9421   79.8418    9.4883 C.2     1  UNL1        0.0169
     12 C          57.7302   79.9644   10.8499 C.2     1  UNL1        0.1157
     13 C          58.3212   81.0070   11.5497 C.2     1  UNL1        0.4229
     14 O          58.2000   81.0297   12.8065 O.2     1  UNL1       -0.2135
     15 N          59.0552   81.9664   10.8944 N.am    1  UNL1       -0.0906
     16 C          60.9349   86.6305    9.1097 C.ar    1  UNL1        0.0192
     17 C          59.9232   87.4023    9.7101 C.ar    1  UNL1        0.0988
     18 N          60.2220   88.5802   10.3185 N.ar    1  UNL1       -0.2438
     19 C          61.4920   89.0596   10.3695 C.ar    1  UNL1        0.0813
     20 C          61.7624   90.2650   11.0275 C.ar    1  UNL1        0.0191
     21 C          63.0729   90.7487   11.0901 C.ar    1  UNL1        0.0015
     22 C          64.1159   90.0320   10.4945 C.ar    1  UNL1        0.0001
     23 C          63.8549   88.8264    9.8352 C.ar    1  UNL1        0.0015
     24 C          62.5426   88.3338    9.7685 C.ar    1  UNL1        0.0177
     25 C          62.2533   87.1175    9.1375 C.ar    1  UNL1        0.0030
     26 C          59.8856   82.8247   11.7104 C.ar    1  UNL1        0.2270
     27 C          59.3444   83.9636   12.3216 C.ar    1  UNL1        0.0691
     28 C          60.1782   84.8790   12.9607 C.ar    1  UNL1        0.0060
     29 C          61.5646   84.6637   13.0257 C.ar    1  UNL1        0.0043
     30 C          62.1088   83.4507   12.5200 C.ar    1  UNL1        0.0773
     31 C          61.2561   82.5579   11.8440 C.ar    1  UNL1        0.0729
     32 C          62.4087   85.7588   13.5547 C.ar    1  UNL1       -0.0000
     33 C          62.8402   86.7880   12.7070 C.ar    1  UNL1        0.0001
     34 C          63.5912   87.8518   13.2099 C.ar    1  UNL1        0.0045
     35 C          63.9054   87.9198   14.5778 C.ar    1  UNL1        0.0534
     36 C          63.4736   86.8842   15.4268 C.ar    1  UNL1        0.0045
     37 C          62.7255   85.8169   14.9196 C.ar    1  UNL1        0.0001
     38 C          64.6897   89.0651   15.0969 C.2     1  UNL1        0.2458
     39 O          64.2672   89.6941   16.1057 O.2     1  UNL1       -0.2701
     40 N          65.9323   89.4536   14.4866 N.am    1  UNL1       -0.3024
     41 H          66.3395   88.8560   13.7328 H       1  UNL1        0.1497
     42 C          66.6809   90.6330   14.9348 C.3     1  UNL1        0.0746
     43 C          66.5397   91.7746   13.9205 C.3     1  UNL1        0.0369
     44 C          67.2876   93.0327   14.4047 C.3     1  UNL1        0.0738
     45 N          68.5917   92.7501   15.0606 N.3     1  UNL1       -0.2714
     46 C          68.5623   93.0192   16.5084 C.3     1  UNL1        0.0896
     47 C          69.1325   91.4085   14.7598 C.3     1  UNL1        0.0738
     48 C          68.1678   90.2734   15.1590 C.3     1  UNL1        0.0369
     49 C          63.5842   83.1106   12.6161 C.3     1  UNL1        0.4188
     50 F          64.1854   83.3094   11.3875 F       1  UNL1       -0.1659
     51 F          63.7571   81.7862   12.9811 F       1  UNL1       -0.1659
     52 F          64.2169   83.8891   13.5687 F       1  UNL1       -0.1659
     53 C          57.2308   79.6360    5.8790 C.3     1  UNL1        0.0063
     54 C          58.5823   79.4519    6.5878 C.3     1  UNL1        0.0405
     55 C          59.6751   79.1320    5.5615 C.3     1  UNL1        0.0063
@<TRIPOS>BOND
     1    53    54    1
     2    54    55    1
     3    54     1    1
     4     1     2   ar
     5     2     3   ar
     6     3     4   ar
     7     4     5   ar
     8     5     6   ar
     9     6    16    1
    10    16    17   ar
    11    17    18   ar
    12    18    19   ar
    13    19    20   ar
    14    20    21   ar
    15    21    22   ar
    16    22    23   ar
    17    23    24   ar
    18    24    25   ar
    19     6     7   ar
    20     7     8   ar
    21     8     9   ar
    22     9    10   ar
    23    10    11    1
    24    11    12    2
    25    12    13    1
    26    13    14    2
    27    13    15    1
    28    15    26    1
    29    26    27   ar
    30    27    28   ar
    31    28    29   ar
    32    29    32    1
    33    32    33   ar
    34    33    34   ar
    35    34    35   ar
    36    35    38    1
    37    38    39    2
    38    38    40   am
    39    40    42    1
    40    42    43    1
    41    43    44    1
    42    44    45    1
    43    45    46    1
    44    45    47    1
    45    47    48    1
    46    35    36   ar
    47    36    37   ar
    48    29    30   ar
    49    30    49    1
    50    49    50    1
    51    49    51    1
    52    49    52    1
    53    30    31   ar
    54    10     1   ar
    55    31    26   ar
    56     8     3   ar
    57    15     9    1
    58    37    32   ar
    59    25    16   ar
    60    48    42    1
    61    24    19   ar
    62    40    41    1
