@<TRIPOS>MOLECULE
*****
 59 63 0 0 0
SMALL
GASTEIGER

@<TRIPOS>ATOM
      1 O         -20.1154  -10.2516  -11.7380 O.3     1  UNL1       -0.4513
      2 C         -21.4464  -10.0111  -12.0960 C.ar    1  UNL1        0.1584
      3 C         -22.4565  -10.6678  -11.3954 C.ar    1  UNL1        0.0677
      4 C         -23.7726  -10.6219  -11.8495 C.ar    1  UNL1        0.1402
      5 F         -24.7093  -11.3690  -11.2109 F       1  UNL1       -0.2044
      6 C         -24.1080   -9.8688  -12.9903 C.ar    1  UNL1        0.0228
      7 C         -23.1045   -9.1024  -13.6352 C.ar    1  UNL1        0.0423
      8 I         -23.5569   -7.9004  -15.3461 I       1  UNL1       -0.0418
      9 C         -21.7739   -9.1686  -13.1742 C.ar    1  UNL1        0.0973
     10 CL        -20.5003   -8.2310  -13.9565 Cl      1  UNL1       -0.0786
     11 C         -25.4893  -10.0195  -13.5852 C.3     1  UNL1        0.1386
     12 C         -25.5760  -11.2935  -14.3742 C.2     1  UNL1        0.3234
     13 O         -25.9039  -11.2536  -15.5912 O.2     1  UNL1       -0.2497
     14 O         -25.2529  -12.5119  -13.7609 O.3     1  UNL1       -0.4215
     15 C         -24.3102  -13.4466  -14.2828 C.3     1  UNL1        0.3207
     16 O         -23.0179  -13.0360  -13.8554 O.3     1  UNL1       -0.3070
     17 C         -22.0078  -13.7498  -14.5424 C.3     1  UNL1        0.2456
     18 C         -21.9156  -13.2651  -16.0106 C.3     1  UNL1        0.1781
     19 O         -21.4742  -14.3297  -16.8149 O.3     1  UNL1       -0.3790
     20 C         -23.2859  -12.7484  -16.5138 C.3     1  UNL1        0.1733
     21 O         -23.3933  -11.3755  -16.2299 O.3     1  UNL1       -0.3793
     22 C         -24.4417  -13.5092  -15.8380 C.3     1  UNL1        0.2106
     23 O         -24.4266  -14.8458  -16.2710 O.3     1  UNL1       -0.3766
     24 H         -21.1321  -13.9323  -17.6583 H       1  UNL1        0.2106
     25 H         -24.1311  -11.0206  -16.7917 H       1  UNL1        0.2105
     26 H         -25.3135  -15.2302  -16.0441 H       1  UNL1        0.2107
     27 C         -20.6938  -13.5483  -13.8451 C.2     1  UNL1        0.3439
     28 O         -19.6172  -13.8082  -14.4463 O.2     1  UNL1       -0.2475
     29 O         -20.6572  -13.0265  -12.5555 O.3     1  UNL1       -0.4785
     30 H         -19.7740  -12.8721  -12.0839 H       1  UNL1        0.2951
     31 C         -18.5180   -9.7776   -7.8487 C.ar    1  UNL1        0.0548
     32 C         -18.2269  -10.9085   -8.6274 C.ar    1  UNL1        0.0077
     33 C         -18.7582  -11.0377   -9.9142 C.ar    1  UNL1        0.0390
     34 C         -19.5986  -10.0519  -10.4445 C.ar    1  UNL1        0.1598
     35 C         -19.8832   -8.9024   -9.6667 C.ar    1  UNL1        0.0993
     36 C         -19.3664   -8.7919   -8.3724 C.ar    1  UNL1        0.0235
     37 N         -18.1960   -8.4298   -5.7285 N.am    1  UNL1       -0.3040
     38 C         -17.9342   -9.6196   -6.4979 C.2     1  UNL1        0.2458
     39 O         -17.1911  -10.5263   -6.0353 O.2     1  UNL1       -0.2701
     40 H         -18.5372   -7.5931   -6.2531 H       1  UNL1        0.1496
     41 C         -18.8196   -9.4739   -3.5754 C.3     1  UNL1        0.0196
     42 C         -18.0618   -8.3224   -4.2639 C.3     1  UNL1        0.0572
     43 C         -16.5749   -8.3435   -3.8627 C.3     1  UNL1        0.0196
     44 C         -18.6778   -6.9850   -3.8026 C.3     1  UNL1        0.0196
     45 N         -20.6540   -7.8173  -10.1834 N.pl3   1  UNL1       -0.2120
     46 H         -20.6082   -7.6202  -11.2073 H       1  UNL1        0.1738
     47 S         -22.0251   -7.2285   -9.3077 S.O2    1  UNL1        0.0745
     48 O         -21.6159   -6.0123   -8.5247 O.2     1  UNL1       -0.1499
     49 O         -22.4978   -8.2682   -8.3312 O.2     1  UNL1       -0.1499
     50 C         -23.3060   -6.7986  -10.4494 C.ar    1  UNL1        0.1356
     51 C         -24.5127   -7.5073  -10.3963 C.ar    1  UNL1        0.0207
     52 C         -25.5852   -7.1552  -11.2172 C.ar    1  UNL1       -0.0028
     53 C         -25.4735   -6.0768  -12.1172 C.ar    1  UNL1       -0.0216
     54 C         -24.2590   -5.3778  -12.1787 C.ar    1  UNL1        0.0085
     55 C         -23.1802   -5.7254  -11.3570 C.ar    1  UNL1        0.0762
     56 CL        -21.7103   -4.7655  -11.4918 Cl      1  UNL1       -0.0809
     57 C         -26.6031   -5.6092  -13.0194 C.3     1  UNL1        0.0224
     58 C         -27.3638   -6.6916  -13.7731 C.3     1  UNL1        0.0047
     59 C         -26.4242   -5.7563  -14.5243 C.3     1  UNL1        0.0047
@<TRIPOS>BOND
     1    41    42    1
     2    42    43    1
     3    42    44    1
     4    42    37    1
     5    37    38   am
     6    38    39    2
     7    38    31    1
     8    31    32   ar
     9    32    33   ar
    10    33    34   ar
    11    34     1    1
    12     1     2    1
    13     2     3   ar
    14     3     4   ar
    15     4     5    1
    16     4     6   ar
    17     6    11    1
    18    11    12    1
    19    12    13    2
    20    12    14    1
    21    14    15    1
    22    15    16    1
    23    16    17    1
    24    17    27    1
    25    27    28    2
    26    27    29    1
    27    17    18    1
    28    18    19    1
    29    18    20    1
    30    20    21    1
    31    20    22    1
    32    22    23    1
    33     6     7   ar
    34     7     8    1
    35     7     9   ar
    36     9    10    1
    37    34    35   ar
    38    35    45    1
    39    45    47    1
    40    47    48    2
    41    47    49    2
    42    47    50    1
    43    50    51   ar
    44    51    52   ar
    45    52    53   ar
    46    53    57    1
    47    57    58    1
    48    58    59    1
    49    53    54   ar
    50    54    55   ar
    51    55    56    1
    52    35    36   ar
    53    36    31   ar
    54     9     2   ar
    55    55    50   ar
    56    22    15    1
    57    59    57    1
    58    37    40    1
    59    29    30    1
    60    19    24    1
    61    21    25    1
    62    23    26    1
    63    45    46    1
@<TRIPOS>MOLECULE
*****
 59 63 0 0 0
SMALL
GASTEIGER

@<TRIPOS>ATOM
      1 O         -23.0475   -9.7360  -12.2520 O.3     1  UNL1       -0.4513
      2 C         -22.2261   -9.4479  -11.1567 C.ar    1  UNL1        0.1584
      3 C         -22.5074   -8.3198  -10.3881 C.ar    1  UNL1        0.0677
      4 C         -21.6021   -7.8805   -9.4248 C.ar    1  UNL1        0.1402
      5 F         -21.8528   -6.7133   -8.7784 F       1  UNL1       -0.2044
      6 C         -20.4175   -8.5996   -9.1784 C.ar    1  UNL1        0.0228
      7 C         -20.1854   -9.8134   -9.8735 C.ar    1  UNL1        0.0423
      8 I         -18.4274  -10.9777   -9.5129 I       1  UNL1       -0.0418
      9 C         -21.1025  -10.2395  -10.8558 C.ar    1  UNL1        0.0973
     10 CL        -20.8416  -11.7427  -11.7420 Cl      1  UNL1       -0.0786
     11 C         -19.3573   -7.9809   -8.2964 C.3     1  UNL1        0.1386
     12 C         -19.6321   -8.3011   -6.8559 C.2     1  UNL1        0.3234
     13 O         -19.7512   -9.5035   -6.4950 O.2     1  UNL1       -0.2497
     14 O         -19.7144   -7.2622   -5.9184 O.3     1  UNL1       -0.4215
     15 C         -18.7241   -6.9978   -4.9263 C.3     1  UNL1        0.3207
     16 O         -17.5812   -7.7823   -5.2418 O.3     1  UNL1       -0.3070
     17 C         -16.6569   -7.7824   -4.1705 C.3     1  UNL1        0.2456
     18 C         -17.1952   -8.6427   -3.0004 C.3     1  UNL1        0.1781
     19 O         -16.6946   -8.1312   -1.7910 O.3     1  UNL1       -0.3790
     20 C         -18.7436   -8.6464   -2.9781 C.3     1  UNL1        0.1733
     21 O         -19.2134   -9.7084   -3.7710 O.3     1  UNL1       -0.3793
     22 C         -19.3039   -7.3146   -3.5110 C.3     1  UNL1        0.2106
     23 O         -18.9748   -6.2859   -2.6123 O.3     1  UNL1       -0.3766
     24 H         -16.7870   -8.8504   -1.1125 H       1  UNL1        0.2106
     25 H         -20.1634   -9.8563   -3.5231 H       1  UNL1        0.2105
     26 H         -19.5628   -5.5162   -2.8307 H       1  UNL1        0.2107
     27 C         -15.3403   -8.3215   -4.6491 C.2     1  UNL1        0.3439
     28 O         -15.1224   -9.5624   -4.6223 O.2     1  UNL1       -0.2475
     29 O         -14.3783   -7.4616   -5.1707 O.3     1  UNL1       -0.4785
     30 H         -13.4936   -7.8191   -5.5109 H       1  UNL1        0.2951
     31 C         -25.7310   -6.9881  -14.0272 C.ar    1  UNL1        0.0548
     32 C         -26.1525   -7.8866  -13.0348 C.ar    1  UNL1        0.0077
     33 C         -25.2447   -8.7781  -12.4553 C.ar    1  UNL1        0.0390
     34 C         -23.9053   -8.8016  -12.8613 C.ar    1  UNL1        0.1598
     35 C         -23.4732   -7.8864  -13.8529 C.ar    1  UNL1        0.0993
     36 C         -24.3924   -7.0141  -14.4433 C.ar    1  UNL1        0.0235
     37 N         -26.1969   -4.7900  -15.1963 N.am    1  UNL1       -0.3040
     38 C         -26.6794   -6.0206  -14.6228 C.2     1  UNL1        0.2458
     39 O         -27.9138   -6.2744  -14.6065 O.2     1  UNL1       -0.2701
     40 H         -25.2403   -4.4795  -14.9128 H       1  UNL1        0.1496
     41 C         -26.6553   -4.4797  -17.6063 C.3     1  UNL1        0.0196
     42 C         -26.9294   -3.9694  -16.1785 C.3     1  UNL1        0.0572
     43 C         -28.4397   -4.0016  -15.8781 C.3     1  UNL1        0.0196
     44 C         -26.4376   -2.5104  -16.0763 C.3     1  UNL1        0.0196
     45 N         -22.1031   -7.7929  -14.2433 N.pl3   1  UNL1       -0.2120
     46 H         -21.3807   -7.6933  -13.4966 H       1  UNL1        0.1738
     47 S         -21.5943   -8.3900  -15.7854 S.O2    1  UNL1        0.0745
     48 O         -20.0946   -8.3231  -15.8618 O.2     1  UNL1       -0.1499
     49 O         -22.1510   -7.5258  -16.8815 O.2     1  UNL1       -0.1499
     50 C         -22.1257  -10.0676  -15.9657 C.ar    1  UNL1        0.1356
     51 C         -21.7009  -11.0076  -15.0186 C.ar    1  UNL1        0.0207
     52 C         -22.1565  -12.3260  -15.0659 C.ar    1  UNL1       -0.0028
     53 C         -23.0554  -12.7369  -16.0702 C.ar    1  UNL1       -0.0216
     54 C         -23.4681  -11.7970  -17.0261 C.ar    1  UNL1        0.0085
     55 C         -23.0156  -10.4730  -16.9832 C.ar    1  UNL1        0.0762
     56 CL        -23.6172   -9.3656  -18.2127 Cl      1  UNL1       -0.0809
     57 C         -23.6239  -14.1424  -16.1713 C.3     1  UNL1        0.0224
     58 C         -24.5059  -14.6036  -15.0192 C.3     1  UNL1        0.0047
     59 C         -23.1119  -15.1930  -15.1955 C.3     1  UNL1        0.0047
@<TRIPOS>BOND
     1    41    42    1
     2    42    43    1
     3    42    44    1
     4    42    37    1
     5    37    38   am
     6    38    39    2
     7    38    31    1
     8    31    32   ar
     9    32    33   ar
    10    33    34   ar
    11    34     1    1
    12     1     2    1
    13     2     3   ar
    14     3     4   ar
    15     4     5    1
    16     4     6   ar
    17     6    11    1
    18    11    12    1
    19    12    13    2
    20    12    14    1
    21    14    15    1
    22    15    16    1
    23    16    17    1
    24    17    27    1
    25    27    28    2
    26    27    29    1
    27    17    18    1
    28    18    19    1
    29    18    20    1
    30    20    21    1
    31    20    22    1
    32    22    23    1
    33     6     7   ar
    34     7     8    1
    35     7     9   ar
    36     9    10    1
    37    34    35   ar
    38    35    45    1
    39    45    47    1
    40    47    48    2
    41    47    49    2
    42    47    50    1
    43    50    51   ar
    44    51    52   ar
    45    52    53   ar
    46    53    57    1
    47    57    58    1
    48    58    59    1
    49    53    54   ar
    50    54    55   ar
    51    55    56    1
    52    35    36   ar
    53    36    31   ar
    54     9     2   ar
    55    55    50   ar
    56    22    15    1
    57    59    57    1
    58    37    40    1
    59    29    30    1
    60    19    24    1
    61    21    25    1
    62    23    26    1
    63    45    46    1
@<TRIPOS>MOLECULE
*****
 59 63 0 0 0
SMALL
GASTEIGER

@<TRIPOS>ATOM
      1 O         -21.2058   -6.7859  -12.1266 O.3     1  UNL1       -0.4513
      2 C         -22.5255   -6.8544  -12.5861 C.ar    1  UNL1        0.1584
      3 C         -23.4737   -5.9997  -12.0266 C.ar    1  UNL1        0.0677
      4 C         -24.8283   -6.1755  -12.3000 C.ar    1  UNL1        0.1402
      5 F         -25.7314   -5.4011  -11.6460 F       1  UNL1       -0.2044
      6 C         -25.2525   -7.1838  -13.1857 C.ar    1  UNL1        0.0228
      7 C         -24.2828   -7.9769  -13.8497 C.ar    1  UNL1        0.0423
      8 I         -24.8585   -9.4955  -15.2421 I       1  UNL1       -0.0418
      9 C         -22.9160   -7.7984  -13.5536 C.ar    1  UNL1        0.0973
     10 CL        -21.6839   -8.7714  -14.3586 Cl      1  UNL1       -0.0786
     11 C         -26.7283   -7.4945  -13.2863 C.3     1  UNL1        0.1386
     12 C         -27.4012   -6.5150  -14.2032 C.2     1  UNL1        0.3234
     13 O         -28.6587   -6.5095  -14.2972 O.2     1  UNL1       -0.2497
     14 O         -26.6274   -5.5890  -14.9165 O.3     1  UNL1       -0.4215
     15 C         -27.1046   -4.3211  -15.3631 C.3     1  UNL1        0.3207
     16 O         -28.4306   -4.5064  -15.8413 O.3     1  UNL1       -0.3070
     17 C         -28.8798   -3.3620  -16.5418 C.3     1  UNL1        0.2456
     18 C         -28.1662   -3.2607  -17.9127 C.3     1  UNL1        0.1781
     19 O         -28.0659   -1.9065  -18.2751 O.3     1  UNL1       -0.3790
     20 C         -26.7587   -3.9039  -17.8572 C.3     1  UNL1        0.1733
     21 O         -26.8618   -5.2672  -18.1857 O.3     1  UNL1       -0.3793
     22 C         -26.1414   -3.7543  -16.4543 C.3     1  UNL1        0.2106
     23 O         -25.8805   -2.3954  -16.2102 O.3     1  UNL1       -0.3766
     24 H         -27.9011   -1.8806  -19.2541 H       1  UNL1        0.2106
     25 H         -25.9467   -5.5808  -18.4101 H       1  UNL1        0.2105
     26 H         -25.2524   -2.3581  -15.4421 H       1  UNL1        0.2107
     27 C         -30.3659   -3.4479  -16.7346 C.2     1  UNL1        0.3439
     28 O         -31.0744   -4.0612  -15.8920 O.2     1  UNL1       -0.2475
     29 O         -30.9712   -2.8088  -17.8126 O.3     1  UNL1       -0.4785
     30 H         -31.9753   -2.8480  -17.9410 H       1  UNL1        0.2951
     31 C         -19.9917   -7.8279   -8.2096 C.ar    1  UNL1        0.0548
     32 C         -20.5005   -6.5535   -8.5041 C.ar    1  UNL1        0.0077
     33 C         -20.9053   -6.2360   -9.8042 C.ar    1  UNL1        0.0390
     34 C         -20.7990   -7.1749  -10.8369 C.ar    1  UNL1        0.1598
     35 C         -20.2989   -8.4669  -10.5403 C.ar    1  UNL1        0.0993
     36 C         -19.8751   -8.7686   -9.2427 C.ar    1  UNL1        0.0235
     37 N         -18.2132   -8.0663   -6.4220 N.am    1  UNL1       -0.3040
     38 C         -19.5905   -8.1810   -6.8295 C.2     1  UNL1        0.2458
     39 O         -20.4610   -8.6006   -6.0205 O.2     1  UNL1       -0.2701
     40 H         -17.4972   -8.0260   -7.1818 H       1  UNL1        0.1496
     41 C         -18.7520   -7.1313   -4.1970 C.3     1  UNL1        0.0196
     42 C         -17.7497   -7.9572   -5.0262 C.3     1  UNL1        0.0572
     43 C         -17.5730   -9.3590   -4.4130 C.3     1  UNL1        0.0196
     44 C         -16.3859   -7.2357   -5.0077 C.3     1  UNL1        0.0196
     45 N         -20.2539   -9.4997  -11.5251 N.pl3   1  UNL1       -0.2120
     46 H         -19.6202   -9.3754  -12.3450 H       1  UNL1        0.1738
     47 S         -20.7500  -11.1079  -11.1236 S.O2    1  UNL1        0.0745
     48 O         -21.6343  -11.0548   -9.9093 O.2     1  UNL1       -0.1499
     49 O         -19.5506  -11.9472  -10.7845 O.2     1  UNL1       -0.1499
     50 C         -21.6462  -11.7986  -12.4834 C.ar    1  UNL1        0.1356
     51 C         -20.9559  -12.6051  -13.3968 C.ar    1  UNL1        0.0207
     52 C         -21.6300  -13.2417  -14.4400 C.ar    1  UNL1       -0.0028
     53 C         -23.0218  -13.0847  -14.5938 C.ar    1  UNL1       -0.0216
     54 C         -23.7085  -12.2648  -13.6862 C.ar    1  UNL1        0.0085
     55 C         -23.0382  -11.6247  -12.6372 C.ar    1  UNL1        0.0762
     56 CL        -23.9977  -10.6413  -11.5361 Cl      1  UNL1       -0.0809
     57 C         -23.8340  -13.7690  -15.6805 C.3     1  UNL1        0.0224
     58 C         -25.0773  -14.5222  -15.2276 C.3     1  UNL1        0.0047
     59 C         -23.8526  -15.2913  -15.7081 C.3     1  UNL1        0.0047
@<TRIPOS>BOND
     1    41    42    1
     2    42    43    1
     3    42    44    1
     4    42    37    1
     5    37    38   am
     6    38    39    2
     7    38    31    1
     8    31    32   ar
     9    32    33   ar
    10    33    34   ar
    11    34     1    1
    12     1     2    1
    13     2     3   ar
    14     3     4   ar
    15     4     5    1
    16     4     6   ar
    17     6    11    1
    18    11    12    1
    19    12    13    2
    20    12    14    1
    21    14    15    1
    22    15    16    1
    23    16    17    1
    24    17    27    1
    25    27    28    2
    26    27    29    1
    27    17    18    1
    28    18    19    1
    29    18    20    1
    30    20    21    1
    31    20    22    1
    32    22    23    1
    33     6     7   ar
    34     7     8    1
    35     7     9   ar
    36     9    10    1
    37    34    35   ar
    38    35    45    1
    39    45    47    1
    40    47    48    2
    41    47    49    2
    42    47    50    1
    43    50    51   ar
    44    51    52   ar
    45    52    53   ar
    46    53    57    1
    47    57    58    1
    48    58    59    1
    49    53    54   ar
    50    54    55   ar
    51    55    56    1
    52    35    36   ar
    53    36    31   ar
    54     9     2   ar
    55    55    50   ar
    56    22    15    1
    57    59    57    1
    58    37    40    1
    59    29    30    1
    60    19    24    1
    61    21    25    1
    62    23    26    1
    63    45    46    1
@<TRIPOS>MOLECULE
*****
 59 63 0 0 0
SMALL
GASTEIGER

@<TRIPOS>ATOM
      1 O         -22.9675   -9.9458  -12.5061 O.3     1  UNL1       -0.4513
      2 C         -22.1103   -9.7289  -11.4218 C.ar    1  UNL1        0.1584
      3 C         -22.2437   -8.5509  -10.6890 C.ar    1  UNL1        0.0677
      4 C         -21.2851   -8.1987   -9.7417 C.ar    1  UNL1        0.1402
      5 F         -21.3838   -6.9895   -9.1323 F       1  UNL1       -0.2044
      6 C         -20.1986   -9.0527   -9.4744 C.ar    1  UNL1        0.0228
      7 C         -20.1245  -10.3072  -10.1309 C.ar    1  UNL1        0.0423
      8 I         -18.5243  -11.6711   -9.7362 I       1  UNL1       -0.0418
      9 C         -21.0932  -10.6455  -11.0976 C.ar    1  UNL1        0.0973
     10 CL        -21.0279  -12.1966  -11.9361 Cl      1  UNL1       -0.0786
     11 C         -19.0643   -8.5446   -8.6142 C.3     1  UNL1        0.1386
     12 C         -19.3826   -8.7547   -7.1624 C.2     1  UNL1        0.3234
     13 O         -20.3877   -8.1870   -6.6547 O.2     1  UNL1       -0.2497
     14 O         -18.5822   -9.6116   -6.3943 O.3     1  UNL1       -0.4215
     15 C         -18.4008   -9.4895   -4.9847 C.3     1  UNL1        0.3207
     16 O         -19.6660   -9.1797   -4.4150 O.3     1  UNL1       -0.3070
     17 C         -19.5285   -8.7833   -3.0638 C.3     1  UNL1        0.2456
     18 C         -18.9014   -7.3693   -2.9830 C.3     1  UNL1        0.1781
     19 O         -18.1705   -7.2627   -1.7874 O.3     1  UNL1       -0.3790
     20 C         -17.9801   -7.0983   -4.1978 C.3     1  UNL1        0.1733
     21 O         -18.7410   -6.5328   -5.2362 O.3     1  UNL1       -0.3793
     22 C         -17.3208   -8.4006   -4.6886 C.3     1  UNL1        0.2106
     23 O         -16.4269   -8.8606   -3.7071 O.3     1  UNL1       -0.3766
     24 H         -18.0467   -6.2935   -1.6097 H       1  UNL1        0.2106
     25 H         -18.1001   -6.1236   -5.8748 H       1  UNL1        0.2105
     26 H         -15.8338   -9.5236   -4.1483 H       1  UNL1        0.2107
     27 C         -20.8761   -8.7926   -2.4026 C.2     1  UNL1        0.3439
     28 O         -21.5104   -9.8751   -2.2844 O.2     1  UNL1       -0.2475
     29 O         -21.4054   -7.6195   -1.8731 O.3     1  UNL1       -0.4785
     30 H         -22.3068   -7.6203   -1.4107 H       1  UNL1        0.2951
     31 C         -25.6398   -7.0635  -14.0726 C.ar    1  UNL1        0.0548
     32 C         -26.0664   -8.0351  -13.1540 C.ar    1  UNL1        0.0077
     33 C         -25.1622   -8.9706  -12.6421 C.ar    1  UNL1        0.0390
     34 C         -23.8215   -8.9653  -13.0442 C.ar    1  UNL1        0.1598
     35 C         -23.3843   -7.9772  -13.9606 C.ar    1  UNL1        0.0993
     36 C         -24.2997   -7.0600  -14.4849 C.ar    1  UNL1        0.0235
     37 N         -26.0900   -4.8634  -15.2441 N.am    1  UNL1       -0.3040
     38 C         -26.5844   -6.0508  -14.5948 C.2     1  UNL1        0.2458
     39 O         -27.8237   -6.2278  -14.4493 O.2     1  UNL1       -0.2701
     40 H         -25.0930   -4.6071  -15.0653 H       1  UNL1        0.1496
     41 C         -26.6375   -4.4709  -17.6234 C.3     1  UNL1        0.0196
     42 C         -26.8679   -4.0180  -16.1688 C.3     1  UNL1        0.0572
     43 C         -28.3661   -4.0839  -15.8174 C.3     1  UNL1        0.0196
     44 C         -26.3928   -2.5566  -16.0291 C.3     1  UNL1        0.0196
     45 N         -22.0126   -7.8566  -14.3380 N.pl3   1  UNL1       -0.2120
     46 H         -21.3005   -7.7319  -13.5851 H       1  UNL1        0.1738
     47 S         -21.4741   -8.4593  -15.8678 S.O2    1  UNL1        0.0745
     48 O         -19.9726   -8.4043  -15.9105 O.2     1  UNL1       -0.1499
     49 O         -21.9992   -7.5919  -16.9768 O.2     1  UNL1       -0.1499
     50 C         -22.0144  -10.1329  -16.0585 C.ar    1  UNL1        0.1356
     51 C         -21.5052  -11.1021  -15.1853 C.ar    1  UNL1        0.0207
     52 C         -21.9594  -12.4208  -15.2378 C.ar    1  UNL1       -0.0028
     53 C         -22.9419  -12.8025  -16.1729 C.ar    1  UNL1       -0.0216
     54 C         -23.4399  -11.8331  -17.0558 C.ar    1  UNL1        0.0085
     55 C         -22.9892  -10.5086  -17.0072 C.ar    1  UNL1        0.0762
     56 CL        -23.6999   -9.3635  -18.1402 Cl      1  UNL1       -0.0809
     57 C         -23.5131  -14.2070  -16.2721 C.3     1  UNL1        0.0224
     58 C         -24.5317  -14.6033  -15.2121 C.3     1  UNL1        0.0047
     59 C         -23.1345  -15.2112  -15.1919 C.3     1  UNL1        0.0047
@<TRIPOS>BOND
     1    41    42    1
     2    42    43    1
     3    42    44    1
     4    42    37    1
     5    37    38   am
     6    38    39    2
     7    38    31    1
     8    31    32   ar
     9    32    33   ar
    10    33    34   ar
    11    34     1    1
    12     1     2    1
    13     2     3   ar
    14     3     4   ar
    15     4     5    1
    16     4     6   ar
    17     6    11    1
    18    11    12    1
    19    12    13    2
    20    12    14    1
    21    14    15    1
    22    15    16    1
    23    16    17    1
    24    17    27    1
    25    27    28    2
    26    27    29    1
    27    17    18    1
    28    18    19    1
    29    18    20    1
    30    20    21    1
    31    20    22    1
    32    22    23    1
    33     6     7   ar
    34     7     8    1
    35     7     9   ar
    36     9    10    1
    37    34    35   ar
    38    35    45    1
    39    45    47    1
    40    47    48    2
    41    47    49    2
    42    47    50    1
    43    50    51   ar
    44    51    52   ar
    45    52    53   ar
    46    53    57    1
    47    57    58    1
    48    58    59    1
    49    53    54   ar
    50    54    55   ar
    51    55    56    1
    52    35    36   ar
    53    36    31   ar
    54     9     2   ar
    55    55    50   ar
    56    22    15    1
    57    59    57    1
    58    37    40    1
    59    29    30    1
    60    19    24    1
    61    21    25    1
    62    23    26    1
    63    45    46    1
@<TRIPOS>MOLECULE
*****
 59 63 0 0 0
SMALL
GASTEIGER

@<TRIPOS>ATOM
      1 O         -21.7758  -10.0315  -10.9228 O.3     1  UNL1       -0.4513
      2 C         -22.1461  -10.0994  -12.2703 C.ar    1  UNL1        0.1584
      3 C         -21.2793   -9.5781  -13.2292 C.ar    1  UNL1        0.0677
      4 C         -21.6955   -9.4349  -14.5508 C.ar    1  UNL1        0.1402
      5 F         -20.8688   -8.8151  -15.4314 F       1  UNL1       -0.2044
      6 C         -22.9767   -9.8635  -14.9459 C.ar    1  UNL1        0.0228
      7 C         -23.8162  -10.5043  -13.9999 C.ar    1  UNL1        0.0423
      8 I         -25.7565  -11.2202  -14.5464 I       1  UNL1       -0.0418
      9 C         -23.3887  -10.6304  -12.6624 C.ar    1  UNL1        0.0973
     10 CL        -24.4104  -11.4185  -11.4591 Cl      1  UNL1       -0.0786
     11 C         -23.4795   -9.4917  -16.3220 C.3     1  UNL1        0.1386
     12 C         -23.0901  -10.5460  -17.3168 C.2     1  UNL1        0.3234
     13 O         -23.6244  -10.5551  -18.4589 O.2     1  UNL1       -0.2497
     14 O         -22.1069  -11.4869  -16.9804 O.3     1  UNL1       -0.4215
     15 C         -22.2923  -12.8996  -17.0504 C.3     1  UNL1        0.3207
     16 O         -23.5619  -13.1938  -16.4823 O.3     1  UNL1       -0.3070
     17 C         -23.7111  -14.5850  -16.2716 C.3     1  UNL1        0.2456
     18 C         -22.8295  -15.0428  -15.0832 C.3     1  UNL1        0.1781
     19 O         -22.4459  -16.3791  -15.2888 O.3     1  UNL1       -0.3790
     20 C         -21.5768  -14.1439  -14.9400 C.3     1  UNL1        0.1733
     21 O         -21.8807  -13.0608  -14.0964 O.3     1  UNL1       -0.3793
     22 C         -21.1179  -13.6185  -16.3129 C.3     1  UNL1        0.2106
     23 O         -20.6504  -14.6960  -17.0839 O.3     1  UNL1       -0.3766
     24 H         -22.1613  -16.7372  -14.4074 H       1  UNL1        0.2106
     25 H         -21.0160  -12.6691  -13.8054 H       1  UNL1        0.2105
     26 H         -20.1239  -14.3067  -17.8303 H       1  UNL1        0.2107
     27 C         -25.1540  -14.8951  -15.9980 C.2     1  UNL1        0.3439
     28 O         -25.7144  -14.4237  -14.9724 O.2     1  UNL1       -0.2475
     29 O         -25.8902  -15.6587  -16.8990 O.3     1  UNL1       -0.4785
     30 H         -26.8688  -15.8589  -16.7301 H       1  UNL1        0.2951
     31 C         -18.0020  -11.2763   -9.4696 C.ar    1  UNL1        0.0548
     32 C         -18.8814  -12.1771  -10.0903 C.ar    1  UNL1        0.0077
     33 C         -20.1189  -11.7397  -10.5722 C.ar    1  UNL1        0.0390
     34 C         -20.5097  -10.4028  -10.4336 C.ar    1  UNL1        0.1598
     35 C         -19.6186   -9.4879   -9.8201 C.ar    1  UNL1        0.0993
     36 C         -18.3930   -9.9382   -9.3207 C.ar    1  UNL1        0.0235
     37 N         -15.7391  -12.3316   -9.8950 N.am    1  UNL1       -0.3040
     38 C         -16.6776  -11.7257   -8.9851 C.2     1  UNL1        0.2458
     39 O         -16.3864  -11.5905   -7.7664 O.2     1  UNL1       -0.2701
     40 H         -16.1240  -12.7063  -10.7912 H       1  UNL1        0.1496
     41 C         -13.9893  -12.7833   -8.2071 C.3     1  UNL1        0.0196
     42 C         -14.2835  -12.4198   -9.6752 C.3     1  UNL1        0.0572
     43 C         -13.6649  -13.4661  -10.6212 C.3     1  UNL1        0.0196
     44 C         -13.6486  -11.0462   -9.9770 C.3     1  UNL1        0.0196
     45 N         -19.9148   -8.0939   -9.7331 N.pl3   1  UNL1       -0.2120
     46 H         -19.4847   -7.4512  -10.4341 H       1  UNL1        0.1738
     47 S         -21.3382   -7.5558   -8.9099 S.O2    1  UNL1        0.0745
     48 O         -21.0879   -6.1820   -8.3537 O.2     1  UNL1       -0.1499
     49 O         -21.6440   -8.4711   -7.7580 O.2     1  UNL1       -0.1499
     50 C         -22.6870   -7.4989  -10.0530 C.ar    1  UNL1        0.1356
     51 C         -23.8584   -8.1991   -9.7385 C.ar    1  UNL1        0.0207
     52 C         -24.9811   -8.1212  -10.5639 C.ar    1  UNL1       -0.0028
     53 C         -24.9571   -7.3341  -11.7324 C.ar    1  UNL1       -0.0216
     54 C         -23.7779   -6.6454  -12.0527 C.ar    1  UNL1        0.0085
     55 C         -22.6490   -6.7185  -11.2282 C.ar    1  UNL1        0.0762
     56 CL        -21.2295   -5.7925  -11.7053 Cl      1  UNL1       -0.0809
     57 C         -26.1456   -7.1698  -12.6646 C.3     1  UNL1        0.0224
     58 C         -25.8529   -6.5984  -14.0452 C.3     1  UNL1        0.0047
     59 C         -26.5917   -5.7561  -13.0124 C.3     1  UNL1        0.0047
@<TRIPOS>BOND
     1    41    42    1
     2    42    43    1
     3    42    44    1
     4    42    37    1
     5    37    38   am
     6    38    39    2
     7    38    31    1
     8    31    32   ar
     9    32    33   ar
    10    33    34   ar
    11    34     1    1
    12     1     2    1
    13     2     3   ar
    14     3     4   ar
    15     4     5    1
    16     4     6   ar
    17     6    11    1
    18    11    12    1
    19    12    13    2
    20    12    14    1
    21    14    15    1
    22    15    16    1
    23    16    17    1
    24    17    27    1
    25    27    28    2
    26    27    29    1
    27    17    18    1
    28    18    19    1
    29    18    20    1
    30    20    21    1
    31    20    22    1
    32    22    23    1
    33     6     7   ar
    34     7     8    1
    35     7     9   ar
    36     9    10    1
    37    34    35   ar
    38    35    45    1
    39    45    47    1
    40    47    48    2
    41    47    49    2
    42    47    50    1
    43    50    51   ar
    44    51    52   ar
    45    52    53   ar
    46    53    57    1
    47    57    58    1
    48    58    59    1
    49    53    54   ar
    50    54    55   ar
    51    55    56    1
    52    35    36   ar
    53    36    31   ar
    54     9     2   ar
    55    55    50   ar
    56    22    15    1
    57    59    57    1
    58    37    40    1
    59    29    30    1
    60    19    24    1
    61    21    25    1
    62    23    26    1
    63    45    46    1
@<TRIPOS>MOLECULE
*****
 59 63 0 0 0
SMALL
GASTEIGER

@<TRIPOS>ATOM
      1 O         -25.1962   -9.3898  -11.0148 O.3     1  UNL1       -0.4513
      2 C         -23.9303   -9.3108  -10.4241 C.ar    1  UNL1        0.1584
      3 C         -23.6650   -8.2587   -9.5494 C.ar    1  UNL1        0.0677
      4 C         -22.3658   -8.0226   -9.1058 C.ar    1  UNL1        0.1402
      5 F         -22.1246   -6.9204   -8.3507 F       1  UNL1       -0.2044
      6 C         -21.3140   -8.8746   -9.4921 C.ar    1  UNL1        0.0228
      7 C         -21.6004  -10.0153  -10.2838 C.ar    1  UNL1        0.0423
      8 I         -20.0554  -11.3751  -10.8672 I       1  UNL1       -0.0418
      9 C         -22.9169  -10.2350  -10.7378 C.ar    1  UNL1        0.0973
     10 CL        -23.3066  -11.6423  -11.7282 Cl      1  UNL1       -0.0786
     11 C         -19.8919   -8.4663   -9.1825 C.3     1  UNL1        0.1386
     12 C         -19.4922   -8.9729   -7.8273 C.2     1  UNL1        0.3234
     13 O         -18.5019   -9.7457   -7.7163 O.2     1  UNL1       -0.2497
     14 O         -20.1996   -8.5506   -6.6932 O.3     1  UNL1       -0.4215
     15 C         -19.5929   -7.9661   -5.5420 C.3     1  UNL1        0.3207
     16 O         -18.2207   -7.7495   -5.8441 O.3     1  UNL1       -0.3070
     17 C         -17.4920   -7.4208   -4.6767 C.3     1  UNL1        0.2456
     18 C         -17.3227   -8.6738   -3.7820 C.3     1  UNL1        0.1781
     19 O         -17.2447   -8.2674   -2.4390 O.3     1  UNL1       -0.3790
     20 C         -18.5020   -9.6588   -3.9740 C.3     1  UNL1        0.1733
     21 O         -18.1923  -10.5512   -5.0156 O.3     1  UNL1       -0.3793
     22 C         -19.8008   -8.9021   -4.3090 C.3     1  UNL1        0.2106
     23 O         -20.1942   -8.1482   -3.1905 O.3     1  UNL1       -0.3766
     24 H         -16.8364   -9.0181   -1.9330 H       1  UNL1        0.2106
     25 H         -18.8169  -11.3188   -4.9343 H       1  UNL1        0.2105
     26 H         -21.1446   -7.8989   -3.3334 H       1  UNL1        0.2107
     27 C         -16.1489   -6.8746   -5.0655 C.2     1  UNL1        0.3439
     28 O         -16.0301   -5.6579   -5.3713 O.2     1  UNL1       -0.2475
     29 O         -15.0245   -7.6942   -5.0397 O.3     1  UNL1       -0.4785
     30 H         -14.1117   -7.3294   -5.2848 H       1  UNL1        0.2951
     31 C         -26.8686   -6.5418  -13.6596 C.ar    1  UNL1        0.0548
     32 C         -27.6557   -7.2083  -12.7076 C.ar    1  UNL1        0.0077
     33 C         -27.0782   -8.1377  -11.8372 C.ar    1  UNL1        0.0390
     34 C         -25.7112   -8.4308  -11.9065 C.ar    1  UNL1        0.1598
     35 C         -24.9111   -7.7496  -12.8568 C.ar    1  UNL1        0.0993
     36 C         -25.5006   -6.8388  -13.7384 C.ar    1  UNL1        0.0235
     37 N         -26.6676   -4.4488  -15.0717 N.am    1  UNL1       -0.3040
     38 C         -27.4672   -5.5341  -14.5632 C.2     1  UNL1        0.2458
     39 O         -28.6868   -5.6237  -14.8682 O.2     1  UNL1       -0.2701
     40 H         -25.7823   -4.2337  -14.5601 H       1  UNL1        0.1496
     41 C         -28.5084   -3.5250  -16.4402 C.3     1  UNL1        0.0196
     42 C         -26.9821   -3.6574  -16.2757 C.3     1  UNL1        0.0572
     43 C         -26.3299   -2.2651  -16.1827 C.3     1  UNL1        0.0196
     44 C         -26.4167   -4.3848  -17.5134 C.3     1  UNL1        0.0196
     45 N         -23.4961   -7.9310  -12.9160 N.pl3   1  UNL1       -0.2120
     46 H         -22.9911   -8.1787  -12.0368 H       1  UNL1        0.1738
     47 S         -22.7280   -8.3021  -14.4212 S.O2    1  UNL1        0.0745
     48 O         -21.2388   -8.1990  -14.2452 O.2     1  UNL1       -0.1499
     49 O         -23.1388   -7.3057  -15.4684 O.2     1  UNL1       -0.1499
     50 C         -23.1580   -9.9482  -14.9055 C.ar    1  UNL1        0.1356
     51 C         -24.3710  -10.4818  -14.4523 C.ar    1  UNL1        0.0207
     52 C         -24.7977  -11.7430  -14.8707 C.ar    1  UNL1       -0.0028
     53 C         -24.0140  -12.5052  -15.7598 C.ar    1  UNL1       -0.0216
     54 C         -22.7928  -11.9746  -16.2008 C.ar    1  UNL1        0.0085
     55 C         -22.3600  -10.7096  -15.7858 C.ar    1  UNL1        0.0762
     56 CL        -20.8259  -10.1238  -16.4209 Cl      1  UNL1       -0.0809
     57 C         -24.4224  -13.8698  -16.2887 C.3     1  UNL1        0.0224
     58 C         -25.2387  -14.7467  -15.3491 C.3     1  UNL1        0.0047
     59 C         -23.7888  -15.1012  -15.6559 C.3     1  UNL1        0.0047
@<TRIPOS>BOND
     1    41    42    1
     2    42    43    1
     3    42    44    1
     4    42    37    1
     5    37    38   am
     6    38    39    2
     7    38    31    1
     8    31    32   ar
     9    32    33   ar
    10    33    34   ar
    11    34     1    1
    12     1     2    1
    13     2     3   ar
    14     3     4   ar
    15     4     5    1
    16     4     6   ar
    17     6    11    1
    18    11    12    1
    19    12    13    2
    20    12    14    1
    21    14    15    1
    22    15    16    1
    23    16    17    1
    24    17    27    1
    25    27    28    2
    26    27    29    1
    27    17    18    1
    28    18    19    1
    29    18    20    1
    30    20    21    1
    31    20    22    1
    32    22    23    1
    33     6     7   ar
    34     7     8    1
    35     7     9   ar
    36     9    10    1
    37    34    35   ar
    38    35    45    1
    39    45    47    1
    40    47    48    2
    41    47    49    2
    42    47    50    1
    43    50    51   ar
    44    51    52   ar
    45    52    53   ar
    46    53    57    1
    47    57    58    1
    48    58    59    1
    49    53    54   ar
    50    54    55   ar
    51    55    56    1
    52    35    36   ar
    53    36    31   ar
    54     9     2   ar
    55    55    50   ar
    56    22    15    1
    57    59    57    1
    58    37    40    1
    59    29    30    1
    60    19    24    1
    61    21    25    1
    62    23    26    1
    63    45    46    1
@<TRIPOS>MOLECULE
*****
 59 63 0 0 0
SMALL
GASTEIGER

@<TRIPOS>ATOM
      1 O         -21.9777   -8.9338  -14.8944 O.3     1  UNL1       -0.4513
      2 C         -21.6123   -8.9432  -13.5439 C.ar    1  UNL1        0.1584
      3 C         -21.5513   -7.7308  -12.8591 C.ar    1  UNL1        0.0677
      4 C         -20.9942   -7.6700  -11.5838 C.ar    1  UNL1        0.1402
      5 F         -20.8431   -6.4558  -10.9954 F       1  UNL1       -0.2044
      6 C         -20.5348   -8.8394  -10.9492 C.ar    1  UNL1        0.0228
      7 C         -20.7053  -10.0909  -11.5933 C.ar    1  UNL1        0.0423
      8 I         -20.0709  -11.9104  -10.6643 I       1  UNL1       -0.0418
      9 C         -21.2577  -10.1373  -12.8896 C.ar    1  UNL1        0.0973
     10 CL        -21.4798  -11.6775  -13.7210 Cl      1  UNL1       -0.0786
     11 C         -19.7362   -8.7121   -9.6722 C.3     1  UNL1        0.1386
     12 C         -20.6575   -8.5100   -8.5045 C.2     1  UNL1        0.3234
     13 O         -21.8778   -8.8087   -8.6126 O.2     1  UNL1       -0.2497
     14 O         -20.1445   -8.0281   -7.2922 O.3     1  UNL1       -0.4215
     15 C         -19.7595   -8.8589   -6.1983 C.3     1  UNL1        0.3207
     16 O         -20.6064   -8.5425   -5.1011 O.3     1  UNL1       -0.3070
     17 C         -20.1244   -9.1265   -3.9059 C.3     1  UNL1        0.2456
     18 C         -18.8547   -8.3829   -3.4222 C.3     1  UNL1        0.1781
     19 O         -18.0366   -9.2863   -2.7223 O.3     1  UNL1       -0.3790
     20 C         -18.0778   -7.7732   -4.6149 C.3     1  UNL1        0.1733
     21 O         -18.5567   -6.4743   -4.8611 O.3     1  UNL1       -0.3793
     22 C         -18.2468   -8.6360   -5.8793 C.3     1  UNL1        0.2106
     23 O         -17.6075   -9.8713   -5.6807 O.3     1  UNL1       -0.3766
     24 H         -17.4115   -8.7444   -2.1730 H       1  UNL1        0.2106
     25 H         -17.8782   -6.0176   -5.4241 H       1  UNL1        0.2105
     26 H         -17.4978  -10.2841   -6.5771 H       1  UNL1        0.2107
     27 C         -21.1945   -9.0651   -2.8550 C.2     1  UNL1        0.3439
     28 O         -21.6884  -10.1307   -2.3982 O.2     1  UNL1       -0.2475
     29 O         -21.6073   -7.8375   -2.3455 O.3     1  UNL1       -0.4785
     30 H         -22.3172   -7.7881   -1.6244 H       1  UNL1        0.2951
     31 C         -24.6268   -6.1734  -16.7017 C.ar    1  UNL1        0.0548
     32 C         -23.5873   -6.7746  -17.4284 C.ar    1  UNL1        0.0077
     33 C         -22.7311   -7.6920  -16.8119 C.ar    1  UNL1        0.0390
     34 C         -22.8845   -8.0179  -15.4593 C.ar    1  UNL1        0.1598
     35 C         -23.9414   -7.4236  -14.7263 C.ar    1  UNL1        0.0993
     36 C         -24.7787   -6.4902  -15.3443 C.ar    1  UNL1        0.0235
     37 N         -26.7793   -4.8386  -16.7000 N.am    1  UNL1       -0.3040
     38 C         -25.5560   -5.2252  -17.3557 C.2     1  UNL1        0.2458
     39 O         -25.2762   -4.7741  -18.4988 O.2     1  UNL1       -0.2701
     40 H         -27.1185   -5.4572  -15.9292 H       1  UNL1        0.1496
     41 C         -27.6837   -3.4422  -18.5295 C.3     1  UNL1        0.0196
     42 C         -27.5551   -3.6220  -17.0046 C.3     1  UNL1        0.0572
     43 C         -28.9491   -3.7030  -16.3546 C.3     1  UNL1        0.0196
     44 C         -26.8127   -2.3986  -16.4274 C.3     1  UNL1        0.0196
     45 N         -24.2118   -7.7839  -13.3714 N.pl3   1  UNL1       -0.2120
     46 H         -23.7559   -7.2324  -12.6115 H       1  UNL1        0.1738
     47 S         -25.6399   -8.6772  -12.9764 S.O2    1  UNL1        0.0745
     48 O         -26.7916   -8.1289  -13.7715 O.2     1  UNL1       -0.1499
     49 O         -25.9648   -8.5106  -11.5187 O.2     1  UNL1       -0.1499
     50 C         -25.3932  -10.3811  -13.3826 C.ar    1  UNL1        0.1356
     51 C         -25.7925  -10.8301  -14.6477 C.ar    1  UNL1        0.0207
     52 C         -25.5464  -12.1435  -15.0505 C.ar    1  UNL1       -0.0028
     53 C         -24.8893  -13.0449  -14.1895 C.ar    1  UNL1       -0.0216
     54 C         -24.5033  -12.5968  -12.9176 C.ar    1  UNL1        0.0085
     55 C         -24.7462  -11.2803  -12.5084 C.ar    1  UNL1        0.0762
     56 CL        -24.1954  -10.8107  -10.9033 Cl      1  UNL1       -0.0809
     57 C         -24.5543  -14.4788  -14.5640 C.3     1  UNL1        0.0224
     58 C         -23.3531  -14.6800  -15.4777 C.3     1  UNL1        0.0047
     59 C         -24.7626  -14.9078  -16.0101 C.3     1  UNL1        0.0047
@<TRIPOS>BOND
     1    41    42    1
     2    42    43    1
     3    42    44    1
     4    42    37    1
     5    37    38   am
     6    38    39    2
     7    38    31    1
     8    31    32   ar
     9    32    33   ar
    10    33    34   ar
    11    34     1    1
    12     1     2    1
    13     2     3   ar
    14     3     4   ar
    15     4     5    1
    16     4     6   ar
    17     6    11    1
    18    11    12    1
    19    12    13    2
    20    12    14    1
    21    14    15    1
    22    15    16    1
    23    16    17    1
    24    17    27    1
    25    27    28    2
    26    27    29    1
    27    17    18    1
    28    18    19    1
    29    18    20    1
    30    20    21    1
    31    20    22    1
    32    22    23    1
    33     6     7   ar
    34     7     8    1
    35     7     9   ar
    36     9    10    1
    37    34    35   ar
    38    35    45    1
    39    45    47    1
    40    47    48    2
    41    47    49    2
    42    47    50    1
    43    50    51   ar
    44    51    52   ar
    45    52    53   ar
    46    53    57    1
    47    57    58    1
    48    58    59    1
    49    53    54   ar
    50    54    55   ar
    51    55    56    1
    52    35    36   ar
    53    36    31   ar
    54     9     2   ar
    55    55    50   ar
    56    22    15    1
    57    59    57    1
    58    37    40    1
    59    29    30    1
    60    19    24    1
    61    21    25    1
    62    23    26    1
    63    45    46    1
@<TRIPOS>MOLECULE
*****
 59 63 0 0 0
SMALL
GASTEIGER

@<TRIPOS>ATOM
      1 O         -25.0497   -9.0561  -10.3030 O.3     1  UNL1       -0.4513
      2 C         -23.6877   -9.2134  -10.0242 C.ar    1  UNL1        0.1584
      3 C         -23.0467   -8.2451   -9.2534 C.ar    1  UNL1        0.0677
      4 C         -21.6593   -8.2501   -9.1280 C.ar    1  UNL1        0.1402
      5 F         -21.0604   -7.2255   -8.4688 F       1  UNL1       -0.2044
      6 C         -20.8918   -9.2629   -9.7333 C.ar    1  UNL1        0.0228
      7 C         -21.5493  -10.3167  -10.4169 C.ar    1  UNL1        0.0423
      8 I         -20.4445  -11.9106  -11.3198 I       1  UNL1       -0.0418
      9 C         -22.9527  -10.2924  -10.5487 C.ar    1  UNL1        0.0973
     10 CL        -23.8018  -11.5857  -11.3969 Cl      1  UNL1       -0.0786
     11 C         -19.3878   -9.1166   -9.7698 C.3     1  UNL1        0.1386
     12 C         -18.7908   -9.5926   -8.4776 C.2     1  UNL1        0.3234
     13 O         -18.1036  -10.6498   -8.4588 O.2     1  UNL1       -0.2497
     14 O         -18.9697   -8.8360   -7.3111 O.3     1  UNL1       -0.4215
     15 C         -18.7587   -9.3356   -5.9917 C.3     1  UNL1        0.3207
     16 O         -19.8629   -8.9246   -5.1961 O.3     1  UNL1       -0.3070
     17 C         -19.6075   -9.1490   -3.8227 C.3     1  UNL1        0.2456
     18 C         -18.5690   -8.1264   -3.2984 C.3     1  UNL1        0.1781
     19 O         -17.8410   -8.7136   -2.2494 O.3     1  UNL1       -0.3790
     20 C         -17.6097   -7.6776   -4.4280 C.3     1  UNL1        0.1733
     21 O         -18.1555   -6.5566   -5.0780 O.3     1  UNL1       -0.3793
     22 C         -17.3918   -8.8119   -5.4466 C.3     1  UNL1        0.2106
     23 O         -16.6865   -9.8568   -4.8260 O.3     1  UNL1       -0.3766
     24 H         -17.4197   -7.9728   -1.7397 H       1  UNL1        0.2106
     25 H         -17.4190   -6.1329   -5.5917 H       1  UNL1        0.2105
     26 H         -16.3312  -10.4331   -5.5523 H       1  UNL1        0.2107
     27 C         -20.8899   -9.0290   -3.0518 C.2     1  UNL1        0.3439
     28 O         -21.9810   -9.3524   -3.5931 O.2     1  UNL1       -0.2475
     29 O         -20.8736   -8.6111   -1.7244 O.3     1  UNL1       -0.4785
     30 H         -21.7328   -8.5431   -1.1920 H       1  UNL1        0.2951
     31 C         -26.6925   -6.5988  -13.3306 C.ar    1  UNL1        0.0548
     32 C         -27.4693   -7.0517  -12.2529 C.ar    1  UNL1        0.0077
     33 C         -26.9012   -7.8542  -11.2588 C.ar    1  UNL1        0.0390
     34 C         -25.5549   -8.2315  -11.3253 C.ar    1  UNL1        0.1598
     35 C         -24.7643   -7.7646  -12.4042 C.ar    1  UNL1        0.0993
     36 C         -25.3458   -6.9816  -13.4058 C.ar    1  UNL1        0.0235
     37 N         -26.5730   -4.5484  -14.8127 N.am    1  UNL1       -0.3040
     38 C         -27.2792   -5.7236  -14.3698 C.2     1  UNL1        0.2458
     39 O         -28.4100   -6.0055  -14.8496 O.2     1  UNL1       -0.2701
     40 H         -25.8194   -4.1857  -14.1865 H       1  UNL1        0.1496
     41 C         -26.2068   -4.6716  -17.2551 C.3     1  UNL1        0.0196
     42 C         -26.8039   -3.8544  -16.0933 C.3     1  UNL1        0.0572
     43 C         -28.3120   -3.6318  -16.3136 C.3     1  UNL1        0.0196
     44 C         -26.1041   -2.4799  -16.0500 C.3     1  UNL1        0.0196
     45 N         -23.3641   -8.0330  -12.4813 N.pl3   1  UNL1       -0.2120
     46 H         -22.8810   -8.3935  -11.6292 H       1  UNL1        0.1738
     47 S         -22.6144   -8.3137  -14.0151 S.O2    1  UNL1        0.0745
     48 O         -21.1223   -8.2460  -13.8464 O.2     1  UNL1       -0.1499
     49 O         -23.0176   -7.2428  -14.9891 O.2     1  UNL1       -0.1499
     50 C         -23.0749   -9.9166  -14.6049 C.ar    1  UNL1        0.1356
     51 C         -24.2540  -10.4938  -14.1171 C.ar    1  UNL1        0.0207
     52 C         -24.7071  -11.7186  -14.6095 C.ar    1  UNL1       -0.0028
     53 C         -23.9847  -12.3991  -15.6099 C.ar    1  UNL1       -0.0216
     54 C         -22.7966  -11.8258  -16.0864 C.ar    1  UNL1        0.0085
     55 C         -22.3377  -10.5970  -15.5974 C.ar    1  UNL1        0.0762
     56 CL        -20.8506   -9.9505  -16.2835 Cl      1  UNL1       -0.0809
     57 C         -24.4269  -13.7176  -16.2220 C.3     1  UNL1        0.0224
     58 C         -25.2701  -14.6280  -15.3398 C.3     1  UNL1        0.0047
     59 C         -23.8288  -15.0017  -15.6638 C.3     1  UNL1        0.0047
@<TRIPOS>BOND
     1    41    42    1
     2    42    43    1
     3    42    44    1
     4    42    37    1
     5    37    38   am
     6    38    39    2
     7    38    31    1
     8    31    32   ar
     9    32    33   ar
    10    33    34   ar
    11    34     1    1
    12     1     2    1
    13     2     3   ar
    14     3     4   ar
    15     4     5    1
    16     4     6   ar
    17     6    11    1
    18    11    12    1
    19    12    13    2
    20    12    14    1
    21    14    15    1
    22    15    16    1
    23    16    17    1
    24    17    27    1
    25    27    28    2
    26    27    29    1
    27    17    18    1
    28    18    19    1
    29    18    20    1
    30    20    21    1
    31    20    22    1
    32    22    23    1
    33     6     7   ar
    34     7     8    1
    35     7     9   ar
    36     9    10    1
    37    34    35   ar
    38    35    45    1
    39    45    47    1
    40    47    48    2
    41    47    49    2
    42    47    50    1
    43    50    51   ar
    44    51    52   ar
    45    52    53   ar
    46    53    57    1
    47    57    58    1
    48    58    59    1
    49    53    54   ar
    50    54    55   ar
    51    55    56    1
    52    35    36   ar
    53    36    31   ar
    54     9     2   ar
    55    55    50   ar
    56    22    15    1
    57    59    57    1
    58    37    40    1
    59    29    30    1
    60    19    24    1
    61    21    25    1
    62    23    26    1
    63    45    46    1
@<TRIPOS>MOLECULE
*****
 59 63 0 0 0
SMALL
GASTEIGER

@<TRIPOS>ATOM
      1 O         -21.9977   -9.1592  -14.6201 O.3     1  UNL1       -0.4513
      2 C         -21.5352   -9.0760  -13.3023 C.ar    1  UNL1        0.1584
      3 C         -21.4401   -7.8204  -12.7049 C.ar    1  UNL1        0.0677
      4 C         -20.7927   -7.6705  -11.4806 C.ar    1  UNL1        0.1402
      5 F         -20.6149   -6.4188  -10.9859 F       1  UNL1       -0.2044
      6 C         -20.2736   -8.7914  -10.8060 C.ar    1  UNL1        0.0228
      7 C         -20.4744  -10.0843  -11.3523 C.ar    1  UNL1        0.0423
      8 I         -19.7509  -11.8330  -10.3549 I       1  UNL1       -0.0418
      9 C         -21.1187  -10.2211  -12.5988 C.ar    1  UNL1        0.0973
     10 CL        -21.3808  -11.8149  -13.3088 Cl      1  UNL1       -0.0786
     11 C         -19.3860   -8.5732   -9.6021 C.3     1  UNL1        0.1386
     12 C         -20.2198   -8.4615   -8.3590 C.2     1  UNL1        0.3234
     13 O         -21.3533   -7.9118   -8.4143 O.2     1  UNL1       -0.2497
     14 O         -19.7472   -9.0047   -7.1562 O.3     1  UNL1       -0.4215
     15 C         -19.3804   -8.2296   -6.0163 C.3     1  UNL1        0.3207
     16 O         -17.9745   -8.0256   -6.0709 O.3     1  UNL1       -0.3070
     17 C         -17.4927   -7.4970   -4.8501 C.3     1  UNL1        0.2456
     18 C         -17.5116   -8.5882   -3.7511 C.3     1  UNL1        0.1781
     19 O         -17.7021   -7.9733   -2.5018 O.3     1  UNL1       -0.3790
     20 C         -18.6332   -9.6234   -4.0129 C.3     1  UNL1        0.1733
     21 O         -18.1254  -10.6598   -4.8161 O.3     1  UNL1       -0.3793
     22 C         -19.8351   -8.9650   -4.7154 C.3     1  UNL1        0.2106
     23 O         -20.4410   -8.0554   -3.8324 O.3     1  UNL1       -0.3766
     24 H         -17.4068   -8.6233   -1.8115 H       1  UNL1        0.2106
     25 H         -18.7571  -11.4220   -4.7386 H       1  UNL1        0.2105
     26 H         -21.3424   -7.8580   -4.1989 H       1  UNL1        0.2107
     27 C         -16.0965   -6.9821   -5.0471 C.2     1  UNL1        0.3439
     28 O         -15.1207   -7.7779   -4.9984 O.2     1  UNL1       -0.2475
     29 O         -15.8791   -5.6379   -5.3348 O.3     1  UNL1       -0.4785
     30 H         -14.9413   -5.2854   -5.4854 H       1  UNL1        0.2951
     31 C         -24.4663   -6.3010  -16.5281 C.ar    1  UNL1        0.0548
     32 C         -23.4312   -6.9517  -17.2175 C.ar    1  UNL1        0.0077
     33 C         -22.6355   -7.9004  -16.5683 C.ar    1  UNL1        0.0390
     34 C         -22.8457   -8.2094  -15.2193 C.ar    1  UNL1        0.1598
     35 C         -23.8987   -7.5648  -14.5242 C.ar    1  UNL1        0.0993
     36 C         -24.6748   -6.6009  -15.1745 C.ar    1  UNL1        0.0235
     37 N         -26.5973   -4.9368  -16.6426 N.am    1  UNL1       -0.3040
     38 C         -25.3324   -5.3186  -17.2173 C.2     1  UNL1        0.2458
     39 O         -24.9619   -4.8338  -18.3201 O.2     1  UNL1       -0.2701
     40 H         -27.0008   -5.5757  -15.9210 H       1  UNL1        0.1496
     41 C         -26.6035   -2.4790  -16.3711 C.3     1  UNL1        0.0196
     42 C         -27.3337   -3.6999  -16.9628 C.3     1  UNL1        0.0572
     43 C         -27.4820   -3.5486  -18.4884 C.3     1  UNL1        0.0196
     44 C         -28.7416   -3.7803  -16.3365 C.3     1  UNL1        0.0196
     45 N         -24.2274   -7.9031  -13.1766 N.pl3   1  UNL1       -0.2120
     46 H         -23.8120   -7.3332  -12.4072 H       1  UNL1        0.1738
     47 S         -25.6635   -8.8038  -12.8304 S.O2    1  UNL1        0.0745
     48 O         -26.8028   -8.2248  -13.6216 O.2     1  UNL1       -0.1499
     49 O         -26.0070   -8.6848  -11.3723 O.2     1  UNL1       -0.1499
     50 C         -25.4172  -10.4940  -13.2903 C.ar    1  UNL1        0.1356
     51 C         -25.8571  -10.9132  -14.5521 C.ar    1  UNL1        0.0207
     52 C         -25.6145  -12.2132  -14.9982 C.ar    1  UNL1       -0.0028
     53 C         -24.9200  -13.1308  -14.1851 C.ar    1  UNL1       -0.0216
     54 C         -24.4931  -12.7129  -12.9160 C.ar    1  UNL1        0.0085
     55 C         -24.7323  -11.4099  -12.4636 C.ar    1  UNL1        0.0762
     56 CL        -24.1290  -10.9777  -10.8669 Cl      1  UNL1       -0.0809
     57 C         -24.5865  -14.5512  -14.6092 C.3     1  UNL1        0.0224
     58 C         -23.3438  -14.7296  -15.4706 C.3     1  UNL1        0.0047
     59 C         -24.7278  -14.9097  -16.0823 C.3     1  UNL1        0.0047
@<TRIPOS>BOND
     1    41    42    1
     2    42    43    1
     3    42    44    1
     4    42    37    1
     5    37    38   am
     6    38    39    2
     7    38    31    1
     8    31    32   ar
     9    32    33   ar
    10    33    34   ar
    11    34     1    1
    12     1     2    1
    13     2     3   ar
    14     3     4   ar
    15     4     5    1
    16     4     6   ar
    17     6    11    1
    18    11    12    1
    19    12    13    2
    20    12    14    1
    21    14    15    1
    22    15    16    1
    23    16    17    1
    24    17    27    1
    25    27    28    2
    26    27    29    1
    27    17    18    1
    28    18    19    1
    29    18    20    1
    30    20    21    1
    31    20    22    1
    32    22    23    1
    33     6     7   ar
    34     7     8    1
    35     7     9   ar
    36     9    10    1
    37    34    35   ar
    38    35    45    1
    39    45    47    1
    40    47    48    2
    41    47    49    2
    42    47    50    1
    43    50    51   ar
    44    51    52   ar
    45    52    53   ar
    46    53    57    1
    47    57    58    1
    48    58    59    1
    49    53    54   ar
    50    54    55   ar
    51    55    56    1
    52    35    36   ar
    53    36    31   ar
    54     9     2   ar
    55    55    50   ar
    56    22    15    1
    57    59    57    1
    58    37    40    1
    59    29    30    1
    60    19    24    1
    61    21    25    1
    62    23    26    1
    63    45    46    1
