@<TRIPOS>MOLECULE
*****
 47 52 0 0 0
SMALL
GASTEIGER

@<TRIPOS>ATOM
      1 C         -64.4567  -52.1199  -24.9081 C.ar    1  UNL1        0.0702
      2 C         -63.9763  -52.2859  -23.6040 C.ar    1  UNL1        0.0191
      3 C         -64.5173  -53.2685  -22.7737 C.ar    1  UNL1        0.0356
      4 C         -65.5632  -54.0794  -23.2472 C.ar    1  UNL1        0.1318
      5 N         -66.0276  -53.8844  -24.5135 N.ar    1  UNL1       -0.2279
      6 C         -65.5128  -52.9371  -25.3410 C.ar    1  UNL1        0.1149
      7 N         -66.1492  -55.1091  -22.4210 N.pl3   1  UNL1       -0.2932
      8 C         -65.4602  -55.5364  -21.1936 C.3     1  UNL1        0.0923
      9 C         -66.4848  -55.9582  -20.1379 C.3     1  UNL1        0.0252
     10 C         -67.4014  -57.1078  -20.6323 C.3     1  UNL1        0.0471
     11 C         -67.5065  -57.1723  -22.1768 C.3     1  UNL1        0.0252
     12 C         -67.3878  -55.7918  -22.8343 C.3     1  UNL1        0.0923
     13 C         -68.7947  -57.0126  -19.9888 C.3     1  UNL1        0.2054
     14 O         -68.9384  -55.7543  -19.3325 O.3     1  UNL1       -0.4757
     15 C         -69.9407  -55.4401  -18.3988 C.ar    1  UNL1        0.1371
     16 C         -70.0215  -56.1157  -17.1681 C.ar    1  UNL1        0.0367
     17 C         -71.0083  -55.7892  -16.2457 C.ar    1  UNL1        0.0033
     18 C         -71.9343  -54.7924  -16.5333 C.ar    1  UNL1        0.0064
     19 C         -71.8983  -54.1019  -17.7570 C.ar    1  UNL1        0.0768
     20 C         -70.8802  -54.4228  -18.7058 C.ar    1  UNL1        0.0472
     21 C         -72.9323  -53.0559  -17.9812 C.2     1  UNL1        0.3379
     22 O         -72.8285  -51.9114  -17.4661 O.2     1  UNL1       -0.2451
     23 O         -74.0220  -53.3266  -18.8055 O.3     1  UNL1       -0.4771
     24 H         -74.7299  -52.6233  -18.9807 H       1  UNL1        0.2954
     25 C         -70.7548  -53.6708  -20.0167 C.3     1  UNL1        0.1668
     26 O         -69.4873  -53.0801  -20.1032 O.3     1  UNL1       -0.3771
     27 H         -69.4868  -52.5469  -20.9403 H       1  UNL1        0.2109
     28 C         -64.0119  -49.6831  -25.4651 C.2     1  UNL1        0.2839
     29 O         -64.8239  -49.2694  -24.5944 O.2     1  UNL1       -0.2665
     30 N         -63.9042  -51.0885  -25.7442 N.am    1  UNL1       -0.2766
     31 H         -63.4721  -51.3765  -26.6513 H       1  UNL1        0.1553
     32 C         -64.1059  -49.1678  -28.6272 C.3     1  UNL1        0.0345
     33 C         -63.2363  -48.4912  -27.6106 C.ar    1  UNL1        0.0202
     34 C         -63.1978  -48.7199  -26.2305 C.ar    1  UNL1        0.1946
     35 O         -62.3031  -47.9283  -25.6659 O.2     1  UNL1       -0.4492
     36 C         -61.7589  -47.1986  -26.6088 C.ar    1  UNL1        0.1452
     37 C         -60.7713  -46.2307  -26.4627 C.ar    1  UNL1        0.0375
     38 C         -60.3286  -45.5599  -27.6158 C.ar    1  UNL1        0.0031
     39 C         -60.8763  -45.8645  -28.8913 C.ar    1  UNL1        0.0002
     40 C         -61.8801  -46.8573  -28.9963 C.ar    1  UNL1        0.0028
     41 C         -62.2955  -47.5034  -27.8309 C.ar    1  UNL1        0.0337
     42 C         -60.4009  -45.1490  -30.1025 C.ar    1  UNL1        0.0000
     43 C         -61.2734  -44.3197  -30.8328 C.ar    1  UNL1        0.0000
     44 C         -60.8231  -43.6481  -31.9735 C.ar    1  UNL1        0.0000
     45 C         -59.5005  -43.7948  -32.3973 C.ar    1  UNL1        0.0000
     46 C         -58.6250  -44.6143  -31.6813 C.ar    1  UNL1        0.0000
     47 C         -59.0700  -45.2891  -30.5405 C.ar    1  UNL1        0.0000
@<TRIPOS>BOND
     1    32    33    1
     2    33    34   ar
     3    34    28    1
     4    28    29    2
     5    28    30   am
     6    30     1    1
     7     1     2   ar
     8     2     3   ar
     9     3     4   ar
    10     4     7    1
    11     7     8    1
    12     8     9    1
    13     9    10    1
    14    10    13    1
    15    13    14    1
    16    14    15    1
    17    15    16   ar
    18    16    17   ar
    19    17    18   ar
    20    18    19   ar
    21    19    21    1
    22    21    22    2
    23    21    23    1
    24    19    20   ar
    25    20    25    1
    26    25    26    1
    27    10    11    1
    28    11    12    1
    29     4     5   ar
    30     5     6   ar
    31    34    35   ar
    32    35    36   ar
    33    36    37   ar
    34    37    38   ar
    35    38    39   ar
    36    39    42    1
    37    42    43   ar
    38    43    44   ar
    39    44    45   ar
    40    45    46   ar
    41    46    47   ar
    42    39    40   ar
    43    40    41   ar
    44    41    33   ar
    45     6     1   ar
    46    41    36   ar
    47    12     7    1
    48    47    42   ar
    49    20    15   ar
    50    30    31    1
    51    23    24    1
    52    26    27    1
@<TRIPOS>MOLECULE
*****
 47 52 0 0 0
SMALL
GASTEIGER

@<TRIPOS>ATOM
      1 C         -63.9100  -50.9660  -24.2964 C.ar    1  UNL1        0.0702
      2 C         -63.1159  -51.9002  -23.6214 C.ar    1  UNL1        0.0191
      3 C         -63.6641  -53.1078  -23.1869 C.ar    1  UNL1        0.0356
      4 C         -65.0257  -53.3738  -23.4128 C.ar    1  UNL1        0.1318
      5 N         -65.7828  -52.4394  -24.0538 N.ar    1  UNL1       -0.2279
      6 C         -65.2692  -51.2590  -24.4899 C.ar    1  UNL1        0.1149
      7 N         -65.6314  -54.6120  -22.9814 N.pl3   1  UNL1       -0.2932
      8 C         -65.1440  -55.2735  -21.7612 C.3     1  UNL1        0.0923
      9 C         -66.2938  -56.0104  -21.0703 C.3     1  UNL1        0.0252
     10 C         -66.9545  -57.0684  -21.9924 C.3     1  UNL1        0.0471
     11 C         -66.7536  -56.7642  -23.4983 C.3     1  UNL1        0.0252
     12 C         -66.6772  -55.2608  -23.7915 C.3     1  UNL1        0.0923
     13 C         -68.4465  -57.2313  -21.6577 C.3     1  UNL1        0.2054
     14 O         -69.0226  -55.9549  -21.3865 O.3     1  UNL1       -0.4757
     15 C         -70.3212  -55.7434  -20.8923 C.ar    1  UNL1        0.1371
     16 C         -71.3827  -56.5892  -21.2601 C.ar    1  UNL1        0.0367
     17 C         -72.6608  -56.3798  -20.7562 C.ar    1  UNL1        0.0033
     18 C         -72.9065  -55.3239  -19.8853 C.ar    1  UNL1        0.0064
     19 C         -71.8774  -54.4462  -19.5029 C.ar    1  UNL1        0.0768
     20 C         -70.5584  -54.6612  -20.0066 C.ar    1  UNL1        0.0472
     21 C         -72.2334  -53.3410  -18.5727 C.2     1  UNL1        0.3379
     22 O         -72.5314  -52.1949  -19.0009 O.2     1  UNL1       -0.2451
     23 O         -72.2763  -53.5791  -17.2009 O.3     1  UNL1       -0.4771
     24 H         -72.5287  -52.8429  -16.5522 H       1  UNL1        0.2954
     25 C         -69.3965  -53.7839  -19.5821 C.3     1  UNL1        0.1668
     26 O         -68.8028  -53.2068  -20.7123 O.3     1  UNL1       -0.3771
     27 H         -68.0118  -52.7053  -20.3839 H       1  UNL1        0.2109
     28 C         -63.5901  -49.1053  -25.9938 C.2     1  UNL1        0.2839
     29 O         -64.1371  -49.7663  -26.9171 O.2     1  UNL1       -0.2665
     30 N         -63.3361  -49.7169  -24.7186 N.am    1  UNL1       -0.2766
     31 H         -62.6270  -49.2709  -24.0936 H       1  UNL1        0.1553
     32 C         -63.7211  -47.5066  -28.7687 C.3     1  UNL1        0.0345
     33 C         -63.2274  -47.0094  -27.4434 C.ar    1  UNL1        0.0202
     34 C         -63.1711  -47.7112  -26.2340 C.ar    1  UNL1        0.1946
     35 O         -62.6763  -46.9369  -25.2846 O.2     1  UNL1       -0.4492
     36 C         -62.4083  -45.7693  -25.8161 C.ar    1  UNL1        0.1452
     37 C         -61.8751  -44.6544  -25.1787 C.ar    1  UNL1        0.0375
     38 C         -61.6680  -43.4932  -25.9430 C.ar    1  UNL1        0.0031
     39 C         -61.9948  -43.4632  -27.3258 C.ar    1  UNL1        0.0002
     40 C         -62.5352  -44.6204  -27.9363 C.ar    1  UNL1        0.0028
     41 C         -62.7274  -45.7557  -27.1474 C.ar    1  UNL1        0.0337
     42 C         -61.7717  -42.2305  -28.1231 C.ar    1  UNL1        0.0000
     43 C         -60.5726  -41.5034  -27.9968 C.ar    1  UNL1        0.0000
     44 C         -60.3657  -40.3425  -28.7481 C.ar    1  UNL1        0.0000
     45 C         -61.3496  -39.8951  -29.6325 C.ar    1  UNL1        0.0000
     46 C         -62.5433  -40.6076  -29.7672 C.ar    1  UNL1        0.0000
     47 C         -62.7560  -41.7685  -29.0177 C.ar    1  UNL1        0.0000
@<TRIPOS>BOND
     1    32    33    1
     2    33    34   ar
     3    34    28    1
     4    28    29    2
     5    28    30   am
     6    30     1    1
     7     1     2   ar
     8     2     3   ar
     9     3     4   ar
    10     4     7    1
    11     7     8    1
    12     8     9    1
    13     9    10    1
    14    10    13    1
    15    13    14    1
    16    14    15    1
    17    15    16   ar
    18    16    17   ar
    19    17    18   ar
    20    18    19   ar
    21    19    21    1
    22    21    22    2
    23    21    23    1
    24    19    20   ar
    25    20    25    1
    26    25    26    1
    27    10    11    1
    28    11    12    1
    29     4     5   ar
    30     5     6   ar
    31    34    35   ar
    32    35    36   ar
    33    36    37   ar
    34    37    38   ar
    35    38    39   ar
    36    39    42    1
    37    42    43   ar
    38    43    44   ar
    39    44    45   ar
    40    45    46   ar
    41    46    47   ar
    42    39    40   ar
    43    40    41   ar
    44    41    33   ar
    45     6     1   ar
    46    41    36   ar
    47    12     7    1
    48    47    42   ar
    49    20    15   ar
    50    30    31    1
    51    23    24    1
    52    26    27    1
@<TRIPOS>MOLECULE
*****
 47 52 0 0 0
SMALL
GASTEIGER

@<TRIPOS>ATOM
      1 C         -65.0923  -53.1989  -24.3102 C.ar    1  UNL1        0.0702
      2 C         -66.0163  -53.5875  -23.3334 C.ar    1  UNL1        0.0191
      3 C         -67.1036  -54.3938  -23.6732 C.ar    1  UNL1        0.0356
      4 C         -67.2783  -54.7982  -25.0080 C.ar    1  UNL1        0.1318
      5 N         -66.3764  -54.3895  -25.9444 N.ar    1  UNL1       -0.2279
      6 C         -65.3078  -53.6085  -25.6355 C.ar    1  UNL1        0.1149
      7 N         -68.3884  -55.6343  -25.4010 N.pl3   1  UNL1       -0.2932
      8 C         -69.1463  -56.3666  -24.3747 C.3     1  UNL1        0.0923
      9 C         -70.6094  -56.5035  -24.8026 C.3     1  UNL1        0.0252
     10 C         -70.7599  -57.2338  -26.1627 C.3     1  UNL1        0.0471
     11 C         -69.4895  -57.1335  -27.0439 C.3     1  UNL1        0.0252
     12 C         -68.7207  -55.8248  -26.8238 C.3     1  UNL1        0.0923
     13 C         -71.9981  -56.7281  -26.9217 C.3     1  UNL1        0.2054
     14 O         -71.5966  -55.8385  -27.9620 O.3     1  UNL1       -0.4757
     15 C         -72.4583  -55.2689  -28.9150 C.ar    1  UNL1        0.1371
     16 C         -73.2538  -54.1537  -28.5970 C.ar    1  UNL1        0.0367
     17 C         -74.0934  -53.5894  -29.5499 C.ar    1  UNL1        0.0033
     18 C         -74.1616  -54.1272  -30.8305 C.ar    1  UNL1        0.0064
     19 C         -73.3943  -55.2498  -31.1862 C.ar    1  UNL1        0.0768
     20 C         -72.5199  -55.8288  -30.2167 C.ar    1  UNL1        0.0472
     21 C         -73.5361  -55.7609  -32.5762 C.2     1  UNL1        0.3379
     22 O         -72.5425  -55.8545  -33.3441 O.2     1  UNL1       -0.2451
     23 O         -74.7827  -56.1812  -33.0343 O.3     1  UNL1       -0.4771
     24 H         -74.8973  -56.5441  -33.9732 H       1  UNL1        0.2954
     25 C         -71.6237  -57.0028  -30.5605 C.3     1  UNL1        0.1668
     26 O         -70.2805  -56.6166  -30.4623 O.3     1  UNL1       -0.3771
     27 H         -69.7455  -57.3959  -30.7648 H       1  UNL1        0.2109
     28 C         -63.6370  -51.1466  -24.6507 C.2     1  UNL1        0.2839
     29 O         -64.1302  -50.9062  -25.7854 O.2     1  UNL1       -0.2665
     30 N         -63.9893  -52.3500  -23.9488 N.am    1  UNL1       -0.2766
     31 H         -63.3570  -52.6732  -23.1819 H       1  UNL1        0.1553
     32 C         -62.5752  -48.4056  -25.9285 C.3     1  UNL1        0.0345
     33 C         -62.1975  -49.0131  -24.6111 C.ar    1  UNL1        0.0202
     34 C         -62.6630  -50.2110  -24.0570 C.ar    1  UNL1        0.1946
     35 O         -62.1007  -50.4125  -22.8785 O.2     1  UNL1       -0.4492
     36 C         -61.2940  -49.4075  -22.6399 C.ar    1  UNL1        0.1452
     37 C         -60.5011  -49.2105  -21.5148 C.ar    1  UNL1        0.0375
     38 C         -59.7057  -48.0529  -21.4622 C.ar    1  UNL1        0.0031
     39 C         -59.7141  -47.1140  -22.5290 C.ar    1  UNL1        0.0002
     40 C         -60.5356  -47.3528  -23.6569 C.ar    1  UNL1        0.0028
     41 C         -61.3121  -48.5124  -23.6758 C.ar    1  UNL1        0.0337
     42 C         -58.8696  -45.8944  -22.4621 C.ar    1  UNL1        0.0000
     43 C         -59.4529  -44.6149  -22.5328 C.ar    1  UNL1        0.0000
     44 C         -58.6551  -43.4684  -22.4706 C.ar    1  UNL1        0.0000
     45 C         -57.2699  -43.5845  -22.3365 C.ar    1  UNL1        0.0000
     46 C         -56.6791  -44.8481  -22.2649 C.ar    1  UNL1        0.0000
     47 C         -57.4718  -45.9981  -22.3276 C.ar    1  UNL1        0.0000
@<TRIPOS>BOND
     1    32    33    1
     2    33    34   ar
     3    34    28    1
     4    28    29    2
     5    28    30   am
     6    30     1    1
     7     1     2   ar
     8     2     3   ar
     9     3     4   ar
    10     4     7    1
    11     7     8    1
    12     8     9    1
    13     9    10    1
    14    10    13    1
    15    13    14    1
    16    14    15    1
    17    15    16   ar
    18    16    17   ar
    19    17    18   ar
    20    18    19   ar
    21    19    21    1
    22    21    22    2
    23    21    23    1
    24    19    20   ar
    25    20    25    1
    26    25    26    1
    27    10    11    1
    28    11    12    1
    29     4     5   ar
    30     5     6   ar
    31    34    35   ar
    32    35    36   ar
    33    36    37   ar
    34    37    38   ar
    35    38    39   ar
    36    39    42    1
    37    42    43   ar
    38    43    44   ar
    39    44    45   ar
    40    45    46   ar
    41    46    47   ar
    42    39    40   ar
    43    40    41   ar
    44    41    33   ar
    45     6     1   ar
    46    41    36   ar
    47    12     7    1
    48    47    42   ar
    49    20    15   ar
    50    30    31    1
    51    23    24    1
    52    26    27    1
@<TRIPOS>MOLECULE
*****
 47 52 0 0 0
SMALL
GASTEIGER

@<TRIPOS>ATOM
      1 C         -62.6196  -41.0556  -20.7050 C.ar    1  UNL1        0.0702
      2 C         -61.4098  -41.4985  -20.1581 C.ar    1  UNL1        0.0191
      3 C         -60.7292  -42.5735  -20.7315 C.ar    1  UNL1        0.0356
      4 C         -61.2756  -43.2242  -21.8512 C.ar    1  UNL1        0.1318
      5 N         -62.4652  -42.7873  -22.3525 N.ar    1  UNL1       -0.2279
      6 C         -63.1429  -41.7397  -21.8136 C.ar    1  UNL1        0.1149
      7 N         -60.6023  -44.3389  -22.4758 N.pl3   1  UNL1       -0.2932
      8 C         -59.1395  -44.3116  -22.6289 C.3     1  UNL1        0.0923
      9 C         -58.5773  -45.7323  -22.5404 C.3     1  UNL1        0.0252
     10 C         -59.1830  -46.6739  -23.6141 C.3     1  UNL1        0.0471
     11 C         -60.5709  -46.2017  -24.1153 C.3     1  UNL1        0.0252
     12 C         -61.3703  -45.4664  -23.0325 C.3     1  UNL1        0.0923
     13 C         -59.2463  -48.1217  -23.0998 C.3     1  UNL1        0.2054
     14 O         -60.4146  -48.7636  -23.6075 O.3     1  UNL1       -0.4757
     15 C         -60.7414  -50.1168  -23.4141 C.ar    1  UNL1        0.1371
     16 C         -59.7970  -51.0236  -22.9012 C.ar    1  UNL1        0.0367
     17 C         -60.1332  -52.3572  -22.7014 C.ar    1  UNL1        0.0033
     18 C         -61.4093  -52.8127  -23.0142 C.ar    1  UNL1        0.0064
     19 C         -62.3792  -51.9432  -23.5422 C.ar    1  UNL1        0.0768
     20 C         -62.0459  -50.5685  -23.7395 C.ar    1  UNL1        0.0472
     21 C         -63.7153  -52.5191  -23.8532 C.2     1  UNL1        0.3379
     22 O         -64.2170  -52.4254  -25.0045 O.2     1  UNL1       -0.2451
     23 O         -64.4168  -53.2096  -22.8676 O.3     1  UNL1       -0.4771
     24 H         -65.3222  -53.6199  -23.0634 H       1  UNL1        0.2954
     25 C         -63.0687  -49.5716  -24.2492 C.3     1  UNL1        0.1668
     26 O         -62.4869  -48.7573  -25.2296 O.3     1  UNL1       -0.3771
     27 H         -63.1739  -48.0838  -25.4736 H       1  UNL1        0.2109
     28 C         -63.0927  -38.5786  -20.4107 C.2     1  UNL1        0.2839
     29 O         -62.0762  -38.2401  -21.0746 O.2     1  UNL1       -0.2665
     30 N         -63.3202  -39.9606  -20.0899 N.am    1  UNL1       -0.2766
     31 H         -63.9728  -40.1804  -19.3036 H       1  UNL1        0.1553
     32 C         -66.2818  -38.5781  -20.7313 C.3     1  UNL1        0.0345
     33 C         -65.4246  -37.5461  -20.0621 C.ar    1  UNL1        0.0202
     34 C         -64.0319  -37.5498  -19.9249 C.ar    1  UNL1        0.1946
     35 O         -63.6391  -36.4697  -19.2731 O.2     1  UNL1       -0.4492
     36 C         -64.7051  -35.7655  -18.9810 C.ar    1  UNL1        0.1452
     37 C         -64.7559  -34.5553  -18.2983 C.ar    1  UNL1        0.0375
     38 C         -66.0155  -33.9675  -18.0895 C.ar    1  UNL1        0.0031
     39 C         -67.1996  -34.5944  -18.5635 C.ar    1  UNL1        0.0002
     40 C         -67.1036  -35.8262  -19.2545 C.ar    1  UNL1        0.0028
     41 C         -65.8370  -36.3810  -19.4442 C.ar    1  UNL1        0.0337
     42 C         -68.5249  -33.9640  -18.3368 C.ar    1  UNL1        0.0000
     43 C         -68.6456  -32.8266  -17.5157 C.ar    1  UNL1        0.0000
     44 C         -69.8949  -32.2359  -17.3033 C.ar    1  UNL1        0.0000
     45 C         -71.0352  -32.7708  -17.9065 C.ar    1  UNL1        0.0000
     46 C         -70.9287  -33.8986  -18.7234 C.ar    1  UNL1        0.0000
     47 C         -69.6821  -34.4942  -18.9386 C.ar    1  UNL1        0.0000
@<TRIPOS>BOND
     1    32    33    1
     2    33    34   ar
     3    34    28    1
     4    28    29    2
     5    28    30   am
     6    30     1    1
     7     1     2   ar
     8     2     3   ar
     9     3     4   ar
    10     4     7    1
    11     7     8    1
    12     8     9    1
    13     9    10    1
    14    10    13    1
    15    13    14    1
    16    14    15    1
    17    15    16   ar
    18    16    17   ar
    19    17    18   ar
    20    18    19   ar
    21    19    21    1
    22    21    22    2
    23    21    23    1
    24    19    20   ar
    25    20    25    1
    26    25    26    1
    27    10    11    1
    28    11    12    1
    29     4     5   ar
    30     5     6   ar
    31    34    35   ar
    32    35    36   ar
    33    36    37   ar
    34    37    38   ar
    35    38    39   ar
    36    39    42    1
    37    42    43   ar
    38    43    44   ar
    39    44    45   ar
    40    45    46   ar
    41    46    47   ar
    42    39    40   ar
    43    40    41   ar
    44    41    33   ar
    45     6     1   ar
    46    41    36   ar
    47    12     7    1
    48    47    42   ar
    49    20    15   ar
    50    30    31    1
    51    23    24    1
    52    26    27    1
@<TRIPOS>MOLECULE
*****
 47 52 0 0 0
SMALL
GASTEIGER

@<TRIPOS>ATOM
      1 C         -65.7745  -53.2510  -23.7853 C.ar    1  UNL1        0.0702
      2 C         -65.8788  -54.2367  -24.7734 C.ar    1  UNL1        0.0191
      3 C         -67.0674  -54.9501  -24.9342 C.ar    1  UNL1        0.0356
      4 C         -68.1555  -54.6879  -24.0839 C.ar    1  UNL1        0.1318
      5 N         -68.0222  -53.7378  -23.1159 N.ar    1  UNL1       -0.2279
      6 C         -66.8761  -53.0277  -22.9443 C.ar    1  UNL1        0.1149
      7 N         -69.4038  -55.4019  -24.2182 N.pl3   1  UNL1       -0.2932
      8 C         -69.4470  -56.8477  -23.9500 C.3     1  UNL1        0.0923
      9 C         -70.8147  -57.2341  -23.3822 C.3     1  UNL1        0.0252
     10 C         -71.9771  -56.8600  -24.3387 C.3     1  UNL1        0.0471
     11 C         -71.6117  -55.7086  -25.3089 C.3     1  UNL1        0.0252
     12 C         -70.6162  -54.7152  -24.6972 C.3     1  UNL1        0.0923
     13 C         -73.2531  -56.5290  -23.5468 C.3     1  UNL1        0.2054
     14 O         -73.0733  -56.8759  -22.1749 O.3     1  UNL1       -0.4757
     15 C         -73.5466  -56.1272  -21.0837 C.ar    1  UNL1        0.1371
     16 C         -74.8911  -56.2069  -20.6795 C.ar    1  UNL1        0.0367
     17 C         -75.3471  -55.4725  -19.5914 C.ar    1  UNL1        0.0033
     18 C         -74.4776  -54.6425  -18.8921 C.ar    1  UNL1        0.0064
     19 C         -73.1294  -54.5225  -19.2710 C.ar    1  UNL1        0.0768
     20 C         -72.6496  -55.2827  -20.3808 C.ar    1  UNL1        0.0472
     21 C         -72.2740  -53.6064  -18.4694 C.2     1  UNL1        0.3379
     22 O         -71.6276  -54.0201  -17.4710 O.2     1  UNL1       -0.2451
     23 O         -72.1505  -52.2707  -18.8448 O.3     1  UNL1       -0.4771
     24 H         -71.5630  -51.6342  -18.3194 H       1  UNL1        0.2954
     25 C         -71.1923  -55.2402  -20.7983 C.3     1  UNL1        0.1668
     26 O         -70.3806  -55.6138  -19.7192 O.3     1  UNL1       -0.3771
     27 H         -69.4434  -55.4998  -20.0253 H       1  UNL1        0.2109
     28 C         -63.9954  -51.6265  -24.5864 C.2     1  UNL1        0.2839
     29 O         -64.4604  -51.5950  -25.7574 O.2     1  UNL1       -0.2665
     30 N         -64.5360  -52.5397  -23.6175 N.am    1  UNL1       -0.2766
     31 H         -63.9548  -52.7652  -22.7787 H       1  UNL1        0.1553
     32 C         -63.9105  -48.4256  -24.7283 C.3     1  UNL1        0.0345
     33 C         -62.8241  -49.3553  -24.2781 C.ar    1  UNL1        0.0202
     34 C         -62.8649  -50.7529  -24.2184 C.ar    1  UNL1        0.1946
     35 O         -61.7142  -51.2200  -23.7676 O.2     1  UNL1       -0.4492
     36 C         -60.9289  -50.1974  -23.5323 C.ar    1  UNL1        0.1452
     37 C         -59.6261  -50.2280  -23.0473 C.ar    1  UNL1        0.0375
     38 C         -58.9605  -49.0034  -22.8653 C.ar    1  UNL1        0.0031
     39 C         -59.6031  -47.7728  -23.1691 C.ar    1  UNL1        0.0002
     40 C         -60.9303  -47.7860  -23.6614 C.ar    1  UNL1        0.0028
     41 C         -61.5607  -49.0199  -23.8301 C.ar    1  UNL1        0.0337
     42 C         -58.8899  -46.4852  -22.9725 C.ar    1  UNL1        0.0000
     43 C         -59.5859  -45.2633  -23.0432 C.ar    1  UNL1        0.0000
     44 C         -58.9115  -44.0525  -22.8587 C.ar    1  UNL1        0.0000
     45 C         -57.5389  -44.0465  -22.6014 C.ar    1  UNL1        0.0000
     46 C         -56.8372  -45.2519  -22.5285 C.ar    1  UNL1        0.0000
     47 C         -57.5061  -46.4657  -22.7131 C.ar    1  UNL1        0.0000
@<TRIPOS>BOND
     1    32    33    1
     2    33    34   ar
     3    34    28    1
     4    28    29    2
     5    28    30   am
     6    30     1    1
     7     1     2   ar
     8     2     3   ar
     9     3     4   ar
    10     4     7    1
    11     7     8    1
    12     8     9    1
    13     9    10    1
    14    10    13    1
    15    13    14    1
    16    14    15    1
    17    15    16   ar
    18    16    17   ar
    19    17    18   ar
    20    18    19   ar
    21    19    21    1
    22    21    22    2
    23    21    23    1
    24    19    20   ar
    25    20    25    1
    26    25    26    1
    27    10    11    1
    28    11    12    1
    29     4     5   ar
    30     5     6   ar
    31    34    35   ar
    32    35    36   ar
    33    36    37   ar
    34    37    38   ar
    35    38    39   ar
    36    39    42    1
    37    42    43   ar
    38    43    44   ar
    39    44    45   ar
    40    45    46   ar
    41    46    47   ar
    42    39    40   ar
    43    40    41   ar
    44    41    33   ar
    45     6     1   ar
    46    41    36   ar
    47    12     7    1
    48    47    42   ar
    49    20    15   ar
    50    30    31    1
    51    23    24    1
    52    26    27    1
@<TRIPOS>MOLECULE
*****
 47 52 0 0 0
SMALL
GASTEIGER

@<TRIPOS>ATOM
      1 C         -62.5348  -41.1175  -20.3230 C.ar    1  UNL1        0.0702
      2 C         -63.0494  -41.7434  -21.4642 C.ar    1  UNL1        0.0191
      3 C         -62.3924  -42.8407  -22.0226 C.ar    1  UNL1        0.0356
      4 C         -61.1975  -43.3031  -21.4445 C.ar    1  UNL1        0.1318
      5 N         -60.7057  -42.6638  -20.3460 N.ar    1  UNL1       -0.2279
      6 C         -61.3311  -41.5967  -19.7825 C.ar    1  UNL1        0.1149
      7 N         -60.4878  -44.4367  -21.9899 N.pl3   1  UNL1       -0.2932
      8 C         -60.6072  -45.7508  -21.3397 C.3     1  UNL1        0.0923
      9 C         -60.5011  -46.8636  -22.3850 C.3     1  UNL1        0.0252
     10 C         -59.1666  -46.8064  -23.1735 C.3     1  UNL1        0.0471
     11 C         -58.5335  -45.3924  -23.1840 C.3     1  UNL1        0.0252
     12 C         -59.5837  -44.2755  -23.1421 C.3     1  UNL1        0.0923
     13 C         -59.3529  -47.3372  -24.6047 C.3     1  UNL1        0.2054
     14 O         -60.5527  -46.8060  -25.1642 O.3     1  UNL1       -0.4757
     15 C         -61.7007  -47.5554  -25.4733 C.ar    1  UNL1        0.1371
     16 C         -62.4332  -48.2072  -24.4652 C.ar    1  UNL1        0.0367
     17 C         -63.5744  -48.9354  -24.7789 C.ar    1  UNL1        0.0033
     18 C         -64.0023  -49.0339  -26.0984 C.ar    1  UNL1        0.0064
     19 C         -63.2920  -48.4099  -27.1384 C.ar    1  UNL1        0.0768
     20 C         -62.1247  -47.6496  -26.8235 C.ar    1  UNL1        0.0472
     21 C         -63.8193  -48.5744  -28.5198 C.2     1  UNL1        0.3379
     22 O         -63.8050  -49.6933  -29.0974 O.2     1  UNL1       -0.2451
     23 O         -64.3757  -47.4824  -29.1819 O.3     1  UNL1       -0.4771
     24 H         -64.7515  -47.5770  -30.1179 H       1  UNL1        0.2954
     25 C         -61.3523  -46.9050  -27.8954 C.3     1  UNL1        0.1668
     26 O         -60.0941  -47.4965  -28.0680 O.3     1  UNL1       -0.3771
     27 H         -59.6095  -46.9304  -28.7236 H       1  UNL1        0.2109
     28 C         -63.1217  -38.6474  -20.3159 C.2     1  UNL1        0.2839
     29 O         -62.2332  -38.3683  -21.1651 O.2     1  UNL1       -0.2665
     30 N         -63.2114  -39.9744  -19.7720 N.am    1  UNL1       -0.2766
     31 H         -63.7309  -40.1021  -18.8741 H       1  UNL1        0.1553
     32 C         -66.3111  -38.6147  -20.6323 C.3     1  UNL1        0.0345
     33 C         -65.4408  -37.5817  -19.9820 C.ar    1  UNL1        0.0202
     34 C         -64.0480  -37.5994  -19.8467 C.ar    1  UNL1        0.1946
     35 O         -63.6414  -36.5131  -19.2140 O.2     1  UNL1       -0.4492
     36 C         -64.6986  -35.7914  -18.9325 C.ar    1  UNL1        0.1452
     37 C         -64.7341  -34.5692  -18.2706 C.ar    1  UNL1        0.0375
     38 C         -65.9864  -33.9631  -18.0702 C.ar    1  UNL1        0.0031
     39 C         -67.1784  -34.5839  -18.5318 C.ar    1  UNL1        0.0002
     40 C         -67.0981  -35.8284  -19.2018 C.ar    1  UNL1        0.0028
     41 C         -65.8384  -36.4013  -19.3836 C.ar    1  UNL1        0.0337
     42 C         -68.4958  -33.9341  -18.3142 C.ar    1  UNL1        0.0000
     43 C         -68.6100  -32.8117  -17.4719 C.ar    1  UNL1        0.0000
     44 C         -69.8520  -32.2026  -17.2681 C.ar    1  UNL1        0.0000
     45 C         -70.9912  -32.7041  -17.9012 C.ar    1  UNL1        0.0000
     46 C         -70.8911  -33.8168  -18.7394 C.ar    1  UNL1        0.0000
     47 C         -69.6520  -34.4306  -18.9461 C.ar    1  UNL1        0.0000
@<TRIPOS>BOND
     1    32    33    1
     2    33    34   ar
     3    34    28    1
     4    28    29    2
     5    28    30   am
     6    30     1    1
     7     1     2   ar
     8     2     3   ar
     9     3     4   ar
    10     4     7    1
    11     7     8    1
    12     8     9    1
    13     9    10    1
    14    10    13    1
    15    13    14    1
    16    14    15    1
    17    15    16   ar
    18    16    17   ar
    19    17    18   ar
    20    18    19   ar
    21    19    21    1
    22    21    22    2
    23    21    23    1
    24    19    20   ar
    25    20    25    1
    26    25    26    1
    27    10    11    1
    28    11    12    1
    29     4     5   ar
    30     5     6   ar
    31    34    35   ar
    32    35    36   ar
    33    36    37   ar
    34    37    38   ar
    35    38    39   ar
    36    39    42    1
    37    42    43   ar
    38    43    44   ar
    39    44    45   ar
    40    45    46   ar
    41    46    47   ar
    42    39    40   ar
    43    40    41   ar
    44    41    33   ar
    45     6     1   ar
    46    41    36   ar
    47    12     7    1
    48    47    42   ar
    49    20    15   ar
    50    30    31    1
    51    23    24    1
    52    26    27    1
@<TRIPOS>MOLECULE
*****
 47 52 0 0 0
SMALL
GASTEIGER

@<TRIPOS>ATOM
      1 C         -64.1140  -51.4986  -24.0402 C.ar    1  UNL1        0.0702
      2 C         -64.0164  -50.2783  -24.7186 C.ar    1  UNL1        0.0191
      3 C         -62.9976  -49.3775  -24.4050 C.ar    1  UNL1        0.0356
      4 C         -62.0798  -49.6931  -23.3884 C.ar    1  UNL1        0.1318
      5 N         -62.2084  -50.8784  -22.7283 N.ar    1  UNL1       -0.2279
      6 C         -63.1894  -51.7727  -23.0200 C.ar    1  UNL1        0.1149
      7 N         -61.0097  -48.7898  -23.0346 N.pl3   1  UNL1       -0.2932
      8 C         -59.7875  -48.7546  -23.8526 C.3     1  UNL1        0.0923
      9 C         -59.1978  -47.3423  -23.8521 C.3     1  UNL1        0.0252
     10 C         -58.8661  -46.8425  -22.4217 C.3     1  UNL1        0.0471
     11 C         -59.7007  -47.5533  -21.3268 C.3     1  UNL1        0.0252
     12 C         -61.0948  -47.9611  -21.8194 C.3     1  UNL1        0.0923
     13 C         -59.0187  -45.3153  -22.3260 C.3     1  UNL1        0.2054
     14 O         -60.3900  -44.9789  -22.1239 O.3     1  UNL1       -0.4757
     15 C         -61.0992  -44.0078  -22.8513 C.ar    1  UNL1        0.1371
     16 C         -61.1858  -44.0734  -24.2533 C.ar    1  UNL1        0.0367
     17 C         -61.9001  -43.1157  -24.9632 C.ar    1  UNL1        0.0033
     18 C         -62.5333  -42.0744  -24.2933 C.ar    1  UNL1        0.0064
     19 C         -62.4603  -41.9632  -22.8941 C.ar    1  UNL1        0.0768
     20 C         -61.7383  -42.9498  -22.1557 C.ar    1  UNL1        0.0472
     21 C         -63.1628  -40.8135  -22.2632 C.2     1  UNL1        0.3379
     22 O         -64.4198  -40.7379  -22.2562 O.2     1  UNL1       -0.2451
     23 O         -62.4250  -39.8142  -21.6329 O.3     1  UNL1       -0.4771
     24 H         -62.8854  -39.0298  -21.1865 H       1  UNL1        0.2954
     25 C         -61.6754  -42.9156  -20.6409 C.3     1  UNL1        0.1668
     26 O         -60.4061  -42.4877  -20.2303 O.3     1  UNL1       -0.3771
     27 H         -60.3990  -42.5526  -19.2400 H       1  UNL1        0.2109
     28 C         -65.5238  -53.5567  -23.5682 C.2     1  UNL1        0.2839
     29 O         -64.7326  -53.9737  -22.6801 O.2     1  UNL1       -0.2665
     30 N         -65.1822  -52.4068  -24.3594 N.am    1  UNL1       -0.2766
     31 H         -65.6845  -52.2685  -25.2656 H       1  UNL1        0.1553
     32 C         -68.3281  -53.1126  -22.0811 C.3     1  UNL1        0.0345
     33 C         -68.0133  -54.0828  -23.1797 C.ar    1  UNL1        0.0202
     34 C         -66.7868  -54.2742  -23.8260 C.ar    1  UNL1        0.1946
     35 O         -66.9014  -55.2188  -24.7426 O.2     1  UNL1       -0.4492
     36 C         -68.1387  -55.6504  -24.7238 C.ar    1  UNL1        0.1452
     37 C         -68.6994  -56.6401  -25.5234 C.ar    1  UNL1        0.0375
     38 C         -70.0581  -56.9483  -25.3372 C.ar    1  UNL1        0.0031
     39 C         -70.8324  -56.2667  -24.3597 C.ar    1  UNL1        0.0002
     40 C         -70.2226  -55.2656  -23.5659 C.ar    1  UNL1        0.0028
     41 C         -68.8717  -54.9857  -23.7776 C.ar    1  UNL1        0.0337
     42 C         -72.2671  -56.6007  -24.1721 C.ar    1  UNL1        0.0000
     43 C         -73.1026  -56.8195  -25.2841 C.ar    1  UNL1        0.0000
     44 C         -74.4533  -57.1329  -25.1043 C.ar    1  UNL1        0.0000
     45 C         -74.9847  -57.2323  -23.8167 C.ar    1  UNL1        0.0000
     46 C         -74.1663  -57.0178  -22.7054 C.ar    1  UNL1        0.0000
     47 C         -72.8151  -56.7032  -22.8791 C.ar    1  UNL1        0.0000
@<TRIPOS>BOND
     1    32    33    1
     2    33    34   ar
     3    34    28    1
     4    28    29    2
     5    28    30   am
     6    30     1    1
     7     1     2   ar
     8     2     3   ar
     9     3     4   ar
    10     4     7    1
    11     7     8    1
    12     8     9    1
    13     9    10    1
    14    10    13    1
    15    13    14    1
    16    14    15    1
    17    15    16   ar
    18    16    17   ar
    19    17    18   ar
    20    18    19   ar
    21    19    21    1
    22    21    22    2
    23    21    23    1
    24    19    20   ar
    25    20    25    1
    26    25    26    1
    27    10    11    1
    28    11    12    1
    29     4     5   ar
    30     5     6   ar
    31    34    35   ar
    32    35    36   ar
    33    36    37   ar
    34    37    38   ar
    35    38    39   ar
    36    39    42    1
    37    42    43   ar
    38    43    44   ar
    39    44    45   ar
    40    45    46   ar
    41    46    47   ar
    42    39    40   ar
    43    40    41   ar
    44    41    33   ar
    45     6     1   ar
    46    41    36   ar
    47    12     7    1
    48    47    42   ar
    49    20    15   ar
    50    30    31    1
    51    23    24    1
    52    26    27    1
@<TRIPOS>MOLECULE
*****
 47 52 0 0 0
SMALL
GASTEIGER

@<TRIPOS>ATOM
      1 C         -62.6253  -41.0343  -20.2750 C.ar    1  UNL1        0.0702
      2 C         -63.0909  -41.6137  -21.4610 C.ar    1  UNL1        0.0191
      3 C         -62.4297  -42.7102  -22.0161 C.ar    1  UNL1        0.0356
      4 C         -61.2795  -43.2187  -21.3885 C.ar    1  UNL1        0.1318
      5 N         -60.8340  -42.6240  -20.2460 N.ar    1  UNL1       -0.2279
      6 C         -61.4645  -41.5586  -19.6850 C.ar    1  UNL1        0.1149
      7 N         -60.5674  -44.3531  -21.9289 N.pl3   1  UNL1       -0.2932
      8 C         -60.9015  -45.7090  -21.4664 C.3     1  UNL1        0.0923
      9 C         -60.6874  -46.7160  -22.5988 C.3     1  UNL1        0.0252
     10 C         -59.2298  -46.7052  -23.1294 C.3     1  UNL1        0.0471
     11 C         -58.5027  -45.3629  -22.8649 C.3     1  UNL1        0.0252
     12 C         -59.4569  -44.1623  -22.8783 C.3     1  UNL1        0.0923
     13 C         -59.1880  -47.0694  -24.6229 C.3     1  UNL1        0.2054
     14 O         -60.5149  -47.1267  -25.1431 O.3     1  UNL1       -0.4757
     15 C         -60.9047  -46.6706  -26.4140 C.ar    1  UNL1        0.1371
     16 C         -60.1033  -45.7692  -27.1370 C.ar    1  UNL1        0.0367
     17 C         -60.4907  -45.3336  -28.3986 C.ar    1  UNL1        0.0033
     18 C         -61.6824  -45.7803  -28.9589 C.ar    1  UNL1        0.0064
     19 C         -62.5200  -46.6704  -28.2648 C.ar    1  UNL1        0.0768
     20 C         -62.1238  -47.1324  -26.9728 C.ar    1  UNL1        0.0472
     21 C         -63.7784  -47.0897  -28.9388 C.2     1  UNL1        0.3379
     22 O         -63.8881  -48.2245  -29.4735 O.2     1  UNL1       -0.2451
     23 O         -64.8748  -46.2307  -28.9518 O.3     1  UNL1       -0.4771
     24 H         -65.7445  -46.5029  -29.3946 H       1  UNL1        0.2954
     25 C         -62.9565  -48.1390  -26.2027 C.3     1  UNL1        0.1668
     26 O         -63.0957  -47.7186  -24.8734 O.3     1  UNL1       -0.3771
     27 H         -63.5840  -48.4437  -24.4034 H       1  UNL1        0.2109
     28 C         -63.2300  -38.5684  -20.2833 C.2     1  UNL1        0.2839
     29 O         -62.3523  -38.2904  -21.1441 O.2     1  UNL1       -0.2665
     30 N         -63.3044  -39.8912  -19.7270 N.am    1  UNL1       -0.2766
     31 H         -63.8137  -40.0148  -18.8227 H       1  UNL1        0.1553
     32 C         -66.4177  -38.5346  -20.6165 C.3     1  UNL1        0.0345
     33 C         -65.5510  -37.5048  -19.9562 C.ar    1  UNL1        0.0202
     34 C         -64.1590  -37.5230  -19.8136 C.ar    1  UNL1        0.1946
     35 O         -63.7560  -36.4400  -19.1731 O.2     1  UNL1       -0.4492
     36 C         -64.8148  -35.7199  -18.8936 C.ar    1  UNL1        0.1452
     37 C         -64.8541  -34.5011  -18.2255 C.ar    1  UNL1        0.0375
     38 C         -66.1075  -33.8962  -18.0287 C.ar    1  UNL1        0.0031
     39 C         -67.2970  -34.5149  -18.4998 C.ar    1  UNL1        0.0002
     40 C         -67.2128  -35.7559  -19.1758 C.ar    1  UNL1        0.0028
     41 C         -65.9520  -36.3276  -19.3538 C.ar    1  UNL1        0.0337
     42 C         -68.6157  -33.8665  -18.2858 C.ar    1  UNL1        0.0000
     43 C         -69.7763  -34.3887  -18.8879 C.ar    1  UNL1        0.0000
     44 C         -71.0164  -33.7754  -18.6854 C.ar    1  UNL1        0.0000
     45 C         -71.1130  -32.6376  -17.8814 C.ar    1  UNL1        0.0000
     46 C         -69.9691  -32.1100  -17.2783 C.ar    1  UNL1        0.0000
     47 C         -68.7262  -32.7185  -17.4780 C.ar    1  UNL1        0.0000
@<TRIPOS>BOND
     1    32    33    1
     2    33    34   ar
     3    34    28    1
     4    28    29    2
     5    28    30   am
     6    30     1    1
     7     1     2   ar
     8     2     3   ar
     9     3     4   ar
    10     4     7    1
    11     7     8    1
    12     8     9    1
    13     9    10    1
    14    10    13    1
    15    13    14    1
    16    14    15    1
    17    15    16   ar
    18    16    17   ar
    19    17    18   ar
    20    18    19   ar
    21    19    21    1
    22    21    22    2
    23    21    23    1
    24    19    20   ar
    25    20    25    1
    26    25    26    1
    27    10    11    1
    28    11    12    1
    29     4     5   ar
    30     5     6   ar
    31    34    35   ar
    32    35    36   ar
    33    36    37   ar
    34    37    38   ar
    35    38    39   ar
    36    39    42    1
    37    42    43   ar
    38    43    44   ar
    39    44    45   ar
    40    45    46   ar
    41    46    47   ar
    42    39    40   ar
    43    40    41   ar
    44    41    33   ar
    45     6     1   ar
    46    41    36   ar
    47    12     7    1
    48    47    42   ar
    49    20    15   ar
    50    30    31    1
    51    23    24    1
    52    26    27    1
@<TRIPOS>MOLECULE
*****
 47 52 0 0 0
SMALL
GASTEIGER

@<TRIPOS>ATOM
      1 C         -62.5982  -40.8731  -20.3414 C.ar    1  UNL1        0.0702
      2 C         -61.2781  -41.1283  -19.9526 C.ar    1  UNL1        0.0191
      3 C         -60.5890  -42.2235  -20.4753 C.ar    1  UNL1        0.0356
      4 C         -61.2348  -43.0829  -21.3808 C.ar    1  UNL1        0.1318
      5 N         -62.5272  -42.8249  -21.7278 N.ar    1  UNL1       -0.2279
      6 C         -63.2160  -41.7619  -21.2352 C.ar    1  UNL1        0.1149
      7 N         -60.5567  -44.2258  -21.9467 N.pl3   1  UNL1       -0.2932
      8 C         -61.0867  -45.5772  -21.7083 C.3     1  UNL1        0.0923
      9 C         -60.7923  -46.4749  -22.9124 C.3     1  UNL1        0.0252
     10 C         -59.2747  -46.5711  -23.2188 C.3     1  UNL1        0.0471
     11 C         -58.4749  -45.3551  -22.6878 C.3     1  UNL1        0.0252
     12 C         -59.2970  -44.0605  -22.6928 C.3     1  UNL1        0.0923
     13 C         -59.0318  -46.7758  -24.7234 C.3     1  UNL1        0.2054
     14 O         -60.2124  -46.4451  -25.4524 O.3     1  UNL1       -0.4757
     15 C         -60.2356  -45.8608  -26.7304 C.ar    1  UNL1        0.1371
     16 C         -59.7196  -46.5416  -27.8473 C.ar    1  UNL1        0.0367
     17 C         -59.7584  -45.9609  -29.1094 C.ar    1  UNL1        0.0033
     18 C         -60.3034  -44.6932  -29.2811 C.ar    1  UNL1        0.0064
     19 C         -60.8173  -43.9720  -28.1895 C.ar    1  UNL1        0.0768
     20 C         -60.7922  -44.5661  -26.8910 C.ar    1  UNL1        0.0472
     21 C         -61.3748  -42.6206  -28.4659 C.2     1  UNL1        0.3379
     22 O         -62.4845  -42.4755  -29.0432 O.2     1  UNL1       -0.2451
     23 O         -60.6800  -41.4878  -28.0485 O.3     1  UNL1       -0.4771
     24 H         -61.0491  -40.5593  -28.2161 H       1  UNL1        0.2954
     25 C         -61.3862  -43.8613  -25.6868 C.3     1  UNL1        0.1668
     26 O         -62.4052  -44.6481  -25.1339 O.3     1  UNL1       -0.3771
     27 H         -62.8025  -44.1110  -24.4000 H       1  UNL1        0.2109
     28 C         -63.2135  -38.4106  -20.2814 C.2     1  UNL1        0.2839
     29 O         -62.3058  -38.0981  -21.0980 O.2     1  UNL1       -0.2665
     30 N         -63.3024  -39.7533  -19.7773 N.am    1  UNL1       -0.2766
     31 H         -63.8443  -39.9118  -18.8978 H       1  UNL1        0.1553
     32 C         -66.4004  -38.4382  -20.6216 C.3     1  UNL1        0.0345
     33 C         -65.5558  -37.3949  -19.9540 C.ar    1  UNL1        0.0202
     34 C         -64.1640  -37.3863  -19.8083 C.ar    1  UNL1        0.1946
     35 O         -63.7840  -36.2988  -19.1614 O.2     1  UNL1       -0.4492
     36 C         -64.8575  -35.6013  -18.8805 C.ar    1  UNL1        0.1452
     37 C         -64.9224  -34.3870  -18.2063 C.ar    1  UNL1        0.0375
     38 C         -66.1880  -33.8082  -18.0092 C.ar    1  UNL1        0.0031
     39 C         -67.3639  -34.4478  -18.4862 C.ar    1  UNL1        0.0002
     40 C         -67.2537  -35.6834  -19.1684 C.ar    1  UNL1        0.0028
     41 C         -65.9814  -36.2291  -19.3465 C.ar    1  UNL1        0.0337
     42 C         -68.6957  -33.8268  -18.2719 C.ar    1  UNL1        0.0000
     43 C         -68.8331  -32.6949  -17.4459 C.ar    1  UNL1        0.0000
     44 C         -70.0885  -32.1129  -17.2452 C.ar    1  UNL1        0.0000
     45 C         -71.2182  -32.6513  -17.8651 C.ar    1  UNL1        0.0000
     46 C         -71.0950  -33.7737  -18.6870 C.ar    1  UNL1        0.0000
     47 C         -69.8424  -34.3605  -18.8906 C.ar    1  UNL1        0.0000
@<TRIPOS>BOND
     1    32    33    1
     2    33    34   ar
     3    34    28    1
     4    28    29    2
     5    28    30   am
     6    30     1    1
     7     1     2   ar
     8     2     3   ar
     9     3     4   ar
    10     4     7    1
    11     7     8    1
    12     8     9    1
    13     9    10    1
    14    10    13    1
    15    13    14    1
    16    14    15    1
    17    15    16   ar
    18    16    17   ar
    19    17    18   ar
    20    18    19   ar
    21    19    21    1
    22    21    22    2
    23    21    23    1
    24    19    20   ar
    25    20    25    1
    26    25    26    1
    27    10    11    1
    28    11    12    1
    29     4     5   ar
    30     5     6   ar
    31    34    35   ar
    32    35    36   ar
    33    36    37   ar
    34    37    38   ar
    35    38    39   ar
    36    39    42    1
    37    42    43   ar
    38    43    44   ar
    39    44    45   ar
    40    45    46   ar
    41    46    47   ar
    42    39    40   ar
    43    40    41   ar
    44    41    33   ar
    45     6     1   ar
    46    41    36   ar
    47    12     7    1
    48    47    42   ar
    49    20    15   ar
    50    30    31    1
    51    23    24    1
    52    26    27    1
