@<TRIPOS>MOLECULE
*****
 45 51 0 0 0
SMALL
GASTEIGER

@<TRIPOS>ATOM
      1 C         -30.6874   48.3629   -8.1963 C.3     1  UNL1        0.0817
      2 C         -31.1309   49.3314   -7.0794 C.3     1  UNL1        0.0252
      3 C         -30.1704   50.5348   -7.1388 C.3     1  UNL1        0.0278
      4 C         -29.0643   50.0643   -8.0089 C.ar    1  UNL1       -0.0248
      5 C         -27.8576   50.7215   -8.2497 C.ar    1  UNL1       -0.0045
      6 C         -26.8851   50.0949   -9.0566 C.ar    1  UNL1       -0.0002
      7 C         -27.1721   48.8360   -9.6347 C.ar    1  UNL1       -0.0003
      8 C         -28.4041   48.2077   -9.3991 C.ar    1  UNL1       -0.0033
      9 C         -29.3308   48.8392   -8.5679 C.ar    1  UNL1       -0.0117
     10 C         -31.0977   45.8806   -8.5368 C.3     1  UNL1        0.1158
     11 N         -31.0358   44.6941   -7.8835 N.3     1  UNL1       -0.2851
     12 C         -30.5889   45.0371   -6.6668 C.3     1  UNL1        0.0910
     13 C         -30.3387   44.1844   -5.6043 C.3     1  UNL1        0.1018
     14 C         -29.8455   44.7548   -4.4238 C.3     1  UNL1        0.3136
     15 N         -29.6090   46.1099   -4.3322 N.am    1  UNL1       -0.1294
     16 C         -29.9334   46.9494   -5.3797 C.2     1  UNL1        0.4047
     17 O         -29.8199   48.1966   -5.2567 O.2     1  UNL1       -0.2174
     18 C         -30.3992   46.3829   -6.5783 C.3     1  UNL1        0.2038
     19 N         -30.7164   46.9474   -7.7713 N.3     1  UNL1       -0.2473
     20 H         -30.3874   44.0560   -8.3448 H       1  UNL1        0.1244
     21 C         -30.4600   45.6414  -10.9387 C.3     1  UNL1        0.0029
     22 C         -31.5829   45.9612   -9.9581 C.3     1  UNL1        0.0326
     23 C         -29.0342   46.6445   -3.0821 C.3     1  UNL1        0.3394
     24 C         -27.5834   46.2317   -2.9075 C.ar    1  UNL1        0.0505
     25 C         -27.3048   44.9344   -2.4385 C.ar    1  UNL1        0.0021
     26 C         -25.9882   44.5049   -2.2682 C.ar    1  UNL1       -0.0001
     27 C         -24.9297   45.3608   -2.5648 C.ar    1  UNL1       -0.0003
     28 C         -25.1831   46.6522   -3.0282 C.ar    1  UNL1       -0.0044
     29 C         -26.5024   47.1103   -3.1906 C.ar    1  UNL1       -0.0193
     30 C         -26.7175   48.4987   -3.7334 C.3     1  UNL1        0.0309
     31 C         -25.5899   50.7663   -9.3309 C.ar    1  UNL1        0.0030
     32 C         -24.6295   50.7957   -8.3058 C.ar    1  UNL1       -0.0002
     33 C         -23.3598   51.3267   -8.5284 C.ar    1  UNL1       -0.0043
     34 C         -23.0115   51.8371   -9.7859 C.ar    1  UNL1       -0.0224
     35 C         -23.9690   51.8231  -10.8149 C.ar    1  UNL1       -0.0012
     36 C         -25.2610   51.3121  -10.6009 C.ar    1  UNL1        0.0368
     37 C         -26.2346   51.4008  -11.7155 C.ar    1  UNL1        0.1805
     38 N         -25.9142   51.2586  -13.0160 N.ar    1  UNL1       -0.1084
     39 N         -27.0476   51.4593  -13.6739 N.ar    1  UNL1       -0.0229
     40 N         -28.0243   51.7266  -12.8204 N.ar    1  UNL1       -0.0464
     41 N         -27.5386   51.6995  -11.5931 N.ar    1  UNL1       -0.2388
     42 H         -28.0802   51.9080  -10.7283 H       1  UNL1        0.1923
     43 C         -21.6223   52.4038  -10.0153 C.3     1  UNL1        0.0224
     44 C         -20.8175   52.4425   -8.7105 C.3     1  UNL1        0.0047
     45 C         -20.8772   51.6177  -11.1005 C.3     1  UNL1        0.0047
@<TRIPOS>BOND
     1    21    22    1
     2    22    10    1
     3    10    11    1
     4    11    12    1
     5    12    13    1
     6    13    14    1
     7    14    15    1
     8    15    23    1
     9    23    24    1
    10    24    25   ar
    11    25    26   ar
    12    26    27   ar
    13    27    28   ar
    14    28    29   ar
    15    29    30    1
    16    15    16    1
    17    16    17    2
    18    16    18    1
    19    18    19    1
    20    19     1    1
    21     1     2    1
    22     2     3    1
    23     3     4    1
    24     4     5   ar
    25     5     6   ar
    26     6    31    1
    27    31    32   ar
    28    32    33   ar
    29    33    34   ar
    30    34    43    1
    31    43    44    1
    32    43    45    1
    33    34    35   ar
    34    35    36   ar
    35    36    37    1
    36    37    38   ar
    37    38    39   ar
    38    39    40   ar
    39    40    41   ar
    40     6     7   ar
    41     7     8   ar
    42     8     9   ar
    43    19    10    1
    44     9     1    1
    45    18    12    1
    46     9     4   ar
    47    29    24   ar
    48    36    31   ar
    49    41    37   ar
    50    41    42    1
    51    11    20    1
@<TRIPOS>MOLECULE
*****
 45 51 0 0 0
SMALL
GASTEIGER

@<TRIPOS>ATOM
      1 C         -30.6694   47.9610   -9.3263 C.3     1  UNL1        0.0817
      2 C         -31.5653   49.2080   -9.1697 C.3     1  UNL1        0.0252
      3 C         -30.6996   50.4195   -9.5662 C.3     1  UNL1        0.0278
      4 C         -29.3188   49.8766   -9.5922 C.ar    1  UNL1       -0.0248
      5 C         -28.1396   50.6076   -9.7382 C.ar    1  UNL1       -0.0045
      6 C         -26.9027   49.9329   -9.6737 C.ar    1  UNL1       -0.0002
      7 C         -26.8883   48.5285   -9.5039 C.ar    1  UNL1       -0.0003
      8 C         -28.0889   47.8125   -9.3865 C.ar    1  UNL1       -0.0033
      9 C         -29.2948   48.5149   -9.4200 C.ar    1  UNL1       -0.0117
     10 C         -31.2284   45.6882   -8.3426 C.3     1  UNL1        0.1158
     11 N         -31.3097   45.0343   -7.1575 N.3     1  UNL1       -0.2851
     12 C         -30.9455   45.9678   -6.2667 C.3     1  UNL1        0.0910
     13 C         -30.8506   45.8118   -4.8937 C.3     1  UNL1        0.1018
     14 C         -30.4208   46.9174   -4.1486 C.3     1  UNL1        0.3136
     15 N         -30.0949   48.1075   -4.7635 N.am    1  UNL1       -0.1294
     16 C         -30.2659   48.2616   -6.1252 C.2     1  UNL1        0.4047
     17 O         -30.0729   49.3792   -6.6703 O.2     1  UNL1       -0.2174
     18 C         -30.6667   47.1491   -6.8845 C.3     1  UNL1        0.2038
     19 N         -30.8379   46.9929   -8.2220 N.3     1  UNL1       -0.2473
     20 H         -30.6722   44.2383   -7.1345 H       1  UNL1        0.1244
     21 C         -30.5037   45.2315  -10.6876 C.3     1  UNL1        0.0029
     22 C         -31.5822   45.0036   -9.6342 C.3     1  UNL1        0.0326
     23 C         -29.5927   49.2188   -3.9319 C.3     1  UNL1        0.3394
     24 C         -28.6764   50.1406   -4.7171 C.ar    1  UNL1        0.0505
     25 C         -27.3496   49.7326   -4.9487 C.ar    1  UNL1        0.0021
     26 C         -26.4707   50.5406   -5.6710 C.ar    1  UNL1       -0.0001
     27 C         -26.9014   51.7660   -6.1750 C.ar    1  UNL1       -0.0003
     28 C         -28.2118   52.1913   -5.9546 C.ar    1  UNL1       -0.0044
     29 C         -29.1083   51.4000   -5.2149 C.ar    1  UNL1       -0.0193
     30 C         -30.5225   51.8890   -5.0431 C.3     1  UNL1        0.0309
     31 C         -25.6295   50.6815   -9.8233 C.ar    1  UNL1        0.0030
     32 C         -24.7376   50.6941   -8.7378 C.ar    1  UNL1       -0.0002
     33 C         -23.4859   51.2983   -8.8458 C.ar    1  UNL1       -0.0043
     34 C         -23.0869   51.9011  -10.0461 C.ar    1  UNL1       -0.0224
     35 C         -23.9764   51.9041  -11.1344 C.ar    1  UNL1       -0.0012
     36 C         -25.2510   51.3193  -11.0353 C.ar    1  UNL1        0.0368
     37 C         -26.1566   51.4292  -12.2039 C.ar    1  UNL1        0.1805
     38 N         -25.7513   51.3636  -13.4868 N.ar    1  UNL1       -0.1084
     39 N         -26.8487   51.5569  -14.2050 N.ar    1  UNL1       -0.0229
     40 N         -27.8858   51.7466  -13.4036 N.ar    1  UNL1       -0.0464
     41 N         -27.4762   51.6753  -12.1506 N.ar    1  UNL1       -0.2388
     42 H         -28.0777   51.8211  -11.3130 H       1  UNL1        0.1923
     43 C         -21.7175   52.5470  -10.1509 C.3     1  UNL1        0.0224
     44 C         -20.7070   51.5994  -10.8087 C.3     1  UNL1        0.0047
     45 C         -21.7923   53.8818  -10.9015 C.3     1  UNL1        0.0047
@<TRIPOS>BOND
     1    21    22    1
     2    22    10    1
     3    10    11    1
     4    11    12    1
     5    12    13    1
     6    13    14    1
     7    14    15    1
     8    15    23    1
     9    23    24    1
    10    24    25   ar
    11    25    26   ar
    12    26    27   ar
    13    27    28   ar
    14    28    29   ar
    15    29    30    1
    16    15    16    1
    17    16    17    2
    18    16    18    1
    19    18    19    1
    20    19     1    1
    21     1     2    1
    22     2     3    1
    23     3     4    1
    24     4     5   ar
    25     5     6   ar
    26     6    31    1
    27    31    32   ar
    28    32    33   ar
    29    33    34   ar
    30    34    43    1
    31    43    44    1
    32    43    45    1
    33    34    35   ar
    34    35    36   ar
    35    36    37    1
    36    37    38   ar
    37    38    39   ar
    38    39    40   ar
    39    40    41   ar
    40     6     7   ar
    41     7     8   ar
    42     8     9   ar
    43    19    10    1
    44     9     1    1
    45    18    12    1
    46     9     4   ar
    47    29    24   ar
    48    36    31   ar
    49    41    37   ar
    50    41    42    1
    51    11    20    1
@<TRIPOS>MOLECULE
*****
 45 51 0 0 0
SMALL
GASTEIGER

@<TRIPOS>ATOM
      1 C         -27.7281   48.8963   -9.0913 C.3     1  UNL1        0.0817
      2 C         -26.1983   48.8488   -8.8928 C.3     1  UNL1        0.0252
      3 C         -25.9592   48.2798   -7.4809 C.3     1  UNL1        0.0278
      4 C         -27.2942   48.3532   -6.8372 C.ar    1  UNL1       -0.0248
      5 C         -27.5856   48.1093   -5.4949 C.ar    1  UNL1       -0.0045
      6 C         -28.9072   48.2907   -5.0367 C.ar    1  UNL1       -0.0002
      7 C         -29.9118   48.6751   -5.9555 C.ar    1  UNL1       -0.0003
      8 C         -29.5984   48.8882   -7.3062 C.ar    1  UNL1       -0.0033
      9 C         -28.2742   48.7335   -7.7200 C.ar    1  UNL1       -0.0117
     10 C         -27.7228   51.3996   -9.5150 C.3     1  UNL1        0.1158
     11 N         -28.3261   52.3506  -10.2701 N.3     1  UNL1       -0.2851
     12 C         -29.1855   51.6466  -11.0206 C.3     1  UNL1        0.0910
     13 C         -30.0507   52.1460  -11.9800 C.3     1  UNL1        0.1018
     14 C         -30.8469   51.2237  -12.6712 C.3     1  UNL1        0.3136
     15 N         -30.7603   49.8725  -12.4114 N.am    1  UNL1       -0.1294
     16 C         -29.9431   49.4050  -11.4011 C.2     1  UNL1        0.4047
     17 O         -29.9456   48.1854  -11.0911 O.2     1  UNL1       -0.2174
     18 C         -29.1181   50.3191  -10.7239 C.3     1  UNL1        0.2038
     19 N         -28.1804   50.1347   -9.7599 N.3     1  UNL1       -0.2473
     20 H         -27.6470   52.8398  -10.8532 H       1  UNL1        0.1244
     21 C         -27.3252   52.1288   -7.1606 C.3     1  UNL1        0.0029
     22 C         -26.6809   51.7633   -8.4932 C.3     1  UNL1        0.0326
     23 C         -31.5824   48.9444  -13.2125 C.3     1  UNL1        0.3394
     24 C         -30.9944   48.7206  -14.5945 C.ar    1  UNL1        0.0505
     25 C         -31.0997   49.7525  -15.5455 C.ar    1  UNL1        0.0021
     26 C         -30.5692   49.5985  -16.8269 C.ar    1  UNL1       -0.0001
     27 C         -29.9241   48.4149  -17.1788 C.ar    1  UNL1       -0.0003
     28 C         -29.8110   47.3777  -16.2525 C.ar    1  UNL1       -0.0044
     29 C         -30.3535   47.5061  -14.9617 C.ar    1  UNL1       -0.0193
     30 C         -30.1661   46.3714  -13.9892 C.3     1  UNL1        0.0309
     31 C         -29.2502   48.0415   -3.6140 C.ar    1  UNL1        0.0030
     32 C         -30.0907   48.9614   -2.9649 C.ar    1  UNL1       -0.0002
     33 C         -30.5265   48.7369   -1.6598 C.ar    1  UNL1       -0.0043
     34 C         -30.1401   47.5809   -0.9686 C.ar    1  UNL1       -0.0224
     35 C         -29.2899   46.6600   -1.6049 C.ar    1  UNL1       -0.0012
     36 C         -28.8230   46.8822   -2.9122 C.ar    1  UNL1        0.0368
     37 C         -27.8716   45.8997   -3.4846 C.ar    1  UNL1        0.1805
     38 N         -28.2139   44.9300   -4.3544 N.ar    1  UNL1       -0.1084
     39 N         -27.0959   44.2510   -4.5706 N.ar    1  UNL1       -0.0229
     40 N         -26.1076   44.7685   -3.8570 N.ar    1  UNL1       -0.0464
     41 N         -26.5701   45.7957   -3.1686 N.ar    1  UNL1       -0.2388
     42 H         -26.0157   46.3668   -2.4968 H       1  UNL1        0.1923
     43 C         -30.6300   47.3462    0.4486 C.3     1  UNL1        0.0224
     44 C         -30.7232   45.8478    0.7613 C.3     1  UNL1        0.0047
     45 C         -29.7406   48.0686    1.4673 C.3     1  UNL1        0.0047
@<TRIPOS>BOND
     1    21    22    1
     2    22    10    1
     3    10    11    1
     4    11    12    1
     5    12    13    1
     6    13    14    1
     7    14    15    1
     8    15    23    1
     9    23    24    1
    10    24    25   ar
    11    25    26   ar
    12    26    27   ar
    13    27    28   ar
    14    28    29   ar
    15    29    30    1
    16    15    16    1
    17    16    17    2
    18    16    18    1
    19    18    19    1
    20    19     1    1
    21     1     2    1
    22     2     3    1
    23     3     4    1
    24     4     5   ar
    25     5     6   ar
    26     6    31    1
    27    31    32   ar
    28    32    33   ar
    29    33    34   ar
    30    34    43    1
    31    43    44    1
    32    43    45    1
    33    34    35   ar
    34    35    36   ar
    35    36    37    1
    36    37    38   ar
    37    38    39   ar
    38    39    40   ar
    39    40    41   ar
    40     6     7   ar
    41     7     8   ar
    42     8     9   ar
    43    19    10    1
    44     9     1    1
    45    18    12    1
    46     9     4   ar
    47    29    24   ar
    48    36    31   ar
    49    41    37   ar
    50    41    42    1
    51    11    20    1
@<TRIPOS>MOLECULE
*****
 45 51 0 0 0
SMALL
GASTEIGER

@<TRIPOS>ATOM
      1 C         -29.3256   49.5097   -6.7385 C.3     1  UNL1        0.0817
      2 C         -29.4850   50.6962   -5.7645 C.3     1  UNL1        0.0252
      3 C         -28.5468   51.8074   -6.2736 C.3     1  UNL1        0.0278
      4 C         -27.6785   51.1161   -7.2586 C.ar    1  UNL1       -0.0248
      5 C         -26.5506   51.6430   -7.8881 C.ar    1  UNL1       -0.0045
      6 C         -25.8001   50.8186   -8.7520 C.ar    1  UNL1       -0.0002
      7 C         -26.2311   49.4925   -8.9911 C.ar    1  UNL1       -0.0003
      8 C         -27.3844   48.9945   -8.3666 C.ar    1  UNL1       -0.0033
      9 C         -28.0848   49.8256   -7.4906 C.ar    1  UNL1       -0.0117
     10 C         -28.8369   47.9801   -4.7719 C.3     1  UNL1        0.1158
     11 N         -28.8935   46.6776   -4.3992 N.3     1  UNL1       -0.2851
     12 C         -29.3975   46.0703   -5.4831 C.3     1  UNL1        0.0910
     13 C         -29.6672   44.7194   -5.6267 C.3     1  UNL1        0.1018
     14 C         -30.2220   44.2996   -6.8425 C.3     1  UNL1        0.3136
     15 N         -30.4976   45.2010   -7.8486 N.am    1  UNL1       -0.1294
     16 C         -30.1539   46.5313   -7.7099 C.2     1  UNL1        0.4047
     17 O         -30.3051   47.3328   -8.6682 O.2     1  UNL1       -0.2174
     18 C         -29.6259   46.9668   -6.4826 C.3     1  UNL1        0.2038
     19 N         -29.2763   48.2041   -6.0470 N.3     1  UNL1       -0.2473
     20 H         -29.5059   46.5542   -3.5929 H       1  UNL1        0.1244
     21 C         -26.7931   48.8754   -3.6520 C.3     1  UNL1        0.0029
     22 C         -28.2977   49.0321   -3.8421 C.3     1  UNL1        0.0326
     23 C         -31.1357   44.7076   -9.0848 C.3     1  UNL1        0.3394
     24 C         -30.6565   45.4684  -10.3084 C.ar    1  UNL1        0.0505
     25 C         -31.5828   46.2577  -11.0152 C.ar    1  UNL1        0.0021
     26 C         -31.1902   46.9816  -12.1417 C.ar    1  UNL1       -0.0001
     27 C         -29.8683   46.9315  -12.5792 C.ar    1  UNL1       -0.0003
     28 C         -28.9342   46.1531  -11.8951 C.ar    1  UNL1       -0.0044
     29 C         -29.3130   45.4028  -10.7680 C.ar    1  UNL1       -0.0193
     30 C         -28.2545   44.6131  -10.0437 C.3     1  UNL1        0.0309
     31 C         -24.5936   51.3479   -9.4360 C.ar    1  UNL1        0.0030
     32 C         -23.4338   51.5512   -8.6695 C.ar    1  UNL1       -0.0002
     33 C         -22.2413   51.9563   -9.2675 C.ar    1  UNL1       -0.0043
     34 C         -22.1726   52.1622  -10.6517 C.ar    1  UNL1       -0.0224
     35 C         -23.3303   51.9728  -11.4261 C.ar    1  UNL1       -0.0012
     36 C         -24.5464   51.5866  -10.8360 C.ar    1  UNL1        0.0368
     37 C         -25.7381   51.4794  -11.7113 C.ar    1  UNL1        0.1805
     38 N         -25.6880   51.4007  -13.0550 N.ar    1  UNL1       -0.1084
     39 N         -26.9546   51.3728  -13.4459 N.ar    1  UNL1       -0.0229
     40 N         -27.7543   51.4439  -12.3927 N.ar    1  UNL1       -0.0464
     41 N         -27.0165   51.5153  -11.3002 N.ar    1  UNL1       -0.2388
     42 H         -27.3861   51.6147  -10.3315 H       1  UNL1        0.1923
     43 C         -20.8649   52.5945  -11.2894 C.3     1  UNL1        0.0224
     44 C         -20.3408   53.8888  -10.6556 C.3     1  UNL1        0.0047
     45 C         -19.8169   51.4780  -11.2118 C.3     1  UNL1        0.0047
@<TRIPOS>BOND
     1    21    22    1
     2    22    10    1
     3    10    11    1
     4    11    12    1
     5    12    13    1
     6    13    14    1
     7    14    15    1
     8    15    23    1
     9    23    24    1
    10    24    25   ar
    11    25    26   ar
    12    26    27   ar
    13    27    28   ar
    14    28    29   ar
    15    29    30    1
    16    15    16    1
    17    16    17    2
    18    16    18    1
    19    18    19    1
    20    19     1    1
    21     1     2    1
    22     2     3    1
    23     3     4    1
    24     4     5   ar
    25     5     6   ar
    26     6    31    1
    27    31    32   ar
    28    32    33   ar
    29    33    34   ar
    30    34    43    1
    31    43    44    1
    32    43    45    1
    33    34    35   ar
    34    35    36   ar
    35    36    37    1
    36    37    38   ar
    37    38    39   ar
    38    39    40   ar
    39    40    41   ar
    40     6     7   ar
    41     7     8   ar
    42     8     9   ar
    43    19    10    1
    44     9     1    1
    45    18    12    1
    46     9     4   ar
    47    29    24   ar
    48    36    31   ar
    49    41    37   ar
    50    41    42    1
    51    11    20    1
@<TRIPOS>MOLECULE
*****
 45 51 0 0 0
SMALL
GASTEIGER

@<TRIPOS>ATOM
      1 C         -29.1112   50.4433   -6.8517 C.3     1  UNL1        0.0817
      2 C         -28.3704   51.6688   -7.4272 C.3     1  UNL1        0.0252
      3 C         -28.6620   51.6838   -8.9402 C.3     1  UNL1        0.0278
      4 C         -29.2357   50.3412   -9.2050 C.ar    1  UNL1       -0.0248
      5 C         -29.5183   49.7884  -10.4544 C.ar    1  UNL1       -0.0045
      6 C         -30.0023   48.4654  -10.5247 C.ar    1  UNL1       -0.0002
      7 C         -30.2281   47.7464   -9.3275 C.ar    1  UNL1       -0.0003
      8 C         -29.9614   48.3342   -8.0820 C.ar    1  UNL1       -0.0033
      9 C         -29.4506   49.6329   -8.0489 C.ar    1  UNL1       -0.0117
     10 C         -26.9837   49.3854   -5.9568 C.3     1  UNL1        0.1158
     11 N         -26.5075   48.6939   -4.8921 N.3     1  UNL1       -0.2851
     12 C         -27.5773   48.5902   -4.0906 C.3     1  UNL1        0.0910
     13 C         -27.6288   47.9729   -2.8518 C.3     1  UNL1        0.1018
     14 C         -28.8503   48.0054   -2.1669 C.3     1  UNL1        0.3136
     15 N         -29.9512   48.6382   -2.7036 N.am    1  UNL1       -0.1294
     16 C         -29.8959   49.1842   -3.9709 C.2     1  UNL1        0.4047
     17 O         -30.9294   49.6648   -4.5044 O.2     1  UNL1       -0.2174
     18 C         -28.6669   49.1837   -4.6522 C.3     1  UNL1        0.2038
     19 N         -28.3086   49.7064   -5.8526 N.3     1  UNL1       -0.2473
     20 H         -25.7538   49.2044   -4.4319 H       1  UNL1        0.1244
     21 C         -25.6751   48.4408   -7.8616 C.3     1  UNL1        0.0029
     22 C         -26.1016   49.7093   -7.1312 C.3     1  UNL1        0.0326
     23 C         -31.1943   48.6896   -1.9094 C.3     1  UNL1        0.3394
     24 C         -31.2520   47.5743   -0.8806 C.ar    1  UNL1        0.0505
     25 C         -31.5104   46.2636   -1.3232 C.ar    1  UNL1        0.0021
     26 C         -31.5663   45.2030   -0.4181 C.ar    1  UNL1       -0.0001
     27 C         -31.3633   45.4325    0.9410 C.ar    1  UNL1       -0.0003
     28 C         -31.1086   46.7245    1.4019 C.ar    1  UNL1       -0.0044
     29 C         -31.0650   47.8094    0.5087 C.ar    1  UNL1       -0.0193
     30 C         -30.7451   49.1759    1.0556 C.3     1  UNL1        0.0309
     31 C         -30.3111   47.8470  -11.8384 C.ar    1  UNL1        0.0030
     32 C         -31.1021   48.5749  -12.7432 C.ar    1  UNL1       -0.0002
     33 C         -31.3501   48.0924  -14.0274 C.ar    1  UNL1       -0.0043
     34 C         -30.8074   46.8706  -14.4466 C.ar    1  UNL1       -0.0224
     35 C         -30.0243   46.1290  -13.5452 C.ar    1  UNL1       -0.0012
     36 C         -29.7831   46.5901  -12.2392 C.ar    1  UNL1        0.0368
     37 C         -29.0088   45.7146  -11.3271 C.ar    1  UNL1        0.1805
     38 N         -29.5602   44.9075  -10.4005 N.ar    1  UNL1       -0.1084
     39 N         -28.5331   44.3488   -9.7753 N.ar    1  UNL1       -0.0229
     40 N         -27.3958   44.7990  -10.2831 N.ar    1  UNL1       -0.0464
     41 N         -27.6690   45.6555  -11.2498 N.ar    1  UNL1       -0.2388
     42 H         -26.9613   46.1876  -11.7983 H       1  UNL1        0.1923
     43 C         -31.0791   46.3628  -15.8508 C.3     1  UNL1        0.0224
     44 C         -30.5127   47.3211  -16.9056 C.3     1  UNL1        0.0047
     45 C         -30.5291   44.9444  -16.0414 C.3     1  UNL1        0.0047
@<TRIPOS>BOND
     1    21    22    1
     2    22    10    1
     3    10    11    1
     4    11    12    1
     5    12    13    1
     6    13    14    1
     7    14    15    1
     8    15    23    1
     9    23    24    1
    10    24    25   ar
    11    25    26   ar
    12    26    27   ar
    13    27    28   ar
    14    28    29   ar
    15    29    30    1
    16    15    16    1
    17    16    17    2
    18    16    18    1
    19    18    19    1
    20    19     1    1
    21     1     2    1
    22     2     3    1
    23     3     4    1
    24     4     5   ar
    25     5     6   ar
    26     6    31    1
    27    31    32   ar
    28    32    33   ar
    29    33    34   ar
    30    34    43    1
    31    43    44    1
    32    43    45    1
    33    34    35   ar
    34    35    36   ar
    35    36    37    1
    36    37    38   ar
    37    38    39   ar
    38    39    40   ar
    39    40    41   ar
    40     6     7   ar
    41     7     8   ar
    42     8     9   ar
    43    19    10    1
    44     9     1    1
    45    18    12    1
    46     9     4   ar
    47    29    24   ar
    48    36    31   ar
    49    41    37   ar
    50    41    42    1
    51    11    20    1
@<TRIPOS>MOLECULE
*****
 45 51 0 0 0
SMALL
GASTEIGER

@<TRIPOS>ATOM
      1 C         -29.9501   48.2881   -7.3936 C.3     1  UNL1        0.0817
      2 C         -29.4810   49.7583   -7.4128 C.3     1  UNL1        0.0252
      3 C         -29.6590   50.2539   -8.8610 C.3     1  UNL1        0.0278
      4 C         -29.8783   49.0091   -9.6384 C.ar    1  UNL1       -0.0248
      5 C         -29.9319   48.8940  -11.0276 C.ar    1  UNL1       -0.0045
      6 C         -30.0829   47.6155  -11.6040 C.ar    1  UNL1       -0.0002
      7 C         -30.2171   46.4876  -10.7607 C.ar    1  UNL1       -0.0003
      8 C         -30.1868   46.6330   -9.3657 C.ar    1  UNL1       -0.0033
      9 C         -30.0015   47.9079   -8.8282 C.ar    1  UNL1       -0.0117
     10 C         -27.7864   47.0574   -6.8933 C.3     1  UNL1        0.1158
     11 N         -27.2186   46.2370   -5.9752 N.3     1  UNL1       -0.2851
     12 C         -28.1846   46.0892   -5.0572 C.3     1  UNL1        0.0910
     13 C         -28.1143   45.3442   -3.8917 C.3     1  UNL1        0.1018
     14 C         -29.2379   45.3503   -3.0552 C.3     1  UNL1        0.3136
     15 N         -30.3622   46.0799   -3.3781 N.am    1  UNL1       -0.1294
     16 C         -30.4361   46.7570   -4.5794 C.2     1  UNL1        0.4047
     17 O         -31.5011   47.3323   -4.9233 O.2     1  UNL1       -0.2174
     18 C         -29.3029   46.7819   -5.4100 C.3     1  UNL1        0.2038
     19 N         -29.0694   47.4169   -6.5869 N.3     1  UNL1       -0.2473
     20 H         -26.3879   46.6649   -5.5663 H       1  UNL1        0.1244
     21 C         -25.8417   48.3455   -7.7831 C.3     1  UNL1        0.0029
     22 C         -27.0411   47.4715   -8.1323 C.3     1  UNL1        0.0326
     23 C         -31.4928   46.0938   -2.4290 C.3     1  UNL1        0.3394
     24 C         -31.1370   46.8124   -1.1396 C.ar    1  UNL1        0.0505
     25 C         -30.7642   48.1678   -1.2055 C.ar    1  UNL1        0.0021
     26 C         -30.4352   48.8743   -0.0481 C.ar    1  UNL1       -0.0001
     27 C         -30.4750   48.2413    1.1924 C.ar    1  UNL1       -0.0003
     28 C         -30.8390   46.8973    1.2805 C.ar    1  UNL1       -0.0044
     29 C         -31.1577   46.1629    0.1247 C.ar    1  UNL1       -0.0193
     30 C         -31.5838   44.7269    0.2825 C.3     1  UNL1        0.0309
     31 C         -30.1417   47.4581  -13.0789 C.ar    1  UNL1        0.0030
     32 C         -30.0911   46.1577  -13.6084 C.ar    1  UNL1       -0.0002
     33 C         -30.2362   45.9349  -14.9769 C.ar    1  UNL1       -0.0043
     34 C         -30.4440   47.0068  -15.8550 C.ar    1  UNL1       -0.0224
     35 C         -30.4845   48.3128  -15.3369 C.ar    1  UNL1       -0.0012
     36 C         -30.3173   48.5569  -13.9625 C.ar    1  UNL1        0.0368
     37 C         -30.2999   49.9674  -13.5064 C.ar    1  UNL1        0.1805
     38 N         -29.1784   50.6823  -13.2937 N.ar    1  UNL1       -0.1084
     39 N         -29.5988   51.8588  -12.8500 N.ar    1  UNL1       -0.0229
     40 N         -30.9211   51.8686  -12.7786 N.ar    1  UNL1       -0.0464
     41 N         -31.3794   50.6972  -13.1795 N.ar    1  UNL1       -0.2388
     42 H         -32.3825   50.4174  -13.1928 H       1  UNL1        0.1923
     43 C         -30.6091   46.7475  -17.3413 C.3     1  UNL1        0.0224
     44 C         -29.7214   47.6848  -18.1690 C.3     1  UNL1        0.0047
     45 C         -30.3285   45.2789  -17.6804 C.3     1  UNL1        0.0047
@<TRIPOS>BOND
     1    21    22    1
     2    22    10    1
     3    10    11    1
     4    11    12    1
     5    12    13    1
     6    13    14    1
     7    14    15    1
     8    15    23    1
     9    23    24    1
    10    24    25   ar
    11    25    26   ar
    12    26    27   ar
    13    27    28   ar
    14    28    29   ar
    15    29    30    1
    16    15    16    1
    17    16    17    2
    18    16    18    1
    19    18    19    1
    20    19     1    1
    21     1     2    1
    22     2     3    1
    23     3     4    1
    24     4     5   ar
    25     5     6   ar
    26     6    31    1
    27    31    32   ar
    28    32    33   ar
    29    33    34   ar
    30    34    43    1
    31    43    44    1
    32    43    45    1
    33    34    35   ar
    34    35    36   ar
    35    36    37    1
    36    37    38   ar
    37    38    39   ar
    38    39    40   ar
    39    40    41   ar
    40     6     7   ar
    41     7     8   ar
    42     8     9   ar
    43    19    10    1
    44     9     1    1
    45    18    12    1
    46     9     4   ar
    47    29    24   ar
    48    36    31   ar
    49    41    37   ar
    50    41    42    1
    51    11    20    1
@<TRIPOS>MOLECULE
*****
 45 51 0 0 0
SMALL
GASTEIGER

@<TRIPOS>ATOM
      1 C         -30.1301   50.3133  -11.2869 C.3     1  UNL1        0.0817
      2 C         -30.6865   50.4585   -9.8546 C.3     1  UNL1        0.0252
      3 C         -29.5842   51.1464   -9.0262 C.3     1  UNL1        0.0278
      4 C         -28.3799   51.0507   -9.8878 C.ar    1  UNL1       -0.0248
      5 C         -27.0724   51.3810   -9.5305 C.ar    1  UNL1       -0.0045
      6 C         -26.0328   51.1642  -10.4587 C.ar    1  UNL1       -0.0002
      7 C         -26.3451   50.6566  -11.7417 C.ar    1  UNL1       -0.0003
      8 C         -27.6717   50.3575  -12.0863 C.ar    1  UNL1       -0.0033
      9 C         -28.6724   50.5513  -11.1326 C.ar    1  UNL1       -0.0117
     10 C         -30.8206   47.8708  -11.2270 C.3     1  UNL1        0.1158
     11 N         -31.0428   46.8093  -12.0409 N.3     1  UNL1       -0.2851
     12 C         -30.8101   47.3068  -13.2639 C.3     1  UNL1        0.0910
     13 C         -30.9067   46.6282  -14.4676 C.3     1  UNL1        0.1018
     14 C         -30.6449   47.3527  -15.6376 C.3     1  UNL1        0.3136
     15 N         -30.3162   48.6906  -15.5883 N.am    1  UNL1       -0.1294
     16 C         -30.1557   49.3277  -14.3736 C.2     1  UNL1        0.4047
     17 O         -29.7499   50.5179  -14.3258 O.2     1  UNL1       -0.2174
     18 C         -30.4464   48.6176  -13.1963 C.3     1  UNL1        0.2038
     19 N         -30.4498   49.0045  -11.8952 N.3     1  UNL1       -0.2473
     20 H         -32.0042   46.4792  -11.9572 H       1  UNL1        0.1244
     21 C         -30.1262   46.5741   -9.2098 C.3     1  UNL1        0.0029
     22 C         -30.9490   47.7459   -9.7337 C.3     1  UNL1        0.0326
     23 C         -30.1083   49.4149  -16.8576 C.3     1  UNL1        0.3394
     24 C         -28.6707   49.3129  -17.3355 C.ar    1  UNL1        0.0505
     25 C         -27.7176   50.1955  -16.7941 C.ar    1  UNL1        0.0021
     26 C         -26.3823   50.1371  -17.1951 C.ar    1  UNL1       -0.0001
     27 C         -25.9766   49.1969  -18.1398 C.ar    1  UNL1       -0.0003
     28 C         -26.9055   48.3141  -18.6917 C.ar    1  UNL1       -0.0044
     29 C         -28.2587   48.3676  -18.3139 C.ar    1  UNL1       -0.0193
     30 C         -29.2098   47.3637  -18.9106 C.3     1  UNL1        0.0309
     31 C         -24.6305   51.5031  -10.1092 C.ar    1  UNL1        0.0030
     32 C         -23.8541   52.1772  -11.0668 C.ar    1  UNL1       -0.0002
     33 C         -22.5620   52.6071  -10.7680 C.ar    1  UNL1       -0.0043
     34 C         -22.0117   52.3819   -9.4993 C.ar    1  UNL1       -0.0224
     35 C         -22.7758   51.6980   -8.5379 C.ar    1  UNL1       -0.0012
     36 C         -24.0717   51.2377   -8.8300 C.ar    1  UNL1        0.0368
     37 C         -24.7829   50.4615   -7.7863 C.ar    1  UNL1        0.1805
     38 N         -24.9676   49.1279   -7.8262 N.ar    1  UNL1       -0.1084
     39 N         -25.6839   48.8469   -6.7466 N.ar    1  UNL1       -0.0229
     40 N         -25.9427   49.9580   -6.0741 N.ar    1  UNL1       -0.0464
     41 N         -25.3936   50.9782   -6.7070 N.ar    1  UNL1       -0.2388
     42 H         -25.4693   51.9757   -6.4173 H       1  UNL1        0.1923
     43 C         -20.6070   52.8639   -9.1863 C.3     1  UNL1        0.0224
     44 C         -20.1896   52.4683   -7.7647 C.3     1  UNL1        0.0047
     45 C         -19.6016   52.3456  -10.2213 C.3     1  UNL1        0.0047
@<TRIPOS>BOND
     1    21    22    1
     2    22    10    1
     3    10    11    1
     4    11    12    1
     5    12    13    1
     6    13    14    1
     7    14    15    1
     8    15    23    1
     9    23    24    1
    10    24    25   ar
    11    25    26   ar
    12    26    27   ar
    13    27    28   ar
    14    28    29   ar
    15    29    30    1
    16    15    16    1
    17    16    17    2
    18    16    18    1
    19    18    19    1
    20    19     1    1
    21     1     2    1
    22     2     3    1
    23     3     4    1
    24     4     5   ar
    25     5     6   ar
    26     6    31    1
    27    31    32   ar
    28    32    33   ar
    29    33    34   ar
    30    34    43    1
    31    43    44    1
    32    43    45    1
    33    34    35   ar
    34    35    36   ar
    35    36    37    1
    36    37    38   ar
    37    38    39   ar
    38    39    40   ar
    39    40    41   ar
    40     6     7   ar
    41     7     8   ar
    42     8     9   ar
    43    19    10    1
    44     9     1    1
    45    18    12    1
    46     9     4   ar
    47    29    24   ar
    48    36    31   ar
    49    41    37   ar
    50    41    42    1
    51    11    20    1
@<TRIPOS>MOLECULE
*****
 45 51 0 0 0
SMALL
GASTEIGER

@<TRIPOS>ATOM
      1 C         -30.5526   48.6031  -10.4940 C.3     1  UNL1        0.0817
      2 C         -31.3571   49.9011  -10.2704 C.3     1  UNL1        0.0252
      3 C         -30.3567   51.0643  -10.4139 C.3     1  UNL1        0.0278
      4 C         -29.0304   50.4006  -10.3667 C.ar    1  UNL1       -0.0248
      5 C         -27.7871   51.0291  -10.2931 C.ar    1  UNL1       -0.0045
      6 C         -26.6242   50.2378  -10.1888 C.ar    1  UNL1       -0.0002
      7 C         -26.7427   48.8282  -10.2026 C.ar    1  UNL1       -0.0003
      8 C         -28.0027   48.2198  -10.3047 C.ar    1  UNL1       -0.0033
      9 C         -29.1361   49.0319  -10.3716 C.ar    1  UNL1       -0.0117
     10 C         -31.2648   46.2460   -9.8751 C.3     1  UNL1        0.1158
     11 N         -31.5716   45.4761   -8.8019 N.3     1  UNL1       -0.2851
     12 C         -31.4053   46.3123   -7.7672 C.3     1  UNL1        0.0910
     13 C         -31.5839   46.0176   -6.4256 C.3     1  UNL1        0.1018
     14 C         -31.3267   47.0393   -5.5025 C.3     1  UNL1        0.3136
     15 N         -30.9014   48.2834   -5.9173 N.am    1  UNL1       -0.1294
     16 C         -30.7996   48.5756   -7.2632 C.2     1  UNL1        0.4047
     17 O         -30.5174   49.7414   -7.6436 O.2     1  UNL1       -0.2174
     18 C         -31.0255   47.5483   -8.1950 C.3     1  UNL1        0.2038
     19 N         -30.9244   47.5293   -9.5485 N.3     1  UNL1       -0.2473
     20 H         -30.9404   44.6778   -8.7321 H       1  UNL1        0.1244
     21 C         -29.9922   45.7837  -11.9726 C.3     1  UNL1        0.0029
     22 C         -31.3443   45.6979  -11.2734 C.3     1  UNL1        0.0326
     23 C         -30.5906   49.3016   -4.8947 C.3     1  UNL1        0.3394
     24 C         -29.5329   48.8160   -3.9195 C.ar    1  UNL1        0.0505
     25 C         -28.2324   48.5773   -4.4014 C.ar    1  UNL1        0.0021
     26 C         -27.2234   48.1372   -3.5439 C.ar    1  UNL1       -0.0001
     27 C         -27.4949   47.9307   -2.1930 C.ar    1  UNL1       -0.0003
     28 C         -28.7780   48.1583   -1.6946 C.ar    1  UNL1       -0.0044
     29 C         -29.8128   48.5855   -2.5451 C.ar    1  UNL1       -0.0193
     30 C         -31.1679   48.8555   -1.9456 C.3     1  UNL1        0.0309
     31 C         -25.2862   50.8754  -10.1068 C.ar    1  UNL1        0.0030
     32 C         -24.5372   50.9968  -11.2894 C.ar    1  UNL1       -0.0002
     33 C         -23.3158   51.6687  -11.2982 C.ar    1  UNL1       -0.0043
     34 C         -22.8115   52.2456  -10.1251 C.ar    1  UNL1       -0.0224
     35 C         -23.5474   52.1196   -8.9342 C.ar    1  UNL1       -0.0012
     36 C         -24.7698   51.4259   -8.9030 C.ar    1  UNL1        0.0368
     37 C         -25.4476   51.2751   -7.5932 C.ar    1  UNL1        0.1805
     38 N         -25.1337   50.3360   -6.6800 N.ar    1  UNL1       -0.1084
     39 N         -25.9998   50.5132   -5.6920 N.ar    1  UNL1       -0.0229
     40 N         -26.8221   51.5091   -5.9850 N.ar    1  UNL1       -0.0464
     41 N         -26.4984   51.9963   -7.1685 N.ar    1  UNL1       -0.2388
     42 H         -27.0019   52.7642   -7.6599 H       1  UNL1        0.1923
     43 C         -21.4845   52.9817  -10.1526 C.3     1  UNL1        0.0224
     44 C         -20.6890   52.7377   -8.8644 C.3     1  UNL1        0.0047
     45 C         -20.6644   52.5962  -11.3894 C.3     1  UNL1        0.0047
@<TRIPOS>BOND
     1    21    22    1
     2    22    10    1
     3    10    11    1
     4    11    12    1
     5    12    13    1
     6    13    14    1
     7    14    15    1
     8    15    23    1
     9    23    24    1
    10    24    25   ar
    11    25    26   ar
    12    26    27   ar
    13    27    28   ar
    14    28    29   ar
    15    29    30    1
    16    15    16    1
    17    16    17    2
    18    16    18    1
    19    18    19    1
    20    19     1    1
    21     1     2    1
    22     2     3    1
    23     3     4    1
    24     4     5   ar
    25     5     6   ar
    26     6    31    1
    27    31    32   ar
    28    32    33   ar
    29    33    34   ar
    30    34    43    1
    31    43    44    1
    32    43    45    1
    33    34    35   ar
    34    35    36   ar
    35    36    37    1
    36    37    38   ar
    37    38    39   ar
    38    39    40   ar
    39    40    41   ar
    40     6     7   ar
    41     7     8   ar
    42     8     9   ar
    43    19    10    1
    44     9     1    1
    45    18    12    1
    46     9     4   ar
    47    29    24   ar
    48    36    31   ar
    49    41    37   ar
    50    41    42    1
    51    11    20    1
@<TRIPOS>MOLECULE
*****
 45 51 0 0 0
SMALL
GASTEIGER

@<TRIPOS>ATOM
      1 C         -28.4433   49.1011   -3.6014 C.3     1  UNL1        0.0817
      2 C         -26.9540   49.3806   -3.8944 C.3     1  UNL1        0.0252
      3 C         -26.8768   49.8364   -5.3643 C.3     1  UNL1        0.0278
      4 C         -28.2064   49.4790   -5.9177 C.ar    1  UNL1       -0.0248
      5 C         -28.5931   49.5352   -7.2569 C.ar    1  UNL1       -0.0045
      6 C         -29.8831   49.0926   -7.6169 C.ar    1  UNL1       -0.0002
      7 C         -30.7667   48.6418   -6.6083 C.ar    1  UNL1       -0.0003
      8 C         -30.3633   48.6203   -5.2649 C.ar    1  UNL1       -0.0033
      9 C         -29.0681   49.0326   -4.9468 C.ar    1  UNL1       -0.0117
     10 C         -28.0992   46.6498   -3.0366 C.3     1  UNL1        0.1158
     11 N         -28.4707   45.7041   -2.1387 N.3     1  UNL1       -0.2851
     12 C         -29.2750   46.3752   -1.3018 C.3     1  UNL1        0.0910
     13 C         -29.9213   45.8674   -0.1869 C.3     1  UNL1        0.1018
     14 C         -30.6965   46.7567    0.5683 C.3     1  UNL1        0.3136
     15 N         -30.7992   48.0862    0.2183 N.am    1  UNL1       -0.1294
     16 C         -30.2045   48.5538   -0.9371 C.2     1  UNL1        0.4047
     17 O         -30.3881   49.7402   -1.3143 O.2     1  UNL1       -0.2174
     18 C         -29.3998   47.6765   -1.6837 C.3     1  UNL1        0.2038
     19 N         -28.6486   47.8785   -2.7962 N.3     1  UNL1       -0.2473
     20 H         -27.6602   45.3297   -1.6454 H       1  UNL1        0.1244
     21 C         -25.8604   45.7651   -3.6980 C.3     1  UNL1        0.0029
     22 C         -27.1949   46.3138   -4.1904 C.3     1  UNL1        0.0326
     23 C         -31.5835   48.9872    1.0856 C.3     1  UNL1        0.3394
     24 C         -30.9240   49.1807    2.4395 C.ar    1  UNL1        0.0505
     25 C         -30.2773   48.0823    3.0361 C.ar    1  UNL1        0.0021
     26 C         -29.6502   48.2109    4.2759 C.ar    1  UNL1       -0.0001
     27 C         -29.6563   49.4364    4.9386 C.ar    1  UNL1       -0.0003
     28 C         -30.2940   50.5377    4.3668 C.ar    1  UNL1       -0.0044
     29 C         -30.9463   50.4250    3.1264 C.ar    1  UNL1       -0.0193
     30 C         -31.5827   51.6562    2.5367 C.3     1  UNL1        0.0309
     31 C         -30.3249   49.1373   -9.0334 C.ar    1  UNL1        0.0030
     32 C         -31.1896   50.1733   -9.4246 C.ar    1  UNL1       -0.0002
     33 C         -31.5665   50.3272  -10.7580 C.ar    1  UNL1       -0.0043
     34 C         -31.0827   49.4531  -11.7404 C.ar    1  UNL1       -0.0224
     35 C         -30.2264   48.4062  -11.3577 C.ar    1  UNL1       -0.0012
     36 C         -29.8546   48.2233  -10.0143 C.ar    1  UNL1        0.0368
     37 C         -29.0077   47.0524   -9.6831 C.ar    1  UNL1        0.1805
     38 N         -29.3582   46.0836   -8.8154 N.ar    1  UNL1       -0.1084
     39 N         -28.3140   45.2679   -8.7697 N.ar    1  UNL1       -0.0229
     40 N         -27.3542   45.7175   -9.5637 N.ar    1  UNL1       -0.0464
     41 N         -27.7639   46.8322  -10.1404 N.ar    1  UNL1       -0.2388
     42 H         -27.1957   47.4170  -10.7884 H       1  UNL1        0.1923
     43 C         -31.4950   49.6389  -13.1892 C.3     1  UNL1        0.0224
     44 C         -31.5721   51.1257  -13.5569 C.3     1  UNL1        0.0047
     45 C         -30.5510   48.8849  -14.1332 C.3     1  UNL1        0.0047
@<TRIPOS>BOND
     1    21    22    1
     2    22    10    1
     3    10    11    1
     4    11    12    1
     5    12    13    1
     6    13    14    1
     7    14    15    1
     8    15    23    1
     9    23    24    1
    10    24    25   ar
    11    25    26   ar
    12    26    27   ar
    13    27    28   ar
    14    28    29   ar
    15    29    30    1
    16    15    16    1
    17    16    17    2
    18    16    18    1
    19    18    19    1
    20    19     1    1
    21     1     2    1
    22     2     3    1
    23     3     4    1
    24     4     5   ar
    25     5     6   ar
    26     6    31    1
    27    31    32   ar
    28    32    33   ar
    29    33    34   ar
    30    34    43    1
    31    43    44    1
    32    43    45    1
    33    34    35   ar
    34    35    36   ar
    35    36    37    1
    36    37    38   ar
    37    38    39   ar
    38    39    40   ar
    39    40    41   ar
    40     6     7   ar
    41     7     8   ar
    42     8     9   ar
    43    19    10    1
    44     9     1    1
    45    18    12    1
    46     9     4   ar
    47    29    24   ar
    48    36    31   ar
    49    41    37   ar
    50    41    42    1
    51    11    20    1
