@<TRIPOS>MOLECULE
*****
 46 51 0 0 0
SMALL
GASTEIGER

@<TRIPOS>ATOM
      1 C         -63.7451  -51.9331  -24.3219 C.ar    1  UNL1        0.0702
      2 C         -63.2711  -52.5908  -23.1764 C.ar    1  UNL1        0.0191
      3 C         -64.0133  -53.6249  -22.6038 C.ar    1  UNL1        0.0356
      4 C         -65.2461  -53.9931  -23.1702 C.ar    1  UNL1        0.1318
      5 N         -65.6909  -53.3264  -24.2724 N.ar    1  UNL1       -0.2279
      6 C         -64.9851  -52.3168  -24.8465 C.ar    1  UNL1        0.1149
      7 N         -66.0425  -55.0594  -22.6092 N.pl3   1  UNL1       -0.2932
      8 C         -65.8991  -55.4032  -21.1861 C.3     1  UNL1        0.0923
      9 C         -67.2368  -55.8971  -20.6297 C.3     1  UNL1        0.0252
     10 C         -67.7764  -57.1312  -21.3993 C.3     1  UNL1        0.0472
     11 C         -67.2169  -57.2336  -22.8405 C.3     1  UNL1        0.0252
     12 C         -66.9368  -55.8604  -23.4634 C.3     1  UNL1        0.0923
     13 C         -69.3143  -57.1450  -21.4034 C.3     1  UNL1        0.2054
     14 O         -69.8099  -55.8954  -21.8805 O.3     1  UNL1       -0.4755
     15 C         -70.7123  -55.7533  -22.9447 C.ar    1  UNL1        0.1388
     16 C         -71.9792  -56.3656  -22.9460 C.ar    1  UNL1        0.0369
     17 C         -72.8407  -56.1932  -24.0312 C.ar    1  UNL1        0.0033
     18 C         -72.4514  -55.4127  -25.1219 C.ar    1  UNL1        0.0066
     19 C         -71.1895  -54.7931  -25.1380 C.ar    1  UNL1        0.0785
     20 C         -70.3276  -54.9715  -24.0411 C.ar    1  UNL1        0.0433
     21 C         -70.7704  -53.9648  -26.2904 C.2     1  UNL1        0.3381
     22 O         -70.8053  -54.4337  -27.4603 O.2     1  UNL1       -0.2451
     23 O         -70.3328  -52.6575  -26.0932 O.3     1  UNL1       -0.4771
     24 H         -70.0436  -52.0821  -26.8752 H       1  UNL1        0.2954
     25 C         -63.5601  -49.5279  -25.1134 C.2     1  UNL1        0.2839
     26 O         -64.6176  -49.1838  -24.5199 O.2     1  UNL1       -0.2665
     27 N         -63.0219  -50.8469  -24.9261 N.am    1  UNL1       -0.2766
     28 H         -62.0170  -51.0050  -25.1665 H       1  UNL1        0.1553
     29 C         -60.8490  -45.7262  -28.9012 C.ar    1  UNL1        0.0002
     30 C         -60.2009  -45.3708  -27.6875 C.ar    1  UNL1        0.0031
     31 C         -60.5234  -46.0179  -26.4822 C.ar    1  UNL1        0.0375
     32 C         -61.4935  -47.0135  -26.5148 C.ar    1  UNL1        0.1452
     33 O         -61.9314  -47.7308  -25.5090 O.2     1  UNL1       -0.4492
     34 C         -62.8488  -48.5614  -25.9715 C.ar    1  UNL1        0.1946
     35 C         -63.0142  -48.3737  -27.3484 C.ar    1  UNL1        0.0202
     36 C         -63.9472  -49.1039  -28.2667 C.3     1  UNL1        0.0345
     37 C         -62.1271  -47.3662  -27.6761 C.ar    1  UNL1        0.0337
     38 C         -61.8316  -46.7452  -28.8907 C.ar    1  UNL1        0.0028
     39 C         -61.1326  -43.6136  -32.0514 C.ar    1  UNL1       -0.0222
     40 C         -59.8305  -43.7197  -32.5620 C.ar    1  UNL1       -0.0043
     41 C         -58.8733  -44.4841  -31.8925 C.ar    1  UNL1       -0.0003
     42 C         -59.2029  -45.1403  -30.7044 C.ar    1  UNL1       -0.0000
     43 C         -60.4992  -45.0360  -30.1686 C.ar    1  UNL1       -0.0003
     44 C         -61.4585  -44.2636  -30.8498 C.ar    1  UNL1       -0.0043
     45 C         -62.4635  -43.3139  -34.1387 C.3     1  UNL1        0.0050
     46 C         -62.1544  -42.7586  -32.7524 C.3     1  UNL1        0.0264
@<TRIPOS>BOND
     1    45    46    1
     2    46    39    1
     3    39    40   ar
     4    40    41   ar
     5    41    42   ar
     6    42    43   ar
     7    43    29    1
     8    29    30   ar
     9    30    31   ar
    10    31    32   ar
    11    32    33   ar
    12    33    34   ar
    13    34    25    1
    14    25    26    2
    15    25    27   am
    16    27     1    1
    17     1     2   ar
    18     2     3   ar
    19     3     4   ar
    20     4     7    1
    21     7     8    1
    22     8     9    1
    23     9    10    1
    24    10    13    1
    25    13    14    1
    26    14    15    1
    27    15    16   ar
    28    16    17   ar
    29    17    18   ar
    30    18    19   ar
    31    19    21    1
    32    21    22    2
    33    21    23    1
    34    19    20   ar
    35    10    11    1
    36    11    12    1
    37     4     5   ar
    38     5     6   ar
    39    34    35   ar
    40    35    36    1
    41    35    37   ar
    42    37    38   ar
    43    43    44   ar
    44    44    39   ar
    45    38    29   ar
    46    37    32   ar
    47     6     1   ar
    48    12     7    1
    49    20    15   ar
    50    27    28    1
    51    23    24    1
@<TRIPOS>MOLECULE
*****
 46 51 0 0 0
SMALL
GASTEIGER

@<TRIPOS>ATOM
      1 C         -63.9244  -51.9777  -24.2079 C.ar    1  UNL1        0.0702
      2 C         -63.4611  -52.7217  -23.1119 C.ar    1  UNL1        0.0191
      3 C         -64.2658  -53.7117  -22.5457 C.ar    1  UNL1        0.0356
      4 C         -65.5493  -53.9481  -23.0679 C.ar    1  UNL1        0.1318
      5 N         -65.9810  -53.1994  -24.1216 N.ar    1  UNL1       -0.2279
      6 C         -65.2147  -52.2308  -24.6886 C.ar    1  UNL1        0.1149
      7 N         -66.4114  -54.9650  -22.5119 N.pl3   1  UNL1       -0.2932
      8 C         -65.8222  -56.1020  -21.7880 C.3     1  UNL1        0.0923
      9 C         -66.7706  -56.5644  -20.6791 C.3     1  UNL1        0.0252
     10 C         -68.1624  -56.9760  -21.2266 C.3     1  UNL1        0.0472
     11 C         -68.4947  -56.3117  -22.5863 C.3     1  UNL1        0.0252
     12 C         -67.8676  -54.9196  -22.7315 C.3     1  UNL1        0.0923
     13 C         -69.2642  -56.6930  -20.1916 C.3     1  UNL1        0.2054
     14 O         -68.8648  -55.6223  -19.3378 O.3     1  UNL1       -0.4755
     15 C         -68.6895  -55.7359  -17.9509 C.ar    1  UNL1        0.1388
     16 C         -69.7220  -56.1562  -17.0922 C.ar    1  UNL1        0.0369
     17 C         -69.4962  -56.2519  -15.7177 C.ar    1  UNL1        0.0033
     18 C         -68.2451  -55.9316  -15.1859 C.ar    1  UNL1        0.0066
     19 C         -67.2015  -55.5101  -16.0285 C.ar    1  UNL1        0.0785
     20 C         -67.4370  -55.4164  -17.4119 C.ar    1  UNL1        0.0433
     21 C         -65.8735  -55.1690  -15.4720 C.2     1  UNL1        0.3381
     22 O         -65.7541  -54.2395  -14.6285 O.2     1  UNL1       -0.2451
     23 O         -64.7415  -55.8725  -15.8754 O.3     1  UNL1       -0.4771
     24 H         -63.8277  -55.6469  -15.5007 H       1  UNL1        0.2954
     25 C         -63.5914  -49.5818  -24.9790 C.2     1  UNL1        0.2839
     26 O         -64.6261  -49.1783  -24.3828 O.2     1  UNL1       -0.2665
     27 N         -63.1354  -50.9329  -24.8028 N.am    1  UNL1       -0.2766
     28 H         -62.1419  -51.1505  -25.0444 H       1  UNL1        0.1553
     29 C         -60.6493  -45.9220  -28.7341 C.ar    1  UNL1        0.0002
     30 C         -59.9805  -45.6183  -27.5176 C.ar    1  UNL1        0.0031
     31 C         -60.3427  -46.2549  -26.3179 C.ar    1  UNL1        0.0375
     32 C         -61.3727  -47.1881  -26.3589 C.ar    1  UNL1        0.1452
     33 O         -61.8543  -47.8857  -25.3593 O.2     1  UNL1       -0.4492
     34 C         -62.8214  -48.6537  -25.8288 C.ar    1  UNL1        0.1946
     35 C         -62.9747  -48.4438  -27.2039 C.ar    1  UNL1        0.0202
     36 C         -63.9512  -49.1065  -28.1283 C.3     1  UNL1        0.0345
     37 C         -62.0268  -47.4903  -27.5230 C.ar    1  UNL1        0.0337
     38 C         -61.6933  -46.8781  -28.7322 C.ar    1  UNL1        0.0028
     39 C         -60.8451  -43.9023  -31.9512 C.ar    1  UNL1       -0.0222
     40 C         -59.5094  -43.9490  -32.3772 C.ar    1  UNL1       -0.0043
     41 C         -58.5572  -44.6439  -31.6295 C.ar    1  UNL1       -0.0003
     42 C         -58.9259  -45.2892  -30.4470 C.ar    1  UNL1       -0.0000
     43 C         -60.2573  -45.2435  -29.9954 C.ar    1  UNL1       -0.0003
     44 C         -61.2112  -44.5409  -30.7551 C.ar    1  UNL1       -0.0043
     45 C         -62.9479  -42.5691  -31.8166 C.3     1  UNL1        0.0050
     46 C         -61.8644  -43.1212  -32.7368 C.3     1  UNL1        0.0264
@<TRIPOS>BOND
     1    45    46    1
     2    46    39    1
     3    39    40   ar
     4    40    41   ar
     5    41    42   ar
     6    42    43   ar
     7    43    29    1
     8    29    30   ar
     9    30    31   ar
    10    31    32   ar
    11    32    33   ar
    12    33    34   ar
    13    34    25    1
    14    25    26    2
    15    25    27   am
    16    27     1    1
    17     1     2   ar
    18     2     3   ar
    19     3     4   ar
    20     4     7    1
    21     7     8    1
    22     8     9    1
    23     9    10    1
    24    10    13    1
    25    13    14    1
    26    14    15    1
    27    15    16   ar
    28    16    17   ar
    29    17    18   ar
    30    18    19   ar
    31    19    21    1
    32    21    22    2
    33    21    23    1
    34    19    20   ar
    35    10    11    1
    36    11    12    1
    37     4     5   ar
    38     5     6   ar
    39    34    35   ar
    40    35    36    1
    41    35    37   ar
    42    37    38   ar
    43    43    44   ar
    44    44    39   ar
    45    38    29   ar
    46    37    32   ar
    47     6     1   ar
    48    12     7    1
    49    20    15   ar
    50    27    28    1
    51    23    24    1
@<TRIPOS>MOLECULE
*****
 46 51 0 0 0
SMALL
GASTEIGER

@<TRIPOS>ATOM
      1 C         -63.8477  -52.0286  -24.2802 C.ar    1  UNL1        0.0702
      2 C         -63.3855  -52.6812  -23.1270 C.ar    1  UNL1        0.0191
      3 C         -64.1312  -53.7161  -22.5604 C.ar    1  UNL1        0.0356
      4 C         -65.3558  -54.0900  -23.1405 C.ar    1  UNL1        0.1318
      5 N         -65.7894  -53.4281  -24.2501 N.ar    1  UNL1       -0.2279
      6 C         -65.0799  -52.4180  -24.8187 C.ar    1  UNL1        0.1149
      7 N         -66.1556  -55.1573  -22.5860 N.pl3   1  UNL1       -0.2932
      8 C         -65.7700  -55.7638  -21.3025 C.3     1  UNL1        0.0923
      9 C         -67.0186  -56.2172  -20.5420 C.3     1  UNL1        0.0252
     10 C         -67.8655  -57.2342  -21.3512 C.3     1  UNL1        0.0472
     11 C         -67.6332  -57.1296  -22.8795 C.3     1  UNL1        0.0252
     12 C         -67.3056  -55.7006  -23.3298 C.3     1  UNL1        0.0923
     13 C         -69.3590  -57.0975  -21.0106 C.3     1  UNL1        0.2054
     14 O         -69.6438  -55.7603  -20.6037 O.3     1  UNL1       -0.4755
     15 C         -70.2733  -55.4139  -19.3992 C.ar    1  UNL1        0.1388
     16 C         -70.0336  -56.1051  -18.1971 C.ar    1  UNL1        0.0369
     17 C         -70.6869  -55.7208  -17.0245 C.ar    1  UNL1        0.0033
     18 C         -71.5820  -54.6487  -17.0364 C.ar    1  UNL1        0.0066
     19 C         -71.8337  -53.9463  -18.2279 C.ar    1  UNL1        0.0785
     20 C         -71.1716  -54.3395  -19.4048 C.ar    1  UNL1        0.0433
     21 C         -72.7807  -52.8095  -18.2479 C.2     1  UNL1        0.3381
     22 O         -73.8340  -52.8435  -17.5555 O.2     1  UNL1       -0.2451
     23 O         -72.5172  -51.6898  -19.0327 O.3     1  UNL1       -0.4771
     24 H         -73.1590  -50.9063  -19.0536 H       1  UNL1        0.2954
     25 C         -63.6341  -49.6062  -25.0098 C.2     1  UNL1        0.2839
     26 O         -64.6619  -49.2558  -24.3697 O.2     1  UNL1       -0.2665
     27 N         -63.1207  -50.9418  -24.8789 N.am    1  UNL1       -0.2766
     28 H         -62.1288  -51.1154  -25.1592 H       1  UNL1        0.1553
     29 C         -60.9453  -45.7794  -28.7882 C.ar    1  UNL1        0.0002
     30 C         -60.3321  -45.3927  -27.5660 C.ar    1  UNL1        0.0031
     31 C         -60.6625  -46.0338  -26.3595 C.ar    1  UNL1        0.0375
     32 C         -61.6053  -47.0549  -26.3997 C.ar    1  UNL1        0.1452
     33 O         -62.0450  -47.7716  -25.3942 O.2     1  UNL1       -0.4492
     34 C         -62.9306  -48.6315  -25.8651 C.ar    1  UNL1        0.1946
     35 C         -63.0723  -48.4645  -27.2473 C.ar    1  UNL1        0.0202
     36 C         -63.9667  -49.2299  -28.1754 C.3     1  UNL1        0.0345
     37 C         -62.2053  -47.4378  -27.5692 C.ar    1  UNL1        0.0337
     38 C         -61.9010  -46.8237  -28.7851 C.ar    1  UNL1        0.0028
     39 C         -61.2209  -43.7194  -31.9737 C.ar    1  UNL1       -0.0222
     40 C         -59.9040  -43.7900  -32.4518 C.ar    1  UNL1       -0.0043
     41 C         -58.9391  -44.5137  -31.7492 C.ar    1  UNL1       -0.0003
     42 C         -59.2760  -45.1644  -30.5601 C.ar    1  UNL1       -0.0000
     43 C         -60.5875  -45.0952  -30.0565 C.ar    1  UNL1       -0.0003
     44 C         -61.5544  -44.3635  -30.7711 C.ar    1  UNL1       -0.0043
     45 C         -62.2547  -43.2569  -34.1952 C.3     1  UNL1        0.0050
     46 C         -62.2524  -42.9075  -32.7108 C.3     1  UNL1        0.0264
@<TRIPOS>BOND
     1    45    46    1
     2    46    39    1
     3    39    40   ar
     4    40    41   ar
     5    41    42   ar
     6    42    43   ar
     7    43    29    1
     8    29    30   ar
     9    30    31   ar
    10    31    32   ar
    11    32    33   ar
    12    33    34   ar
    13    34    25    1
    14    25    26    2
    15    25    27   am
    16    27     1    1
    17     1     2   ar
    18     2     3   ar
    19     3     4   ar
    20     4     7    1
    21     7     8    1
    22     8     9    1
    23     9    10    1
    24    10    13    1
    25    13    14    1
    26    14    15    1
    27    15    16   ar
    28    16    17   ar
    29    17    18   ar
    30    18    19   ar
    31    19    21    1
    32    21    22    2
    33    21    23    1
    34    19    20   ar
    35    10    11    1
    36    11    12    1
    37     4     5   ar
    38     5     6   ar
    39    34    35   ar
    40    35    36    1
    41    35    37   ar
    42    37    38   ar
    43    43    44   ar
    44    44    39   ar
    45    38    29   ar
    46    37    32   ar
    47     6     1   ar
    48    12     7    1
    49    20    15   ar
    50    27    28    1
    51    23    24    1
@<TRIPOS>MOLECULE
*****
 46 51 0 0 0
SMALL
GASTEIGER

@<TRIPOS>ATOM
      1 C         -63.9376  -52.0598  -24.3390 C.ar    1  UNL1        0.0702
      2 C         -63.6150  -52.6069  -23.0876 C.ar    1  UNL1        0.0191
      3 C         -64.3961  -53.6294  -22.5467 C.ar    1  UNL1        0.0356
      4 C         -65.5176  -54.0967  -23.2537 C.ar    1  UNL1        0.1318
      5 N         -65.8182  -53.5359  -24.4589 N.ar    1  UNL1       -0.2279
      6 C         -65.0719  -52.5399  -25.0046 C.ar    1  UNL1        0.1149
      7 N         -66.3494  -55.1546  -22.7294 N.pl3   1  UNL1       -0.2932
      8 C         -65.8801  -55.9491  -21.5838 C.3     1  UNL1        0.0923
      9 C         -67.0712  -56.3888  -20.7289 C.3     1  UNL1        0.0252
     10 C         -68.1021  -57.2203  -21.5363 C.3     1  UNL1        0.0472
     11 C         -68.0386  -56.9428  -23.0594 C.3     1  UNL1        0.0252
     12 C         -67.6256  -55.5008  -23.3794 C.3     1  UNL1        0.0923
     13 C         -69.5255  -57.0029  -20.9960 C.3     1  UNL1        0.2054
     14 O         -70.4174  -56.7267  -22.0744 O.3     1  UNL1       -0.4755
     15 C         -71.8018  -56.5507  -21.9345 C.ar    1  UNL1        0.1388
     16 C         -72.7203  -56.9973  -22.9025 C.ar    1  UNL1        0.0369
     17 C         -74.0894  -56.7967  -22.7159 C.ar    1  UNL1        0.0033
     18 C         -74.5564  -56.1519  -21.5683 C.ar    1  UNL1        0.0066
     19 C         -73.6535  -55.6991  -20.5904 C.ar    1  UNL1        0.0785
     20 C         -72.2761  -55.9051  -20.7858 C.ar    1  UNL1        0.0433
     21 C         -74.1411  -55.0151  -19.3722 C.2     1  UNL1        0.3381
     22 O         -75.0802  -55.5122  -18.6933 O.2     1  UNL1       -0.2451
     23 O         -73.5666  -53.8142  -18.9636 O.3     1  UNL1       -0.4771
     24 H         -73.8930  -53.3379  -18.1313 H       1  UNL1        0.2954
     25 C         -63.6487  -49.6395  -25.0491 C.2     1  UNL1        0.2839
     26 O         -64.6780  -49.2663  -24.4244 O.2     1  UNL1       -0.2665
     27 N         -63.1725  -50.9887  -24.9181 N.am    1  UNL1       -0.2766
     28 H         -62.1807  -51.1864  -25.1824 H       1  UNL1        0.1553
     29 C         -60.7964  -45.8614  -28.7560 C.ar    1  UNL1        0.0002
     30 C         -60.1955  -45.4973  -27.5208 C.ar    1  UNL1        0.0031
     31 C         -60.5636  -46.1365  -26.3243 C.ar    1  UNL1        0.0375
     32 C         -61.5312  -47.1331  -26.3873 C.ar    1  UNL1        0.1452
     33 O         -62.0069  -47.8438  -25.3942 O.2     1  UNL1       -0.4492
     34 C         -62.9055  -48.6783  -25.8858 C.ar    1  UNL1        0.1946
     35 C         -63.0181  -48.5000  -27.2693 C.ar    1  UNL1        0.0202
     36 C         -63.9149  -49.2371  -28.2177 C.3     1  UNL1        0.0345
     37 C         -62.1197  -47.4940  -27.5696 C.ar    1  UNL1        0.0337
     38 C         -61.7782  -46.8810  -28.7762 C.ar    1  UNL1        0.0028
     39 C         -60.9751  -43.8228  -31.9621 C.ar    1  UNL1       -0.0222
     40 C         -59.6399  -43.8786  -32.3886 C.ar    1  UNL1       -0.0043
     41 C         -58.6936  -44.5857  -31.6448 C.ar    1  UNL1       -0.0003
     42 C         -59.0678  -45.2342  -30.4657 C.ar    1  UNL1       -0.0000
     43 C         -60.3987  -45.1795  -30.0137 C.ar    1  UNL1       -0.0003
     44 C         -61.3466  -44.4647  -30.7694 C.ar    1  UNL1       -0.0043
     45 C         -63.1928  -42.6863  -31.8737 C.3     1  UNL1        0.0050
     46 C         -61.9878  -43.0287  -32.7433 C.3     1  UNL1        0.0264
@<TRIPOS>BOND
     1    45    46    1
     2    46    39    1
     3    39    40   ar
     4    40    41   ar
     5    41    42   ar
     6    42    43   ar
     7    43    29    1
     8    29    30   ar
     9    30    31   ar
    10    31    32   ar
    11    32    33   ar
    12    33    34   ar
    13    34    25    1
    14    25    26    2
    15    25    27   am
    16    27     1    1
    17     1     2   ar
    18     2     3   ar
    19     3     4   ar
    20     4     7    1
    21     7     8    1
    22     8     9    1
    23     9    10    1
    24    10    13    1
    25    13    14    1
    26    14    15    1
    27    15    16   ar
    28    16    17   ar
    29    17    18   ar
    30    18    19   ar
    31    19    21    1
    32    21    22    2
    33    21    23    1
    34    19    20   ar
    35    10    11    1
    36    11    12    1
    37     4     5   ar
    38     5     6   ar
    39    34    35   ar
    40    35    36    1
    41    35    37   ar
    42    37    38   ar
    43    43    44   ar
    44    44    39   ar
    45    38    29   ar
    46    37    32   ar
    47     6     1   ar
    48    12     7    1
    49    20    15   ar
    50    27    28    1
    51    23    24    1
@<TRIPOS>MOLECULE
*****
 46 51 0 0 0
SMALL
GASTEIGER

@<TRIPOS>ATOM
      1 C         -64.1305  -51.6202  -24.6045 C.ar    1  UNL1        0.0702
      2 C         -63.5909  -52.1025  -23.4022 C.ar    1  UNL1        0.0191
      3 C         -64.1646  -53.2062  -22.7689 C.ar    1  UNL1        0.0356
      4 C         -65.2959  -53.8216  -23.3324 C.ar    1  UNL1        0.1318
      5 N         -65.8098  -53.3222  -24.4916 N.ar    1  UNL1       -0.2279
      6 C         -65.2676  -52.2492  -25.1253 C.ar    1  UNL1        0.1149
      7 N         -65.9171  -54.9671  -22.7094 N.pl3   1  UNL1       -0.2932
      8 C         -65.2355  -55.6501  -21.5990 C.3     1  UNL1        0.0923
      9 C         -66.2676  -56.2227  -20.6244 C.3     1  UNL1        0.0252
     10 C         -67.2408  -57.2159  -21.3119 C.3     1  UNL1        0.0472
     11 C         -67.3590  -56.9829  -22.8391 C.3     1  UNL1        0.0252
     12 C         -67.1861  -55.5089  -23.2260 C.3     1  UNL1        0.0923
     13 C         -68.6242  -57.1809  -20.6408 C.3     1  UNL1        0.2054
     14 O         -69.3769  -56.0757  -21.1375 O.3     1  UNL1       -0.4755
     15 C         -70.3164  -55.3537  -20.3871 C.ar    1  UNL1        0.1388
     16 C         -70.1653  -53.9828  -20.1076 C.ar    1  UNL1        0.0369
     17 C         -71.1295  -53.3097  -19.3548 C.ar    1  UNL1        0.0033
     18 C         -72.2497  -53.9917  -18.8743 C.ar    1  UNL1        0.0066
     19 C         -72.4175  -55.3613  -19.1438 C.ar    1  UNL1        0.0785
     20 C         -71.4419  -56.0320  -19.9028 C.ar    1  UNL1        0.0433
     21 C         -73.6017  -56.0902  -18.6378 C.2     1  UNL1        0.3381
     22 O         -74.6316  -56.2115  -19.3551 O.2     1  UNL1       -0.2451
     23 O         -73.5898  -56.6499  -17.3628 O.3     1  UNL1       -0.4771
     24 H         -74.3952  -57.1508  -17.0068 H       1  UNL1        0.2954
     25 C         -64.0863  -49.1341  -25.1176 C.2     1  UNL1        0.2839
     26 O         -64.8816  -48.8609  -24.1786 O.2     1  UNL1       -0.2665
     27 N         -63.5833  -50.4709  -25.2737 N.am    1  UNL1       -0.2766
     28 H         -62.7162  -50.6052  -25.8418 H       1  UNL1        0.1553
     29 C         -62.3206  -45.0320  -29.1432 C.ar    1  UNL1        0.0002
     30 C         -62.0916  -44.3123  -27.9395 C.ar    1  UNL1        0.0031
     31 C         -62.3712  -44.8911  -26.6895 C.ar    1  UNL1        0.0375
     32 C         -62.8774  -46.1860  -26.6682 C.ar    1  UNL1        0.1452
     33 O         -63.1983  -46.8974  -25.6152 O.2     1  UNL1       -0.4492
     34 C         -63.6370  -48.0704  -26.0359 C.ar    1  UNL1        0.1946
     35 C         -63.5982  -48.1230  -27.4338 C.ar    1  UNL1        0.0202
     36 C         -64.0027  -49.2630  -28.3191 C.3     1  UNL1        0.0345
     37 C         -63.1042  -46.8914  -27.8194 C.ar    1  UNL1        0.0337
     38 C         -62.8376  -46.3481  -29.0772 C.ar    1  UNL1        0.0028
     39 C         -60.4304  -43.8680  -32.2318 C.ar    1  UNL1       -0.0222
     40 C         -61.4579  -43.2426  -32.9535 C.ar    1  UNL1       -0.0043
     41 C         -62.7515  -43.1892  -32.4315 C.ar    1  UNL1       -0.0003
     42 C         -63.0336  -43.7668  -31.1915 C.ar    1  UNL1       -0.0000
     43 C         -62.0205  -44.4102  -30.4578 C.ar    1  UNL1       -0.0003
     44 C         -60.7190  -44.4595  -30.9911 C.ar    1  UNL1       -0.0043
     45 C         -58.1252  -44.7552  -31.8907 C.3     1  UNL1        0.0050
     46 C         -59.0440  -43.9593  -32.8115 C.3     1  UNL1        0.0264
@<TRIPOS>BOND
     1    45    46    1
     2    46    39    1
     3    39    40   ar
     4    40    41   ar
     5    41    42   ar
     6    42    43   ar
     7    43    29    1
     8    29    30   ar
     9    30    31   ar
    10    31    32   ar
    11    32    33   ar
    12    33    34   ar
    13    34    25    1
    14    25    26    2
    15    25    27   am
    16    27     1    1
    17     1     2   ar
    18     2     3   ar
    19     3     4   ar
    20     4     7    1
    21     7     8    1
    22     8     9    1
    23     9    10    1
    24    10    13    1
    25    13    14    1
    26    14    15    1
    27    15    16   ar
    28    16    17   ar
    29    17    18   ar
    30    18    19   ar
    31    19    21    1
    32    21    22    2
    33    21    23    1
    34    19    20   ar
    35    10    11    1
    36    11    12    1
    37     4     5   ar
    38     5     6   ar
    39    34    35   ar
    40    35    36    1
    41    35    37   ar
    42    37    38   ar
    43    43    44   ar
    44    44    39   ar
    45    38    29   ar
    46    37    32   ar
    47     6     1   ar
    48    12     7    1
    49    20    15   ar
    50    27    28    1
    51    23    24    1
