@<TRIPOS>MOLECULE
*****
 61 65 0 0 0
SMALL
GASTEIGER

@<TRIPOS>ATOM
      1 C          49.9147    8.7259  -28.6152 C.ar    1  UNL1        0.0993
      2 C          51.1816    8.3635  -29.1026 C.ar    1  UNL1        0.0235
      3 C          51.3296    7.7793  -30.3708 C.ar    1  UNL1        0.0548
      4 C          50.1903    7.5775  -31.1646 C.ar    1  UNL1        0.0077
      5 C          48.9274    7.9395  -30.6929 C.ar    1  UNL1        0.0390
      6 C          48.7801    8.5299  -29.4341 C.ar    1  UNL1        0.1598
      7 C          52.6676    7.3849  -30.8710 C.2     1  UNL1        0.2458
      8 O          52.7871    7.0080  -32.0678 O.2     1  UNL1       -0.2701
      9 N          53.8162    7.4099  -29.9991 N.am    1  UNL1       -0.3040
     10 H          53.6342    7.4730  -28.9715 H       1  UNL1        0.1496
     11 C          55.2203    7.3563  -30.4519 C.3     1  UNL1        0.0572
     12 C          55.8100    8.7816  -30.4325 C.3     1  UNL1        0.0196
     13 C          55.2921    6.8184  -31.8943 C.3     1  UNL1        0.0196
     14 C          56.0543    6.4704  -29.5060 C.3     1  UNL1        0.0196
     15 N          49.7660    9.2142  -27.2719 N.pl3   1  UNL1       -0.2120
     16 H          48.8464    9.1100  -26.7884 H       1  UNL1        0.1738
     17 S          50.9680   10.1894  -26.4873 S.O2    1  UNL1        0.0745
     18 O          51.6032   11.1019  -27.4982 O.2     1  UNL1       -0.1499
     19 O          52.0329    9.2861  -25.9300 O.2     1  UNL1       -0.1499
     20 C          49.3031   11.4189  -22.9496 C.ar    1  UNL1        0.0152
     21 C          49.1999   12.8217  -23.1630 C.ar    1  UNL1       -0.0232
     22 C          49.6410   13.3649  -24.3792 C.ar    1  UNL1       -0.0031
     23 C          50.1324   12.5489  -25.3904 C.ar    1  UNL1        0.0207
     24 C          50.2411   11.1687  -25.2032 C.ar    1  UNL1        0.1354
     25 C          49.8331   10.5976  -23.9795 C.ar    1  UNL1        0.0746
     26 CL         50.0277    8.8570  -23.7217 Cl      1  UNL1       -0.0811
     27 C          48.7630   13.7659  -22.0619 C.3     1  UNL1        0.0221
     28 C          49.8482   14.6067  -21.3929 C.3     1  UNL1        0.0047
     29 C          48.9094   15.2453  -22.3953 C.3     1  UNL1        0.0047
     30 C          48.9291   10.7949  -21.6112 C.3     1  UNL1        0.1693
     31 C          49.7853    9.6842  -19.7606 C.3     1  UNL1        0.1746
     32 O          50.0568   10.6286  -20.7719 O.3     1  UNL1       -0.3463
     33 O          47.4932    8.9018  -29.0205 O.3     1  UNL1       -0.4513
     34 C          47.1335   10.1872  -28.5837 C.ar    1  UNL1        0.1580
     35 C          47.1479   10.5343  -27.2205 C.ar    1  UNL1        0.0677
     36 C          46.7700   11.8156  -26.8109 C.ar    1  UNL1        0.1398
     37 F          46.7948   12.1222  -25.4889 F       1  UNL1       -0.2044
     38 C          46.3767   12.7738  -27.7610 C.ar    1  UNL1        0.0175
     39 C          46.3972   12.4381  -29.1237 C.ar    1  UNL1        0.0130
     40 C          46.7723   11.1539  -29.5330 C.ar    1  UNL1        0.0919
     41 CL         46.7679   10.7610  -31.2452 Cl      1  UNL1       -0.0791
     42 C          46.0014   14.1679  -27.3362 C.3     1  UNL1        0.1382
     43 C          47.0954   14.7606  -26.5087 C.2     1  UNL1        0.3234
     44 O          46.8636   15.1025  -25.3172 O.2     1  UNL1       -0.2497
     45 O          48.3500   14.9812  -27.0883 O.3     1  UNL1       -0.4215
     46 C          48.9679   16.2647  -27.1747 C.3     1  UNL1        0.3207
     47 O          49.8073   16.4262  -26.0475 O.3     1  UNL1       -0.3070
     48 C          50.6523   17.5556  -26.2139 C.3     1  UNL1        0.2456
     49 C          49.8597   18.8513  -26.5814 C.3     1  UNL1        0.1781
     50 O          50.1266   19.2154  -27.9122 O.3     1  UNL1       -0.3790
     51 C          48.3432   18.6292  -26.4196 C.3     1  UNL1        0.1733
     52 O          48.0276   18.4660  -25.0593 O.3     1  UNL1       -0.3793
     53 C          47.8851   17.3745  -27.2007 C.3     1  UNL1        0.2106
     54 O          47.6075   17.7150  -28.5354 O.3     1  UNL1       -0.3766
     55 H          51.0407   19.6029  -27.9248 H       1  UNL1        0.2106
     56 H          48.0757   19.3655  -24.6413 H       1  UNL1        0.2105
     57 H          46.7195   18.1595  -28.5417 H       1  UNL1        0.2107
     58 C          51.4165   17.7611  -24.9392 C.2     1  UNL1        0.3439
     59 O          51.2836   16.9489  -23.9847 O.2     1  UNL1       -0.2475
     60 O          52.3089   18.8233  -24.8263 O.3     1  UNL1       -0.4785
     61 H          52.8446   18.9639  -23.9783 H       1  UNL1        0.2951
@<TRIPOS>BOND
     1    31    32    1
     2    32    30    1
     3    30    20    1
     4    20    21   ar
     5    21    27    1
     6    27    28    1
     7    28    29    1
     8    21    22   ar
     9    22    23   ar
    10    23    24   ar
    11    24    17    1
    12    17    18    2
    13    17    19    2
    14    17    15    1
    15    15     1    1
    16     1     2   ar
    17     2     3   ar
    18     3     7    1
    19     7     8    2
    20     7     9   am
    21     9    11    1
    22    11    12    1
    23    11    13    1
    24    11    14    1
    25     3     4   ar
    26     4     5   ar
    27     5     6   ar
    28     6    33    1
    29    33    34    1
    30    34    35   ar
    31    35    36   ar
    32    36    37    1
    33    36    38   ar
    34    38    42    1
    35    42    43    1
    36    43    44    2
    37    43    45    1
    38    45    46    1
    39    46    47    1
    40    47    48    1
    41    48    58    1
    42    58    59    2
    43    58    60    1
    44    48    49    1
    45    49    50    1
    46    49    51    1
    47    51    52    1
    48    51    53    1
    49    53    54    1
    50    38    39   ar
    51    39    40   ar
    52    40    41    1
    53    24    25   ar
    54    25    26    1
    55    25    20   ar
    56    29    27    1
    57     6     1   ar
    58    40    34   ar
    59    53    46    1
    60    15    16    1
    61     9    10    1
    62    60    61    1
    63    50    55    1
    64    52    56    1
    65    54    57    1
@<TRIPOS>MOLECULE
*****
 61 65 0 0 0
SMALL
GASTEIGER

@<TRIPOS>ATOM
      1 C          46.6555   14.0106  -26.1036 C.ar    1  UNL1        0.0993
      2 C          46.5976   13.6884  -27.4698 C.ar    1  UNL1        0.0235
      3 C          46.1899   12.4144  -27.8967 C.ar    1  UNL1        0.0548
      4 C          45.8164   11.4619  -26.9365 C.ar    1  UNL1        0.0077
      5 C          45.8641   11.7732  -25.5766 C.ar    1  UNL1        0.0390
      6 C          46.2610   13.0445  -25.1510 C.ar    1  UNL1        0.1598
      7 C          46.1472   12.0770  -29.3391 C.2     1  UNL1        0.2458
      8 O          46.1408   10.8649  -29.6844 O.2     1  UNL1       -0.2701
      9 N          46.1342   13.1170  -30.3381 N.am    1  UNL1       -0.3040
     10 H          46.4002   14.0797  -30.0287 H       1  UNL1        0.1496
     11 C          45.7717   12.9206  -31.7556 C.3     1  UNL1        0.0572
     12 C          45.8254   14.2805  -32.4820 C.3     1  UNL1        0.0196
     13 C          44.3380   12.3660  -31.8643 C.3     1  UNL1        0.0196
     14 C          46.7706   11.9644  -32.4361 C.3     1  UNL1        0.0196
     15 N          47.1849   15.2770  -25.6780 N.pl3   1  UNL1       -0.2120
     16 H          46.5313   16.0723  -25.5033 H       1  UNL1        0.1738
     17 S          48.8838   15.6307  -25.6685 S.O2    1  UNL1        0.0745
     18 O          49.1597   16.7103  -24.6603 O.2     1  UNL1       -0.1499
     19 O          49.2776   16.1401  -27.0272 O.2     1  UNL1       -0.1499
     20 C          51.5523   13.0548  -23.9240 C.ar    1  UNL1        0.0152
     21 C          51.1900   11.8223  -24.5354 C.ar    1  UNL1       -0.0232
     22 C          50.1394   11.8004  -25.4652 C.ar    1  UNL1       -0.0031
     23 C          49.4818   12.9689  -25.8287 C.ar    1  UNL1        0.0207
     24 C          49.8221   14.1905  -25.2424 C.ar    1  UNL1        0.1354
     25 C          50.8546   14.2384  -24.2823 C.ar    1  UNL1        0.0746
     26 CL         51.2436   15.7763  -23.4964 Cl      1  UNL1       -0.0811
     27 C          51.8072   10.5073  -24.1058 C.3     1  UNL1        0.0221
     28 C          50.8516    9.3938  -23.6825 C.3     1  UNL1        0.0047
     29 C          51.5247    9.3358  -25.0381 C.3     1  UNL1        0.0047
     30 C          52.6190   13.1134  -22.8382 C.3     1  UNL1        0.1693
     31 C          52.5367   13.8781  -20.6474 C.3     1  UNL1        0.1746
     32 O          52.0741   12.8982  -21.5495 O.3     1  UNL1       -0.3463
     33 O          46.2628   13.3149  -23.7754 O.3     1  UNL1       -0.4513
     34 C          47.1317   12.7222  -22.8447 C.ar    1  UNL1        0.1580
     35 C          47.1792   11.3280  -22.6632 C.ar    1  UNL1        0.0677
     36 C          48.0414   10.7648  -21.7191 C.ar    1  UNL1        0.1398
     37 F          48.0663    9.4162  -21.5667 F       1  UNL1       -0.2044
     38 C          48.8759   11.5884  -20.9441 C.ar    1  UNL1        0.0175
     39 C          48.8542   12.9766  -21.1511 C.ar    1  UNL1        0.0130
     40 C          47.9881   13.5403  -22.0941 C.ar    1  UNL1        0.0919
     41 CL         47.9722   15.2832  -22.3139 Cl      1  UNL1       -0.0791
     42 C          49.8345   10.9921  -19.9490 C.3     1  UNL1        0.1382
     43 C          49.3414   11.2322  -18.5591 C.2     1  UNL1        0.3234
     44 O          48.1188   11.4694  -18.3610 O.2     1  UNL1       -0.2497
     45 O          50.2568   11.2469  -17.5004 O.3     1  UNL1       -0.4215
     46 C          50.0573   11.9780  -16.2911 C.3     1  UNL1        0.3207
     47 O          51.3268   12.3154  -15.7660 O.3     1  UNL1       -0.3070
     48 C          51.1961   13.2694  -14.7219 C.3     1  UNL1        0.2456
     49 C          50.1750   12.8254  -13.6254 C.3     1  UNL1        0.1781
     50 O          49.0263   13.6325  -13.6849 O.3     1  UNL1       -0.3790
     51 C          49.7618   11.3542  -13.8263 C.3     1  UNL1        0.1733
     52 O          50.8574   10.5117  -13.5681 O.3     1  UNL1       -0.3793
     53 C          49.2679   11.1149  -15.2731 C.3     1  UNL1        0.2106
     54 O          47.9006   11.4241  -15.3705 O.3     1  UNL1       -0.3766
     55 H          49.2743   14.5121  -13.2964 H       1  UNL1        0.2106
     56 H          50.9745   10.4836  -12.5824 H       1  UNL1        0.2105
     57 H          47.4027   10.6622  -14.9735 H       1  UNL1        0.2107
     58 C          52.5496   13.4845  -14.1112 C.2     1  UNL1        0.3439
     59 O          53.1171   14.6054  -14.2113 O.2     1  UNL1       -0.2475
     60 O          53.1598   12.4602  -13.3932 O.3     1  UNL1       -0.4785
     61 H          54.0654   12.5970  -12.9605 H       1  UNL1        0.2951
@<TRIPOS>BOND
     1    31    32    1
     2    32    30    1
     3    30    20    1
     4    20    21   ar
     5    21    27    1
     6    27    28    1
     7    28    29    1
     8    21    22   ar
     9    22    23   ar
    10    23    24   ar
    11    24    17    1
    12    17    18    2
    13    17    19    2
    14    17    15    1
    15    15     1    1
    16     1     2   ar
    17     2     3   ar
    18     3     7    1
    19     7     8    2
    20     7     9   am
    21     9    11    1
    22    11    12    1
    23    11    13    1
    24    11    14    1
    25     3     4   ar
    26     4     5   ar
    27     5     6   ar
    28     6    33    1
    29    33    34    1
    30    34    35   ar
    31    35    36   ar
    32    36    37    1
    33    36    38   ar
    34    38    42    1
    35    42    43    1
    36    43    44    2
    37    43    45    1
    38    45    46    1
    39    46    47    1
    40    47    48    1
    41    48    58    1
    42    58    59    2
    43    58    60    1
    44    48    49    1
    45    49    50    1
    46    49    51    1
    47    51    52    1
    48    51    53    1
    49    53    54    1
    50    38    39   ar
    51    39    40   ar
    52    40    41    1
    53    24    25   ar
    54    25    26    1
    55    25    20   ar
    56    29    27    1
    57     6     1   ar
    58    40    34   ar
    59    53    46    1
    60    15    16    1
    61     9    10    1
    62    60    61    1
    63    50    55    1
    64    52    56    1
    65    54    57    1
@<TRIPOS>MOLECULE
*****
 61 65 0 0 0
SMALL
GASTEIGER

@<TRIPOS>ATOM
      1 C          50.2723    8.6374  -28.4042 C.ar    1  UNL1        0.0993
      2 C          51.5314    8.2669  -28.9053 C.ar    1  UNL1        0.0235
      3 C          51.6700    7.7453  -30.2016 C.ar    1  UNL1        0.0548
      4 C          50.5295    7.6154  -31.0086 C.ar    1  UNL1        0.0077
      5 C          49.2744    7.9862  -30.5232 C.ar    1  UNL1        0.0390
      6 C          49.1368    8.5145  -29.2360 C.ar    1  UNL1        0.1598
      7 C          52.9994    7.3416  -30.7170 C.2     1  UNL1        0.2458
      8 O          53.0905    6.8945  -31.8919 O.2     1  UNL1       -0.2701
      9 N          54.1722    7.4371  -29.8831 N.am    1  UNL1       -0.3040
     10 H          54.0191    7.5598  -28.8561 H       1  UNL1        0.1496
     11 C          55.5632    7.3774  -30.3737 C.3     1  UNL1        0.0572
     12 C          56.1970    8.7794  -30.2616 C.3     1  UNL1        0.0196
     13 C          55.5855    6.9492  -31.8539 C.3     1  UNL1        0.0196
     14 C          56.3909    6.3982  -29.5187 C.3     1  UNL1        0.0196
     15 N          50.1301    9.0594  -27.0378 N.pl3   1  UNL1       -0.2120
     16 H          49.2265    8.8925  -26.5421 H       1  UNL1        0.1738
     17 S          51.3037   10.0531  -26.2336 S.O2    1  UNL1        0.0745
     18 O          51.8012   11.1028  -27.1869 O.2     1  UNL1       -0.1499
     19 O          52.4676    9.1921  -25.8282 O.2     1  UNL1       -0.1499
     20 C          49.5139   10.7736  -22.6174 C.ar    1  UNL1        0.0152
     21 C          49.5794   12.1933  -22.5521 C.ar    1  UNL1       -0.0232
     22 C          50.1689   12.9022  -23.6099 C.ar    1  UNL1       -0.0031
     23 C          50.6458   12.2419  -24.7352 C.ar    1  UNL1        0.0207
     24 C          50.5901   10.8485  -24.8214 C.ar    1  UNL1        0.1354
     25 C          50.0298   10.1071  -23.7601 C.ar    1  UNL1        0.0746
     26 CL         50.0150    8.3388  -23.8443 Cl      1  UNL1       -0.0811
     27 C          49.1636   12.9545  -21.3102 C.3     1  UNL1        0.0221
     28 C          50.2777   13.5424  -20.4469 C.3     1  UNL1        0.0047
     29 C          49.4634   14.4478  -21.3476 C.3     1  UNL1        0.0047
     30 C          48.9729    9.9543  -21.4527 C.3     1  UNL1        0.1693
     31 C          49.9888    9.7531  -19.3745 C.3     1  UNL1        0.1746
     32 O          50.0098    9.3293  -20.7191 O.3     1  UNL1       -0.3463
     33 O          47.8583    8.8988  -28.8080 O.3     1  UNL1       -0.4513
     34 C          47.2670   10.1448  -29.0728 C.ar    1  UNL1        0.1580
     35 C          46.8237   10.4923  -30.3619 C.ar    1  UNL1        0.0677
     36 C          46.2533   11.7449  -30.6020 C.ar    1  UNL1        0.1398
     37 F          45.8336   12.0519  -31.8558 F       1  UNL1       -0.2044
     38 C          46.1114   12.6696  -29.5530 C.ar    1  UNL1        0.0175
     39 C          46.5208   12.3087  -28.2597 C.ar    1  UNL1        0.0130
     40 C          47.0951   11.0557  -28.0206 C.ar    1  UNL1        0.0919
     41 CL         47.6147   10.6437  -26.3938 Cl      1  UNL1       -0.0791
     42 C          45.4664   14.0083  -29.7907 C.3     1  UNL1        0.1382
     43 C          45.7472   14.9208  -28.6413 C.2     1  UNL1        0.3234
     44 O          44.8196   15.6293  -28.1637 O.2     1  UNL1       -0.2497
     45 O          47.0529   15.0185  -28.1471 O.3     1  UNL1       -0.4215
     46 C          47.4327   15.8854  -27.0789 C.3     1  UNL1        0.3207
     47 O          48.3076   16.8679  -27.5990 O.3     1  UNL1       -0.3070
     48 C          48.5009   17.9118  -26.6556 C.3     1  UNL1        0.2456
     49 C          48.9364   17.3813  -25.2517 C.3     1  UNL1        0.1781
     50 O          47.8938   17.5604  -24.3268 O.3     1  UNL1       -0.3790
     51 C          49.2914   15.8830  -25.3192 C.3     1  UNL1        0.1733
     52 O          50.4611   15.7038  -26.0784 O.3     1  UNL1       -0.3793
     53 C          48.1400   15.0740  -25.9627 C.3     1  UNL1        0.2106
     54 O          47.1966   14.7199  -24.9833 O.3     1  UNL1       -0.3766
     55 H          47.8686   18.5287  -24.1082 H       1  UNL1        0.2106
     56 H          51.2219   15.9953  -25.5106 H       1  UNL1        0.2105
     57 H          47.5780   13.9553  -24.4774 H       1  UNL1        0.2107
     58 C          49.5392   18.8486  -27.1991 C.2     1  UNL1        0.3439
     59 O          50.7531   18.6889  -26.9000 O.2     1  UNL1       -0.2475
     60 O          49.1687   19.8674  -28.0721 O.3     1  UNL1       -0.4785
     61 H          49.8612   20.4961  -28.4607 H       1  UNL1        0.2951
@<TRIPOS>BOND
     1    31    32    1
     2    32    30    1
     3    30    20    1
     4    20    21   ar
     5    21    27    1
     6    27    28    1
     7    28    29    1
     8    21    22   ar
     9    22    23   ar
    10    23    24   ar
    11    24    17    1
    12    17    18    2
    13    17    19    2
    14    17    15    1
    15    15     1    1
    16     1     2   ar
    17     2     3   ar
    18     3     7    1
    19     7     8    2
    20     7     9   am
    21     9    11    1
    22    11    12    1
    23    11    13    1
    24    11    14    1
    25     3     4   ar
    26     4     5   ar
    27     5     6   ar
    28     6    33    1
    29    33    34    1
    30    34    35   ar
    31    35    36   ar
    32    36    37    1
    33    36    38   ar
    34    38    42    1
    35    42    43    1
    36    43    44    2
    37    43    45    1
    38    45    46    1
    39    46    47    1
    40    47    48    1
    41    48    58    1
    42    58    59    2
    43    58    60    1
    44    48    49    1
    45    49    50    1
    46    49    51    1
    47    51    52    1
    48    51    53    1
    49    53    54    1
    50    38    39   ar
    51    39    40   ar
    52    40    41    1
    53    24    25   ar
    54    25    26    1
    55    25    20   ar
    56    29    27    1
    57     6     1   ar
    58    40    34   ar
    59    53    46    1
    60    15    16    1
    61     9    10    1
    62    60    61    1
    63    50    55    1
    64    52    56    1
    65    54    57    1
@<TRIPOS>MOLECULE
*****
 61 65 0 0 0
SMALL
GASTEIGER

@<TRIPOS>ATOM
      1 C          49.5907   11.8018  -19.8254 C.ar    1  UNL1        0.0993
      2 C          49.7849   11.7905  -18.4340 C.ar    1  UNL1        0.0235
      3 C          50.8763   12.4533  -17.8499 C.ar    1  UNL1        0.0548
      4 C          51.7697   13.1523  -18.6758 C.ar    1  UNL1        0.0077
      5 C          51.5828   13.1753  -20.0589 C.ar    1  UNL1        0.0390
      6 C          50.4911   12.5236  -20.6406 C.ar    1  UNL1        0.1598
      7 C          51.0834   12.4231  -16.3829 C.2     1  UNL1        0.2458
      8 O          52.1189   12.9551  -15.8997 O.2     1  UNL1       -0.2701
      9 N          50.1274   11.7770  -15.5177 N.am    1  UNL1       -0.3040
     10 H          49.4349   11.1350  -15.9665 H       1  UNL1        0.1496
     11 C          50.0558   11.9593  -14.0545 C.3     1  UNL1        0.0572
     12 C          51.2172   11.1880  -13.3940 C.3     1  UNL1        0.0196
     13 C          48.7269   11.3962  -13.5144 C.3     1  UNL1        0.0196
     14 C          50.1934   13.4512  -13.6936 C.3     1  UNL1        0.0196
     15 N          48.5377   11.0236  -20.4178 N.pl3   1  UNL1       -0.2120
     16 H          47.5434   11.2862  -20.2369 H       1  UNL1        0.1738
     17 S          48.8244    9.5167  -21.2293 S.O2    1  UNL1        0.0745
     18 O          47.5642    8.6982  -21.2146 O.2     1  UNL1       -0.1499
     19 O          49.8879    8.7615  -20.4816 O.2     1  UNL1       -0.1499
     20 C          49.1033   10.9674  -25.0525 C.ar    1  UNL1        0.0152
     21 C          50.2337   10.2538  -25.5394 C.ar    1  UNL1       -0.0232
     22 C          50.8890    9.3466  -24.6930 C.ar    1  UNL1       -0.0031
     23 C          50.4229    9.1036  -23.4071 C.ar    1  UNL1        0.0207
     24 C          49.3137    9.7918  -22.9089 C.ar    1  UNL1        0.1354
     25 C          48.6524   10.7318  -23.7268 C.ar    1  UNL1        0.0746
     26 CL         47.2847   11.6465  -23.0735 Cl      1  UNL1       -0.0811
     27 C          50.8402   10.5501  -26.8955 C.3     1  UNL1        0.0221
     28 C          52.1529   11.3301  -26.9170 C.3     1  UNL1        0.0047
     29 C          52.1578    9.8374  -27.1739 C.3     1  UNL1        0.0047
     30 C          48.4185   12.0331  -25.8986 C.3     1  UNL1        0.1693
     31 C          47.0762   11.2191  -27.6093 C.3     1  UNL1        0.1746
     32 O          47.1061   11.6523  -26.2679 O.3     1  UNL1       -0.3463
     33 O          50.3331   12.6026  -22.0313 O.3     1  UNL1       -0.4513
     34 C          50.2221   13.7998  -22.7571 C.ar    1  UNL1        0.1580
     35 C          49.1922   14.7240  -22.5032 C.ar    1  UNL1        0.0677
     36 C          49.0949   15.9003  -23.2507 C.ar    1  UNL1        0.1398
     37 F          48.0912   16.7739  -22.9825 F       1  UNL1       -0.2044
     38 C          50.0316   16.1745  -24.2621 C.ar    1  UNL1        0.0175
     39 C          51.0799   15.2694  -24.4905 C.ar    1  UNL1        0.0130
     40 C          51.1748   14.0900  -23.7442 C.ar    1  UNL1        0.0919
     41 CL         52.4881   12.9694  -24.0694 Cl      1  UNL1       -0.0791
     42 C          49.9588   17.4544  -25.0503 C.3     1  UNL1        0.1382
     43 C          50.2935   17.1909  -26.4825 C.2     1  UNL1        0.3234
     44 O          51.3497   17.6708  -26.9768 O.2     1  UNL1       -0.2497
     45 O          49.3980   16.4606  -27.2721 O.3     1  UNL1       -0.4215
     46 C          47.9793   16.5343  -27.1352 C.3     1  UNL1        0.3207
     47 O          47.5667   15.4998  -26.2630 O.3     1  UNL1       -0.3070
     48 C          46.2141   15.6879  -25.8726 C.3     1  UNL1        0.2456
     49 C          45.2570   15.8823  -27.0925 C.3     1  UNL1        0.1781
     50 O          44.7953   17.2089  -27.1331 O.3     1  UNL1       -0.3790
     51 C          45.9845   15.5667  -28.4142 C.3     1  UNL1        0.1733
     52 O          46.2744   14.1927  -28.4825 O.3     1  UNL1       -0.3793
     53 C          47.3030   16.3694  -28.5209 C.3     1  UNL1        0.2106
     54 O          47.0483   17.6407  -29.0626 O.3     1  UNL1       -0.3766
     55 H          44.1202   17.2990  -26.4105 H       1  UNL1        0.2106
     56 H          45.4213   13.7269  -28.6857 H       1  UNL1        0.2105
     57 H          46.9318   17.5199  -30.0414 H       1  UNL1        0.2107
     58 C          45.7888   14.4960  -25.0667 C.2     1  UNL1        0.3439
     59 O          45.9691   14.4795  -23.8193 O.2     1  UNL1       -0.2475
     60 O          45.1520   13.4263  -25.6891 O.3     1  UNL1       -0.4785
     61 H          44.8435   12.6230  -25.1549 H       1  UNL1        0.2951
@<TRIPOS>BOND
     1    31    32    1
     2    32    30    1
     3    30    20    1
     4    20    21   ar
     5    21    27    1
     6    27    28    1
     7    28    29    1
     8    21    22   ar
     9    22    23   ar
    10    23    24   ar
    11    24    17    1
    12    17    18    2
    13    17    19    2
    14    17    15    1
    15    15     1    1
    16     1     2   ar
    17     2     3   ar
    18     3     7    1
    19     7     8    2
    20     7     9   am
    21     9    11    1
    22    11    12    1
    23    11    13    1
    24    11    14    1
    25     3     4   ar
    26     4     5   ar
    27     5     6   ar
    28     6    33    1
    29    33    34    1
    30    34    35   ar
    31    35    36   ar
    32    36    37    1
    33    36    38   ar
    34    38    42    1
    35    42    43    1
    36    43    44    2
    37    43    45    1
    38    45    46    1
    39    46    47    1
    40    47    48    1
    41    48    58    1
    42    58    59    2
    43    58    60    1
    44    48    49    1
    45    49    50    1
    46    49    51    1
    47    51    52    1
    48    51    53    1
    49    53    54    1
    50    38    39   ar
    51    39    40   ar
    52    40    41    1
    53    24    25   ar
    54    25    26    1
    55    25    20   ar
    56    29    27    1
    57     6     1   ar
    58    40    34   ar
    59    53    46    1
    60    15    16    1
    61     9    10    1
    62    60    61    1
    63    50    55    1
    64    52    56    1
    65    54    57    1
@<TRIPOS>MOLECULE
*****
 61 65 0 0 0
SMALL
GASTEIGER

@<TRIPOS>ATOM
      1 C          50.1166    9.5492  -27.8029 C.ar    1  UNL1        0.0993
      2 C          51.2270    9.0440  -28.4997 C.ar    1  UNL1        0.0235
      3 C          51.0689    8.3607  -29.7162 C.ar    1  UNL1        0.0548
      4 C          49.7792    8.2035  -30.2461 C.ar    1  UNL1        0.0077
      5 C          48.6694    8.7068  -29.5653 C.ar    1  UNL1        0.0390
      6 C          48.8267    9.3955  -28.3588 C.ar    1  UNL1        0.1598
      7 C          52.2438    7.8166  -30.4370 C.2     1  UNL1        0.2458
      8 O          52.1440    7.5644  -31.6679 O.2     1  UNL1       -0.2701
      9 N          53.4797    7.5576  -29.7403 N.am    1  UNL1       -0.3040
     10 H          53.4425    7.5315  -28.6957 H       1  UNL1        0.1496
     11 C          54.7845    7.3316  -30.3927 C.3     1  UNL1        0.0572
     12 C          55.6617    6.4562  -29.4740 C.3     1  UNL1        0.0196
     13 C          55.5043    8.6754  -30.6183 C.3     1  UNL1        0.0196
     14 C          54.5926    6.5935  -31.7319 C.3     1  UNL1        0.0196
     15 N          50.2826   10.1425  -26.5046 N.pl3   1  UNL1       -0.2120
     16 H          50.2812   11.1827  -26.4133 H       1  UNL1        0.1738
     17 S          50.7279    9.2243  -25.1010 S.O2    1  UNL1        0.0745
     18 O          52.2219    9.0673  -25.0649 O.2     1  UNL1       -0.1499
     19 O          50.1107    7.8572  -25.2038 O.2     1  UNL1       -0.1499
     20 C          50.2812   11.9237  -22.0494 C.ar    1  UNL1        0.0152
     21 C          49.2129   11.3387  -21.3142 C.ar    1  UNL1       -0.0232
     22 C          48.6491   10.1349  -21.7637 C.ar    1  UNL1       -0.0031
     23 C          49.1486    9.4867  -22.8862 C.ar    1  UNL1        0.0207
     24 C          50.1982   10.0421  -23.6222 C.ar    1  UNL1        0.1354
     25 C          50.7653   11.2666  -23.2113 C.ar    1  UNL1        0.0746
     26 CL         52.0541   11.9990  -24.1790 Cl      1  UNL1       -0.0811
     27 C          48.5680   12.0497  -20.1423 C.3     1  UNL1        0.0221
     28 C          47.0469   12.1838  -20.1592 C.3     1  UNL1        0.0047
     29 C          47.7043   11.1620  -19.2549 C.3     1  UNL1        0.0047
     30 C          50.8603   13.2771  -21.6577 C.3     1  UNL1        0.1693
     31 C          52.2275   13.6216  -19.8129 C.3     1  UNL1        0.1746
     32 O          52.1746   13.1613  -21.1445 O.3     1  UNL1       -0.3463
     33 O          47.6823    9.9066  -27.7307 O.3     1  UNL1       -0.4513
     34 C          47.1513   11.1874  -27.9548 C.ar    1  UNL1        0.1580
     35 C          46.6569   11.5712  -29.2147 C.ar    1  UNL1        0.0677
     36 C          46.1485   12.8570  -29.4153 C.ar    1  UNL1        0.1398
     37 F          45.6774   13.1988  -30.6415 F       1  UNL1       -0.2044
     38 C          46.1210   13.7794  -28.3551 C.ar    1  UNL1        0.0175
     39 C          46.5810   13.3841  -27.0892 C.ar    1  UNL1        0.0130
     40 C          47.0932   12.0976  -26.8898 C.ar    1  UNL1        0.0919
     41 CL         47.6788   11.6420  -25.2974 Cl      1  UNL1       -0.0791
     42 C          45.5435   15.1555  -28.5486 C.3     1  UNL1        0.1382
     43 C          46.2584   16.1358  -27.6764 C.2     1  UNL1        0.3234
     44 O          45.9504   16.2292  -26.4571 O.2     1  UNL1       -0.2497
     45 O          47.2229   16.9786  -28.2405 O.3     1  UNL1       -0.4215
     46 C          48.5220   17.1790  -27.6847 C.3     1  UNL1        0.3207
     47 O          48.7599   16.1533  -26.7400 O.3     1  UNL1       -0.3070
     48 C          50.1276   16.1367  -26.3572 C.3     1  UNL1        0.2456
     49 C          50.6379   17.5368  -25.8867 C.3     1  UNL1        0.1781
     50 O          51.5361   18.0619  -26.8312 O.3     1  UNL1       -0.3790
     51 C          49.4621   18.5188  -25.7168 C.3     1  UNL1        0.1733
     52 O          48.6591   18.1183  -24.6345 O.3     1  UNL1       -0.3793
     53 C          48.5975   18.5679  -26.9991 C.3     1  UNL1        0.2106
     54 O          49.1343   19.4990  -27.9043 O.3     1  UNL1       -0.3766
     55 H          52.3869   17.5609  -26.7261 H       1  UNL1        0.2106
     56 H          49.1516   18.3558  -23.8055 H       1  UNL1        0.2105
     57 H          48.8737   20.4008  -27.5801 H       1  UNL1        0.2107
     58 C          50.2944   15.1295  -25.2577 C.2     1  UNL1        0.3439
     59 O          50.6085   15.5071  -24.0970 O.2     1  UNL1       -0.2475
     60 O          50.0568   13.7810  -25.5073 O.3     1  UNL1       -0.4785
     61 H          50.1482   13.0922  -24.7703 H       1  UNL1        0.2951
@<TRIPOS>BOND
     1    31    32    1
     2    32    30    1
     3    30    20    1
     4    20    21   ar
     5    21    27    1
     6    27    28    1
     7    28    29    1
     8    21    22   ar
     9    22    23   ar
    10    23    24   ar
    11    24    17    1
    12    17    18    2
    13    17    19    2
    14    17    15    1
    15    15     1    1
    16     1     2   ar
    17     2     3   ar
    18     3     7    1
    19     7     8    2
    20     7     9   am
    21     9    11    1
    22    11    12    1
    23    11    13    1
    24    11    14    1
    25     3     4   ar
    26     4     5   ar
    27     5     6   ar
    28     6    33    1
    29    33    34    1
    30    34    35   ar
    31    35    36   ar
    32    36    37    1
    33    36    38   ar
    34    38    42    1
    35    42    43    1
    36    43    44    2
    37    43    45    1
    38    45    46    1
    39    46    47    1
    40    47    48    1
    41    48    58    1
    42    58    59    2
    43    58    60    1
    44    48    49    1
    45    49    50    1
    46    49    51    1
    47    51    52    1
    48    51    53    1
    49    53    54    1
    50    38    39   ar
    51    39    40   ar
    52    40    41    1
    53    24    25   ar
    54    25    26    1
    55    25    20   ar
    56    29    27    1
    57     6     1   ar
    58    40    34   ar
    59    53    46    1
    60    15    16    1
    61     9    10    1
    62    60    61    1
    63    50    55    1
    64    52    56    1
    65    54    57    1
@<TRIPOS>MOLECULE
*****
 61 65 0 0 0
SMALL
GASTEIGER

@<TRIPOS>ATOM
      1 C          48.1767   10.9242  -21.4299 C.ar    1  UNL1        0.0993
      2 C          48.7662   10.8450  -20.1571 C.ar    1  UNL1        0.0235
      3 C          48.1882   11.4873  -19.0503 C.ar    1  UNL1        0.0548
      4 C          46.9919   12.1995  -19.2246 C.ar    1  UNL1        0.0077
      5 C          46.3942   12.2795  -20.4835 C.ar    1  UNL1        0.0390
      6 C          46.9639   11.6325  -21.5843 C.ar    1  UNL1        0.1598
      7 C          48.8249   11.4126  -17.7142 C.2     1  UNL1        0.2458
      8 O          49.7357   10.5641  -17.5166 O.2     1  UNL1       -0.2701
      9 N          48.3975   12.2818  -16.6456 N.am    1  UNL1       -0.3040
     10 H          47.4845   12.7763  -16.7686 H       1  UNL1        0.1496
     11 C          49.1540   12.5234  -15.4011 C.3     1  UNL1        0.0572
     12 C          50.6586   12.5981  -15.7333 C.3     1  UNL1        0.0196
     13 C          48.9301   11.3640  -14.4110 C.3     1  UNL1        0.0196
     14 C          48.7276   13.8616  -14.7668 C.3     1  UNL1        0.0196
     15 N          48.8400   10.3609  -22.5736 N.pl3   1  UNL1       -0.2120
     16 H          48.8453    9.3248  -22.7032 H       1  UNL1        0.1738
     17 S          49.8456   11.2974  -23.6334 S.O2    1  UNL1        0.0745
     18 O          51.2779   10.8790  -23.4557 O.2     1  UNL1       -0.1499
     19 O          49.7257   12.7475  -23.2547 O.2     1  UNL1       -0.1499
     20 C          49.5335    9.8337  -27.4490 C.ar    1  UNL1        0.0152
     21 C          48.4897   10.6453  -27.9741 C.ar    1  UNL1       -0.0232
     22 C          47.9009   11.6207  -27.1551 C.ar    1  UNL1       -0.0031
     23 C          48.3530   11.8338  -25.8589 C.ar    1  UNL1        0.0207
     24 C          49.3779   11.0497  -25.3234 C.ar    1  UNL1        0.1354
     25 C          49.9687   10.0415  -26.1135 C.ar    1  UNL1        0.0746
     26 CL         51.2252    9.0093  -25.4135 Cl      1  UNL1       -0.0811
     27 C          47.8946   10.3915  -29.3439 C.3     1  UNL1        0.0221
     28 C          46.5464    9.6763  -29.3969 C.3     1  UNL1        0.0047
     29 C          46.6183   11.1698  -29.6386 C.3     1  UNL1        0.0047
     30 C          50.1365    8.6979  -28.2655 C.3     1  UNL1        0.1693
     31 C          51.7611    8.1889  -29.8444 C.3     1  UNL1        0.1746
     32 O          51.4194    9.0285  -28.7645 O.3     1  UNL1       -0.3463
     33 O          46.3076   11.7197  -22.8200 O.3     1  UNL1       -0.4513
     34 C          46.2163   12.8862  -23.5967 C.ar    1  UNL1        0.1580
     35 C          46.9067   14.0612  -23.2477 C.ar    1  UNL1        0.0677
     36 C          46.7860   15.2132  -24.0290 C.ar    1  UNL1        0.1398
     37 F          47.4649   16.3319  -23.6682 F       1  UNL1       -0.2044
     38 C          45.9759   15.2065  -25.1775 C.ar    1  UNL1        0.0175
     39 C          45.3161   14.0234  -25.5452 C.ar    1  UNL1        0.0130
     40 C          45.4344   12.8712  -24.7606 C.ar    1  UNL1        0.0919
     41 CL         44.5792   11.4131  -25.2388 Cl      1  UNL1       -0.0791
     42 C          45.8655   16.4297  -26.0470 C.3     1  UNL1        0.1382
     43 C          46.3986   16.1352  -27.4115 C.2     1  UNL1        0.3234
     44 O          46.0730   15.0646  -27.9929 O.2     1  UNL1       -0.2497
     45 O          47.2998   17.0282  -28.0024 O.3     1  UNL1       -0.4215
     46 C          48.6521   17.1876  -27.5750 C.3     1  UNL1        0.3207
     47 O          48.9465   16.1570  -26.6518 O.3     1  UNL1       -0.3070
     48 C          50.3434   16.0968  -26.4019 C.3     1  UNL1        0.2456
     49 C          50.9414   17.4807  -25.9904 C.3     1  UNL1        0.1781
     50 O          51.7611   17.9740  -27.0197 O.3     1  UNL1       -0.3790
     51 C          49.8196   18.5009  -25.7139 C.3     1  UNL1        0.1733
     52 O          49.1118   18.1294  -24.5573 O.3     1  UNL1       -0.3793
     53 C          48.8378   18.5750  -26.9076 C.3     1  UNL1        0.2106
     54 O          49.3148   19.4859  -27.8653 O.3     1  UNL1       -0.3766
     55 H          52.6015   17.4458  -26.9939 H       1  UNL1        0.2106
     56 H          49.6891   18.3527  -23.7808 H       1  UNL1        0.2105
     57 H          49.1157   20.3965  -27.5227 H       1  UNL1        0.2107
     58 C          50.5826   15.0874  -25.3179 C.2     1  UNL1        0.3439
     59 O          51.1194   13.9805  -25.5924 O.2     1  UNL1       -0.2475
     60 O          50.2545   15.3907  -23.9998 O.3     1  UNL1       -0.4785
     61 H          50.4268   14.7259  -23.2553 H       1  UNL1        0.2951
@<TRIPOS>BOND
     1    31    32    1
     2    32    30    1
     3    30    20    1
     4    20    21   ar
     5    21    27    1
     6    27    28    1
     7    28    29    1
     8    21    22   ar
     9    22    23   ar
    10    23    24   ar
    11    24    17    1
    12    17    18    2
    13    17    19    2
    14    17    15    1
    15    15     1    1
    16     1     2   ar
    17     2     3   ar
    18     3     7    1
    19     7     8    2
    20     7     9   am
    21     9    11    1
    22    11    12    1
    23    11    13    1
    24    11    14    1
    25     3     4   ar
    26     4     5   ar
    27     5     6   ar
    28     6    33    1
    29    33    34    1
    30    34    35   ar
    31    35    36   ar
    32    36    37    1
    33    36    38   ar
    34    38    42    1
    35    42    43    1
    36    43    44    2
    37    43    45    1
    38    45    46    1
    39    46    47    1
    40    47    48    1
    41    48    58    1
    42    58    59    2
    43    58    60    1
    44    48    49    1
    45    49    50    1
    46    49    51    1
    47    51    52    1
    48    51    53    1
    49    53    54    1
    50    38    39   ar
    51    39    40   ar
    52    40    41    1
    53    24    25   ar
    54    25    26    1
    55    25    20   ar
    56    29    27    1
    57     6     1   ar
    58    40    34   ar
    59    53    46    1
    60    15    16    1
    61     9    10    1
    62    60    61    1
    63    50    55    1
    64    52    56    1
    65    54    57    1
@<TRIPOS>MOLECULE
*****
 61 65 0 0 0
SMALL
GASTEIGER

@<TRIPOS>ATOM
      1 C          50.7587   11.1230  -25.1690 C.ar    1  UNL1        0.0993
      2 C          51.1113   10.6896  -26.4580 C.ar    1  UNL1        0.0235
      3 C          52.4227   10.8367  -26.9380 C.ar    1  UNL1        0.0548
      4 C          53.3937   11.4079  -26.1014 C.ar    1  UNL1        0.0077
      5 C          53.0559   11.8363  -24.8166 C.ar    1  UNL1        0.0390
      6 C          51.7526   11.6816  -24.3344 C.ar    1  UNL1        0.1598
      7 C          52.7829   10.3919  -28.3048 C.2     1  UNL1        0.2458
      8 O          52.8957   11.2524  -29.2189 O.2     1  UNL1       -0.2701
      9 N          52.9821    8.9933  -28.5951 N.am    1  UNL1       -0.3040
     10 H          52.6303    8.3048  -27.8913 H       1  UNL1        0.1496
     11 C          53.6455    8.4692  -29.8053 C.3     1  UNL1        0.0572
     12 C          54.2456    7.0834  -29.4900 C.3     1  UNL1        0.0196
     13 C          54.7888    9.4098  -30.2328 C.3     1  UNL1        0.0196
     14 C          52.6248    8.3100  -30.9489 C.3     1  UNL1        0.0196
     15 N          49.3895   11.0728  -24.7354 N.pl3   1  UNL1       -0.2120
     16 H          49.1061   10.3716  -24.0155 H       1  UNL1        0.1738
     17 S          48.1211   11.9590  -25.5210 S.O2    1  UNL1        0.0745
     18 O          46.8570   11.8319  -24.7185 O.2     1  UNL1       -0.1499
     19 O          47.8825   11.3579  -26.8783 O.2     1  UNL1       -0.1499
     20 C          48.0701   16.0506  -25.2860 C.ar    1  UNL1        0.0152
     21 C          49.3520   16.3757  -25.8106 C.ar    1  UNL1       -0.0232
     22 C          50.2065   15.3423  -26.2236 C.ar    1  UNL1       -0.0031
     23 C          49.8011   14.0147  -26.1697 C.ar    1  UNL1        0.0207
     24 C          48.5460   13.6726  -25.6599 C.ar    1  UNL1        0.1354
     25 C          47.6770   14.6884  -25.2094 C.ar    1  UNL1        0.0746
     26 CL         46.1120   14.2493  -24.5080 Cl      1  UNL1       -0.0811
     27 C          49.8804   17.7954  -25.8021 C.3     1  UNL1        0.0221
     28 C          51.1795   18.0514  -25.0411 C.3     1  UNL1        0.0047
     29 C          51.1905   17.9924  -26.5545 C.3     1  UNL1        0.0047
     30 C          47.1465   17.1292  -24.7345 C.3     1  UNL1        0.1693
     31 C          46.2804   18.1253  -22.8243 C.3     1  UNL1        0.1746
     32 O          46.9580   17.0003  -23.3375 O.3     1  UNL1       -0.3463
     33 O          51.4732   12.1014  -23.0264 O.3     1  UNL1       -0.4513
     34 C          50.2043   12.0578  -22.4260 C.ar    1  UNL1        0.1580
     35 C          49.6246   10.8444  -22.0130 C.ar    1  UNL1        0.0677
     36 C          48.3537   10.8269  -21.4328 C.ar    1  UNL1        0.1398
     37 F          47.8202    9.6412  -21.0429 F       1  UNL1       -0.2044
     38 C          47.6435   12.0260  -21.2506 C.ar    1  UNL1        0.0175
     39 C          48.2374   13.2400  -21.6298 C.ar    1  UNL1        0.0130
     40 C          49.5085   13.2566  -22.2140 C.ar    1  UNL1        0.0919
     41 CL         50.2143   14.7917  -22.6950 Cl      1  UNL1       -0.0791
     42 C          46.2891   12.0248  -20.5947 C.3     1  UNL1        0.1382
     43 C          46.4410   12.1160  -19.1110 C.2     1  UNL1        0.3234
     44 O          45.5091   11.7169  -18.3609 O.2     1  UNL1       -0.2497
     45 O          47.5954   12.6979  -18.5750 O.3     1  UNL1       -0.4215
     46 C          48.2516   12.2198  -17.4012 C.3     1  UNL1        0.3207
     47 O          48.2576   13.2620  -16.4447 O.3     1  UNL1       -0.3070
     48 C          48.6462   12.7667  -15.1715 C.3     1  UNL1        0.2456
     49 C          49.9890   11.9688  -15.2204 C.3     1  UNL1        0.1781
     50 O          49.7431   10.6025  -15.0028 O.3     1  UNL1       -0.3790
     51 C          50.6775   12.1400  -16.5887 C.3     1  UNL1        0.1733
     52 O          51.1170   13.4670  -16.7387 O.3     1  UNL1       -0.3793
     53 C          49.7038   11.7949  -17.7407 C.3     1  UNL1        0.2106
     54 O          49.7312   10.4130  -17.9944 O.3     1  UNL1       -0.3766
     55 H          49.5533   10.4969  -14.0339 H       1  UNL1        0.2106
     56 H          51.9243   13.5703  -16.1697 H       1  UNL1        0.2105
     57 H          50.5586   10.2304  -18.5122 H       1  UNL1        0.2107
     58 C          48.7707   13.9312  -14.2336 C.2     1  UNL1        0.3439
     59 O          49.9050   14.2870  -13.8149 O.2     1  UNL1       -0.2475
     60 O          47.6379   14.6492  -13.8614 O.3     1  UNL1       -0.4785
     61 H          47.7092   15.4484  -13.2432 H       1  UNL1        0.2951
@<TRIPOS>BOND
     1    31    32    1
     2    32    30    1
     3    30    20    1
     4    20    21   ar
     5    21    27    1
     6    27    28    1
     7    28    29    1
     8    21    22   ar
     9    22    23   ar
    10    23    24   ar
    11    24    17    1
    12    17    18    2
    13    17    19    2
    14    17    15    1
    15    15     1    1
    16     1     2   ar
    17     2     3   ar
    18     3     7    1
    19     7     8    2
    20     7     9   am
    21     9    11    1
    22    11    12    1
    23    11    13    1
    24    11    14    1
    25     3     4   ar
    26     4     5   ar
    27     5     6   ar
    28     6    33    1
    29    33    34    1
    30    34    35   ar
    31    35    36   ar
    32    36    37    1
    33    36    38   ar
    34    38    42    1
    35    42    43    1
    36    43    44    2
    37    43    45    1
    38    45    46    1
    39    46    47    1
    40    47    48    1
    41    48    58    1
    42    58    59    2
    43    58    60    1
    44    48    49    1
    45    49    50    1
    46    49    51    1
    47    51    52    1
    48    51    53    1
    49    53    54    1
    50    38    39   ar
    51    39    40   ar
    52    40    41    1
    53    24    25   ar
    54    25    26    1
    55    25    20   ar
    56    29    27    1
    57     6     1   ar
    58    40    34   ar
    59    53    46    1
    60    15    16    1
    61     9    10    1
    62    60    61    1
    63    50    55    1
    64    52    56    1
    65    54    57    1
@<TRIPOS>MOLECULE
*****
 61 65 0 0 0
SMALL
GASTEIGER

@<TRIPOS>ATOM
      1 C          49.8139   11.5674  -25.9761 C.ar    1  UNL1        0.0993
      2 C          50.2209   10.5217  -26.8215 C.ar    1  UNL1        0.0235
      3 C          51.5220   10.4810  -27.3480 C.ar    1  UNL1        0.0548
      4 C          52.4286   11.4943  -27.0016 C.ar    1  UNL1        0.0077
      5 C          52.0368   12.5347  -26.1574 C.ar    1  UNL1        0.0390
      6 C          50.7444   12.5710  -25.6251 C.ar    1  UNL1        0.1598
      7 C          51.9387    9.3833  -28.2521 C.2     1  UNL1        0.2458
      8 O          51.0813    8.5375  -28.6239 O.2     1  UNL1       -0.2701
      9 N          53.3091    9.2677  -28.6865 N.am    1  UNL1       -0.3040
     10 H          54.0249    9.8186  -28.1600 H       1  UNL1        0.1496
     11 C          53.7687    8.4352  -29.8157 C.3     1  UNL1        0.0572
     12 C          53.8613    6.9664  -29.3530 C.3     1  UNL1        0.0196
     13 C          55.1672    8.8907  -30.2755 C.3     1  UNL1        0.0196
     14 C          52.7662    8.5164  -30.9834 C.3     1  UNL1        0.0196
     15 N          48.4477   11.6582  -25.5396 N.pl3   1  UNL1       -0.2120
     16 H          48.1375   11.1046  -24.7104 H       1  UNL1        0.1738
     17 S          47.2162   12.4580  -26.4644 S.O2    1  UNL1        0.0745
     18 O          45.8716   12.1559  -25.8652 O.2     1  UNL1       -0.1499
     19 O          47.2409   11.9189  -27.8677 O.2     1  UNL1       -0.1499
     20 C          46.9240   16.4673  -25.6654 C.ar    1  UNL1        0.0152
     21 C          48.0134   16.9822  -26.4218 C.ar    1  UNL1       -0.0232
     22 C          48.8158   16.0978  -27.1585 C.ar    1  UNL1       -0.0031
     23 C          48.5339   14.7380  -27.1950 C.ar    1  UNL1        0.0207
     24 C          47.4682   14.2109  -26.4613 C.ar    1  UNL1        0.1354
     25 C          46.6620   15.0720  -25.6876 C.ar    1  UNL1        0.0746
     26 CL         45.3498   14.3947  -24.7112 Cl      1  UNL1       -0.0811
     27 C          48.4227   18.4385  -26.3409 C.3     1  UNL1        0.0221
     28 C          49.7281   18.7566  -25.6151 C.3     1  UNL1        0.0047
     29 C          49.6781   18.7925  -27.1285 C.3     1  UNL1        0.0047
     30 C          46.0849   17.3732  -24.7733 C.3     1  UNL1        0.1693
     31 C          46.8436   18.0766  -22.6946 C.3     1  UNL1        0.1746
     32 O          46.2138   17.0341  -23.4049 O.3     1  UNL1       -0.3463
     33 O          50.4112   13.6217  -24.7589 O.3     1  UNL1       -0.4513
     34 C          50.8432   13.7279  -23.4268 C.ar    1  UNL1        0.1580
     35 C          52.1731   13.4544  -23.0582 C.ar    1  UNL1        0.0677
     36 C          52.5733   13.5520  -21.7231 C.ar    1  UNL1        0.1398
     37 F          53.8632   13.2832  -21.3974 F       1  UNL1       -0.2044
     38 C          51.6492   13.9314  -20.7343 C.ar    1  UNL1        0.0175
     39 C          50.3316   14.2391  -21.1079 C.ar    1  UNL1        0.0130
     40 C          49.9305   14.1377  -22.4443 C.ar    1  UNL1        0.0919
     41 CL         48.2687   14.5112  -22.8745 Cl      1  UNL1       -0.0791
     42 C          52.0759   14.0746  -19.2984 C.3     1  UNL1        0.1382
     43 C          51.8428   12.7927  -18.5668 C.2     1  UNL1        0.3234
     44 O          52.8051   12.0028  -18.3663 O.2     1  UNL1       -0.2497
     45 O          50.5444   12.4603  -18.1639 O.3     1  UNL1       -0.4215
     46 C          49.7654   11.4309  -18.7725 C.3     1  UNL1        0.3207
     47 O          50.0440   11.4295  -20.1594 O.3     1  UNL1       -0.3070
     48 C          49.5154   10.2622  -20.7720 C.3     1  UNL1        0.2456
     49 C          48.0021   10.0453  -20.4483 C.3     1  UNL1        0.1781
     50 O          47.8473    8.9353  -19.6006 O.3     1  UNL1       -0.3790
     51 C          47.4071   11.2877  -19.7569 C.3     1  UNL1        0.1733
     52 O          47.3642   12.3625  -20.6622 O.3     1  UNL1       -0.3793
     53 C          48.2566   11.6926  -18.5286 C.3     1  UNL1        0.2106
     54 O          47.8410   10.9687  -17.3982 O.3     1  UNL1       -0.3766
     55 H          47.9876    8.1267  -20.1597 H       1  UNL1        0.2106
     56 H          46.6127   12.1849  -21.2865 H       1  UNL1        0.2105
     57 H          47.0021   11.3915  -17.0763 H       1  UNL1        0.2107
     58 C          49.7153   10.3793  -22.2544 C.2     1  UNL1        0.3439
     59 O          50.8749   10.3084  -22.7433 O.2     1  UNL1       -0.2475
     60 O          48.6157   10.5197  -23.0960 O.3     1  UNL1       -0.4785
     61 H          48.7344   10.5821  -24.1000 H       1  UNL1        0.2951
@<TRIPOS>BOND
     1    31    32    1
     2    32    30    1
     3    30    20    1
     4    20    21   ar
     5    21    27    1
     6    27    28    1
     7    28    29    1
     8    21    22   ar
     9    22    23   ar
    10    23    24   ar
    11    24    17    1
    12    17    18    2
    13    17    19    2
    14    17    15    1
    15    15     1    1
    16     1     2   ar
    17     2     3   ar
    18     3     7    1
    19     7     8    2
    20     7     9   am
    21     9    11    1
    22    11    12    1
    23    11    13    1
    24    11    14    1
    25     3     4   ar
    26     4     5   ar
    27     5     6   ar
    28     6    33    1
    29    33    34    1
    30    34    35   ar
    31    35    36   ar
    32    36    37    1
    33    36    38   ar
    34    38    42    1
    35    42    43    1
    36    43    44    2
    37    43    45    1
    38    45    46    1
    39    46    47    1
    40    47    48    1
    41    48    58    1
    42    58    59    2
    43    58    60    1
    44    48    49    1
    45    49    50    1
    46    49    51    1
    47    51    52    1
    48    51    53    1
    49    53    54    1
    50    38    39   ar
    51    39    40   ar
    52    40    41    1
    53    24    25   ar
    54    25    26    1
    55    25    20   ar
    56    29    27    1
    57     6     1   ar
    58    40    34   ar
    59    53    46    1
    60    15    16    1
    61     9    10    1
    62    60    61    1
    63    50    55    1
    64    52    56    1
    65    54    57    1
@<TRIPOS>MOLECULE
*****
 61 65 0 0 0
SMALL
GASTEIGER

@<TRIPOS>ATOM
      1 C          45.7147   14.3256  -25.3288 C.ar    1  UNL1        0.0993
      2 C          45.6783   14.5514  -26.7150 C.ar    1  UNL1        0.0235
      3 C          45.7850   13.4874  -27.6250 C.ar    1  UNL1        0.0548
      4 C          45.9088   12.1796  -27.1318 C.ar    1  UNL1        0.0077
      5 C          45.9398   11.9431  -25.7565 C.ar    1  UNL1        0.0390
      6 C          45.8241   13.0009  -24.8496 C.ar    1  UNL1        0.1598
      7 C          45.7621   13.7355  -29.0858 C.2     1  UNL1        0.2458
      8 O          46.0914   14.8725  -29.5189 O.2     1  UNL1       -0.2701
      9 N          45.3496   12.7007  -30.0017 N.am    1  UNL1       -0.3040
     10 H          44.8450   11.8789  -29.5978 H       1  UNL1        0.1496
     11 C          45.5904   12.7181  -31.4581 C.3     1  UNL1        0.0572
     12 C          44.2947   12.3067  -32.1874 C.3     1  UNL1        0.0196
     13 C          46.6972   11.7105  -31.8246 C.3     1  UNL1        0.0196
     14 C          45.9805   14.1359  -31.9192 C.3     1  UNL1        0.0196
     15 N          45.7217   15.4328  -24.4128 N.pl3   1  UNL1       -0.2120
     16 H          44.8177   15.7793  -24.0218 H       1  UNL1        0.1738
     17 S          47.1372   16.3875  -24.1023 S.O2    1  UNL1        0.0745
     18 O          46.8140   17.4328  -23.0723 O.2     1  UNL1       -0.1499
     19 O          47.5374   17.0835  -25.3735 O.2     1  UNL1       -0.1499
     20 C          50.4211   13.9466  -23.8635 C.ar    1  UNL1        0.0152
     21 C          50.6104   13.8714  -22.4554 C.ar    1  UNL1       -0.0232
     22 C          49.7352   14.5669  -21.6074 C.ar    1  UNL1       -0.0031
     23 C          48.6641   15.2873  -22.1206 C.ar    1  UNL1        0.0207
     24 C          48.4582   15.3734  -23.4998 C.ar    1  UNL1        0.1354
     25 C          49.3395   14.7089  -24.3783 C.ar    1  UNL1        0.0746
     26 CL         49.1128   14.8687  -26.1267 Cl      1  UNL1       -0.0811
     27 C          51.8149   13.1817  -21.8485 C.3     1  UNL1        0.0221
     28 C          53.1257   13.9646  -21.8197 C.3     1  UNL1        0.0047
     29 C          52.3167   13.8007  -20.5498 C.3     1  UNL1        0.0047
     30 C          51.4011   13.2903  -24.8275 C.3     1  UNL1        0.1693
     31 C          51.7738   11.4560  -26.2014 C.3     1  UNL1        0.1746
     32 O          50.7937   12.2515  -25.5731 O.3     1  UNL1       -0.3463
     33 O          45.8312   12.7058  -23.4791 O.3     1  UNL1       -0.4513
     34 C          46.8216   11.9524  -22.8281 C.ar    1  UNL1        0.1580
     35 C          47.9569   11.4791  -23.5110 C.ar    1  UNL1        0.0677
     36 C          48.9198   10.7180  -22.8435 C.ar    1  UNL1        0.1398
     37 F          50.0053   10.2758  -23.5280 F       1  UNL1       -0.2044
     38 C          48.7652   10.4226  -21.4781 C.ar    1  UNL1        0.0175
     39 C          47.6506   10.9255  -20.7889 C.ar    1  UNL1        0.0130
     40 C          46.6849   11.6846  -21.4585 C.ar    1  UNL1        0.0919
     41 CL         45.2921   12.2821  -20.5702 Cl      1  UNL1       -0.0791
     42 C          49.8124    9.6340  -20.7392 C.3     1  UNL1        0.1382
     43 C          50.0287   10.2200  -19.3818 C.2     1  UNL1        0.3234
     44 O          50.0978    9.4617  -18.3766 O.2     1  UNL1       -0.2497
     45 O          50.0944   11.6106  -19.2385 O.3     1  UNL1       -0.4215
     46 C          49.7897   12.2971  -18.0249 C.3     1  UNL1        0.3207
     47 O          50.9010   12.1737  -17.1583 O.3     1  UNL1       -0.3070
     48 C          50.7716   13.0577  -16.0542 C.3     1  UNL1        0.2456
     49 C          49.3998   12.9079  -15.3208 C.3     1  UNL1        0.1781
     50 O          48.6078   14.0463  -15.5478 O.3     1  UNL1       -0.3790
     51 C          48.6423   11.6644  -15.8262 C.3     1  UNL1        0.1733
     52 O          49.3194   10.4987  -15.4270 O.3     1  UNL1       -0.3793
     53 C          48.5269   11.6808  -17.3691 C.3     1  UNL1        0.2106
     54 O          47.3984   12.4222  -17.7580 O.3     1  UNL1       -0.3766
     55 H          48.9863   14.7741  -14.9883 H       1  UNL1        0.2106
     56 H          49.1409   10.3783  -14.4576 H       1  UNL1        0.2105
     57 H          46.6061   11.8420  -17.6102 H       1  UNL1        0.2107
     58 C          51.8991   12.7868  -15.1021 C.2     1  UNL1        0.3439
     59 O          52.7542   13.6817  -14.8641 O.2     1  UNL1       -0.2475
     60 O          51.9758   11.5624  -14.4447 O.3     1  UNL1       -0.4785
     61 H          52.7214   11.3722  -13.7860 H       1  UNL1        0.2951
@<TRIPOS>BOND
     1    31    32    1
     2    32    30    1
     3    30    20    1
     4    20    21   ar
     5    21    27    1
     6    27    28    1
     7    28    29    1
     8    21    22   ar
     9    22    23   ar
    10    23    24   ar
    11    24    17    1
    12    17    18    2
    13    17    19    2
    14    17    15    1
    15    15     1    1
    16     1     2   ar
    17     2     3   ar
    18     3     7    1
    19     7     8    2
    20     7     9   am
    21     9    11    1
    22    11    12    1
    23    11    13    1
    24    11    14    1
    25     3     4   ar
    26     4     5   ar
    27     5     6   ar
    28     6    33    1
    29    33    34    1
    30    34    35   ar
    31    35    36   ar
    32    36    37    1
    33    36    38   ar
    34    38    42    1
    35    42    43    1
    36    43    44    2
    37    43    45    1
    38    45    46    1
    39    46    47    1
    40    47    48    1
    41    48    58    1
    42    58    59    2
    43    58    60    1
    44    48    49    1
    45    49    50    1
    46    49    51    1
    47    51    52    1
    48    51    53    1
    49    53    54    1
    50    38    39   ar
    51    39    40   ar
    52    40    41    1
    53    24    25   ar
    54    25    26    1
    55    25    20   ar
    56    29    27    1
    57     6     1   ar
    58    40    34   ar
    59    53    46    1
    60    15    16    1
    61     9    10    1
    62    60    61    1
    63    50    55    1
    64    52    56    1
    65    54    57    1
