@<TRIPOS>MOLECULE
*****
 51 56 0 0 0
SMALL
GASTEIGER

@<TRIPOS>ATOM
      1 O          59.4780   87.0384   12.1611 O.2     1  UNL1       -0.2701
      2 C          59.7426   86.6128   11.0036 C.2     1  UNL1        0.2483
      3 N          60.0740   85.2278   10.8105 N.am    1  UNL1       -0.2945
      4 H          60.3518   84.9063    9.8557 H       1  UNL1        0.1501
      5 C          59.7585   87.5585    9.8627 C.ar    1  UNL1        0.0808
      6 C          59.1110   87.2347    8.6586 C.ar    1  UNL1        0.0080
      7 C          59.1674   88.1023    7.5654 C.ar    1  UNL1        0.0148
      8 C          59.8730   89.3142    7.6493 C.ar    1  UNL1        0.0502
      9 C          60.5032   89.6478    8.8607 C.ar    1  UNL1        0.0443
     10 C          60.4451   88.7836    9.9578 C.ar    1  UNL1        0.1457
     11 F          61.0931   89.1316   11.0987 F       1  UNL1       -0.2040
     12 N          59.9437   90.2033    6.5129 N.pl3   1  UNL1       -0.3040
     13 C          61.2042   90.8829    6.1824 C.3     1  UNL1        0.1123
     14 C          61.3311   91.0849    4.6686 C.3     1  UNL1        0.1136
     15 N          60.1156   91.6828    4.0903 N.pl3   1  UNL1       -0.2897
     16 C          58.8937   91.7769    4.9021 C.3     1  UNL1        0.1136
     17 C          58.7201   90.5197    5.7598 C.3     1  UNL1        0.1123
     18 C          60.1546   92.3003    2.7836 C.ar    1  UNL1        0.1318
     19 C          58.9780   92.7052    2.1289 C.ar    1  UNL1        0.0343
     20 C          59.0576   93.2975    0.8676 C.ar    1  UNL1        0.0083
     21 C          60.3050   93.5087    0.2625 C.ar    1  UNL1        0.0906
     22 C          61.4546   93.0714    0.9371 C.ar    1  UNL1        0.1041
     23 N          61.3525   92.4948    2.1635 N.ar    1  UNL1       -0.2292
     24 C          60.4005   94.1014   -1.1203 C.3     1  UNL1        0.4200
     25 F          60.4613   93.1023   -2.0763 F       1  UNL1       -0.1658
     26 F          59.2968   94.8920   -1.3899 F       1  UNL1       -0.1658
     27 F          61.5417   94.8766   -1.2054 F       1  UNL1       -0.1658
     28 C          60.3507   84.3221   11.9310 C.3     1  UNL1        0.1535
     29 C          61.1772   85.0300   12.9854 C.2     1  UNL1        0.2444
     30 O          62.3851   85.3114   12.7565 O.2     1  UNL1       -0.2730
     31 N          60.5669   85.4360   14.2236 N.am    1  UNL1       -0.2801
     32 H          59.6082   85.0843   14.4443 H       1  UNL1        0.1550
     33 C          61.2425   86.2061   15.2328 C.ar    1  UNL1        0.0876
     34 C          61.8963   85.5792   16.3065 C.ar    1  UNL1        0.0384
     35 C          62.5675   86.3547   17.2540 C.ar    1  UNL1        0.1004
     36 N          62.5996   87.7072   17.1297 N.ar    1  UNL1       -0.2391
     37 C          61.9918   88.3424   16.0936 C.ar    1  UNL1        0.1366
     38 C          61.3057   87.6050   15.1196 C.ar    1  UNL1        0.1664
     39 O          60.6824   88.2528   14.0538 O.3     1  UNL1       -0.5030
     40 H          60.7128   89.2609   13.9552 H       1  UNL1        0.2923
     41 C          59.0255   83.7354   12.4775 C.3     1  UNL1        0.0569
     42 C          58.5556   82.5293   11.7055 C.ar    1  UNL1       -0.0017
     43 C          58.0930   82.5078   10.3919 C.ar    1  UNL1        0.0681
     44 N          57.8698   81.2362    9.9888 N.ar    1  UNL1       -0.3523
     45 C          58.1913   80.4528   11.0323 C.ar    1  UNL1        0.0563
     46 C          58.1556   79.0598   11.0848 C.ar    1  UNL1        0.0170
     47 C          58.5627   78.4355   12.2781 C.ar    1  UNL1        0.0015
     48 C          58.9846   79.2087   13.3817 C.ar    1  UNL1        0.0001
     49 C          59.0046   80.6126   13.3013 C.ar    1  UNL1        0.0012
     50 C          58.6087   81.2042   12.1007 C.ar    1  UNL1        0.0131
     51 H          57.5323   80.9289    9.0496 H       1  UNL1        0.1660
@<TRIPOS>BOND
     1     1     2    2
     2     2     3   am
     3     3    28    1
     4    28    41    1
     5    41    42    1
     6    42    43   ar
     7    43    44   ar
     8    44    45   ar
     9    45    46   ar
    10    46    47   ar
    11    47    48   ar
    12    48    49   ar
    13    49    50   ar
    14    28    29    1
    15    29    30    2
    16    29    31   am
    17    31    33    1
    18    33    34   ar
    19    34    35   ar
    20    35    36   ar
    21    36    37   ar
    22    37    38   ar
    23    38    39    1
    24     2     5    1
    25     5     6   ar
    26     6     7   ar
    27     7     8   ar
    28     8    12    1
    29    12    13    1
    30    13    14    1
    31    14    15    1
    32    15    18    1
    33    18    19   ar
    34    19    20   ar
    35    20    21   ar
    36    21    24    1
    37    24    25    1
    38    24    26    1
    39    24    27    1
    40    21    22   ar
    41    22    23   ar
    42    15    16    1
    43    16    17    1
    44     8     9   ar
    45     9    10   ar
    46    10    11    1
    47    50    42   ar
    48    38    33   ar
    49    10     5   ar
    50    50    45   ar
    51    17    12    1
    52    23    18   ar
    53     3     4    1
    54    44    51    1
    55    31    32    1
    56    39    40    1
@<TRIPOS>MOLECULE
*****
 51 56 0 0 0
SMALL
GASTEIGER

@<TRIPOS>ATOM
      1 O          58.4433   86.4040   11.5833 O.2     1  UNL1       -0.2701
      2 C          59.4654   86.4259   10.8446 C.2     1  UNL1        0.2483
      3 N          60.5718   85.5543   11.1305 N.am    1  UNL1       -0.2945
      4 H          61.4350   85.6304   10.5463 H       1  UNL1        0.1501
      5 C          59.5340   87.3878    9.7194 C.ar    1  UNL1        0.0808
      6 C          58.9988   87.0559    8.4634 C.ar    1  UNL1        0.0080
      7 C          59.1070   87.9408    7.3881 C.ar    1  UNL1        0.0148
      8 C          59.7535   89.1785    7.5422 C.ar    1  UNL1        0.0502
      9 C          60.2705   89.5194    8.8041 C.ar    1  UNL1        0.0443
     10 C          60.1601   88.6378    9.8832 C.ar    1  UNL1        0.1457
     11 F          60.6998   88.9949   11.0765 F       1  UNL1       -0.2040
     12 N          59.8786   90.0860    6.4252 N.pl3   1  UNL1       -0.3040
     13 C          61.1708   90.7199    6.1280 C.3     1  UNL1        0.1123
     14 C          61.3303   90.9461    4.6206 C.3     1  UNL1        0.1136
     15 N          60.1496   91.6044    4.0359 N.pl3   1  UNL1       -0.2897
     16 C          58.9195   91.7324    4.8306 C.3     1  UNL1        0.1136
     17 C          58.6812   90.4668    5.6599 C.3     1  UNL1        0.1123
     18 C          60.2347   92.2453    2.7428 C.ar    1  UNL1        0.1318
     19 C          59.1028   92.8095    2.1285 C.ar    1  UNL1        0.0343
     20 C          59.2261   93.4192    0.8790 C.ar    1  UNL1        0.0083
     21 C          60.4756   93.4892    0.2461 C.ar    1  UNL1        0.0906
     22 C          61.5771   92.8955    0.8802 C.ar    1  UNL1        0.1041
     23 N          61.4327   92.3052    2.0957 N.ar    1  UNL1       -0.2292
     24 C          60.6120   94.1003   -1.1252 C.3     1  UNL1        0.4200
     25 F          59.5144   94.8911   -1.4184 F       1  UNL1       -0.1658
     26 F          61.7463   94.8903   -1.1971 F       1  UNL1       -0.1658
     27 F          60.7049   93.0917   -2.0658 F       1  UNL1       -0.1658
     28 C          60.6735   84.7981   12.3835 C.3     1  UNL1        0.1535
     29 C          60.4332   83.3242   12.1271 C.2     1  UNL1        0.2444
     30 O          61.4000   82.5144   12.1463 O.2     1  UNL1       -0.2730
     31 N          59.0938   82.8395   11.9229 N.am    1  UNL1       -0.2801
     32 H          58.3282   83.5369   11.7852 H       1  UNL1        0.1550
     33 C          58.7604   81.4478   11.7815 C.ar    1  UNL1        0.0876
     34 C          58.1377   80.9660   10.6181 C.ar    1  UNL1        0.0384
     35 C          57.8534   79.6040   10.5006 C.ar    1  UNL1        0.1004
     36 N          58.1903   78.7479   11.5001 N.ar    1  UNL1       -0.2391
     37 C          58.8089   79.1798   12.6303 C.ar    1  UNL1        0.1366
     38 C          59.1128   80.5380   12.7924 C.ar    1  UNL1        0.1664
     39 O          59.7493   80.9850   13.9497 O.3     1  UNL1       -0.5030
     40 H          60.0089   80.3463   14.6923 H       1  UNL1        0.2923
     41 C          62.0303   85.0913   13.0705 C.3     1  UNL1        0.0569
     42 C          61.9134   86.0809   14.2013 C.ar    1  UNL1       -0.0017
     43 C          61.2191   85.9048   15.3957 C.ar    1  UNL1        0.0681
     44 N          61.4296   86.9521   16.2252 N.ar    1  UNL1       -0.3523
     45 C          62.2540   87.7866   15.5696 C.ar    1  UNL1        0.0563
     46 C          62.7802   88.9915   16.0342 C.ar    1  UNL1        0.0170
     47 C          63.6517   89.6996   15.1866 C.ar    1  UNL1        0.0015
     48 C          63.9685   89.1968   13.9056 C.ar    1  UNL1        0.0001
     49 C          63.4180   87.9813   13.4618 C.ar    1  UNL1        0.0012
     50 C          62.5677   87.2935   14.3291 C.ar    1  UNL1        0.0131
     51 H          61.0416   87.0750   17.1869 H       1  UNL1        0.1660
@<TRIPOS>BOND
     1     1     2    2
     2     2     3   am
     3     3    28    1
     4    28    41    1
     5    41    42    1
     6    42    43   ar
     7    43    44   ar
     8    44    45   ar
     9    45    46   ar
    10    46    47   ar
    11    47    48   ar
    12    48    49   ar
    13    49    50   ar
    14    28    29    1
    15    29    30    2
    16    29    31   am
    17    31    33    1
    18    33    34   ar
    19    34    35   ar
    20    35    36   ar
    21    36    37   ar
    22    37    38   ar
    23    38    39    1
    24     2     5    1
    25     5     6   ar
    26     6     7   ar
    27     7     8   ar
    28     8    12    1
    29    12    13    1
    30    13    14    1
    31    14    15    1
    32    15    18    1
    33    18    19   ar
    34    19    20   ar
    35    20    21   ar
    36    21    24    1
    37    24    25    1
    38    24    26    1
    39    24    27    1
    40    21    22   ar
    41    22    23   ar
    42    15    16    1
    43    16    17    1
    44     8     9   ar
    45     9    10   ar
    46    10    11    1
    47    50    42   ar
    48    38    33   ar
    49    10     5   ar
    50    50    45   ar
    51    17    12    1
    52    23    18   ar
    53     3     4    1
    54    44    51    1
    55    31    32    1
    56    39    40    1
@<TRIPOS>MOLECULE
*****
 51 56 0 0 0
SMALL
GASTEIGER

@<TRIPOS>ATOM
      1 O          60.5445   84.1530   13.7941 O.2     1  UNL1       -0.2701
      2 C          61.3928   84.3259   12.8768 C.2     1  UNL1        0.2483
      3 N          62.6546   83.6404   12.9328 N.am    1  UNL1       -0.2945
      4 H          63.3697   83.8438   12.1982 H       1  UNL1        0.1501
      5 C          61.0977   85.2748   11.7773 C.ar    1  UNL1        0.0808
      6 C          62.0633   86.2065   11.3607 C.ar    1  UNL1        0.0080
      7 C          61.7699   87.1348   10.3591 C.ar    1  UNL1        0.0148
      8 C          60.5040   87.1546    9.7504 C.ar    1  UNL1        0.0502
      9 C          59.5448   86.2090   10.1526 C.ar    1  UNL1        0.0443
     10 C          59.8368   85.2760   11.1518 C.ar    1  UNL1        0.1457
     11 F          58.8712   84.4002   11.5303 F       1  UNL1       -0.2040
     12 N          60.1967   88.1254    8.7257 N.pl3   1  UNL1       -0.3040
     13 C          60.2492   89.5627    9.0285 C.3     1  UNL1        0.1123
     14 C          60.6796   90.3619    7.7938 C.3     1  UNL1        0.1136
     15 N          59.9001   89.9915    6.6003 N.pl3   1  UNL1       -0.2897
     16 C          59.0372   88.8019    6.6350 C.3     1  UNL1        0.1136
     17 C          59.7143   87.6693    7.4129 C.3     1  UNL1        0.1123
     18 C          59.8704   90.8623    5.4466 C.ar    1  UNL1        0.1318
     19 C          58.6752   91.4614    5.0111 C.ar    1  UNL1        0.0343
     20 C          58.6880   92.2957    3.8923 C.ar    1  UNL1        0.0083
     21 C          59.8891   92.5545    3.2162 C.ar    1  UNL1        0.0906
     22 C          61.0567   91.9212    3.6674 C.ar    1  UNL1        0.1041
     23 N          61.0197   91.1107    4.7576 N.ar    1  UNL1       -0.2292
     24 C          59.9069   93.4134    1.9774 C.3     1  UNL1        0.4200
     25 F          59.8593   94.7553    2.3133 F       1  UNL1       -0.1658
     26 F          61.0605   93.1908    1.2455 F       1  UNL1       -0.1658
     27 F          58.8101   93.1057    1.1945 F       1  UNL1       -0.1658
     28 C          63.1070   82.9226   14.1297 C.3     1  UNL1        0.1535
     29 C          63.2054   83.8736   15.3052 C.2     1  UNL1        0.2444
     30 O          63.8787   83.5524   16.3222 O.2     1  UNL1       -0.2730
     31 N          62.5818   85.1685   15.2359 N.am    1  UNL1       -0.2801
     32 H          61.9283   85.3640   14.4446 H       1  UNL1        0.1550
     33 C          62.7136   86.1747   16.2548 C.ar    1  UNL1        0.0876
     34 C          62.5327   85.8602   17.6119 C.ar    1  UNL1        0.0384
     35 C          62.6962   86.8543   18.5787 C.ar    1  UNL1        0.1004
     36 N          63.0422   88.1150   18.2094 N.ar    1  UNL1       -0.2391
     37 C          63.2413   88.4469   16.9068 C.ar    1  UNL1        0.1366
     38 C          63.0874   87.4823   15.9023 C.ar    1  UNL1        0.1664
     39 O          63.2927   87.8182   14.5647 O.3     1  UNL1       -0.5030
     40 H          63.5592   88.7560   14.2884 H       1  UNL1        0.2923
     41 C          62.1872   81.7054   14.3966 C.3     1  UNL1        0.0569
     42 C          61.8164   80.9633   13.1382 C.ar    1  UNL1       -0.0017
     43 C          62.6499   80.1527   12.3715 C.ar    1  UNL1        0.0681
     44 N          61.9495   79.5553   11.3807 N.ar    1  UNL1       -0.3523
     45 C          60.6803   79.9759   11.5160 C.ar    1  UNL1        0.0563
     46 C          59.5812   79.6057   10.7418 C.ar    1  UNL1        0.0170
     47 C          58.3275   80.1501   11.0759 C.ar    1  UNL1        0.0015
     48 C          58.2034   81.0473   12.1592 C.ar    1  UNL1        0.0001
     49 C          59.3310   81.4068   12.9186 C.ar    1  UNL1        0.0012
     50 C          60.5592   80.8406   12.5733 C.ar    1  UNL1        0.0131
     51 H          62.3206   78.8889   10.6675 H       1  UNL1        0.1660
@<TRIPOS>BOND
     1     1     2    2
     2     2     3   am
     3     3    28    1
     4    28    41    1
     5    41    42    1
     6    42    43   ar
     7    43    44   ar
     8    44    45   ar
     9    45    46   ar
    10    46    47   ar
    11    47    48   ar
    12    48    49   ar
    13    49    50   ar
    14    28    29    1
    15    29    30    2
    16    29    31   am
    17    31    33    1
    18    33    34   ar
    19    34    35   ar
    20    35    36   ar
    21    36    37   ar
    22    37    38   ar
    23    38    39    1
    24     2     5    1
    25     5     6   ar
    26     6     7   ar
    27     7     8   ar
    28     8    12    1
    29    12    13    1
    30    13    14    1
    31    14    15    1
    32    15    18    1
    33    18    19   ar
    34    19    20   ar
    35    20    21   ar
    36    21    24    1
    37    24    25    1
    38    24    26    1
    39    24    27    1
    40    21    22   ar
    41    22    23   ar
    42    15    16    1
    43    16    17    1
    44     8     9   ar
    45     9    10   ar
    46    10    11    1
    47    50    42   ar
    48    38    33   ar
    49    10     5   ar
    50    50    45   ar
    51    17    12    1
    52    23    18   ar
    53     3     4    1
    54    44    51    1
    55    31    32    1
    56    39    40    1
@<TRIPOS>MOLECULE
*****
 51 56 0 0 0
SMALL
GASTEIGER

@<TRIPOS>ATOM
      1 O          62.4229   82.9134   12.0413 O.2     1  UNL1       -0.2701
      2 C          61.8882   83.9705   12.4744 C.2     1  UNL1        0.2483
      3 N          61.6379   84.1193   13.8817 N.am    1  UNL1       -0.2945
      4 H          61.1372   84.9739   14.2151 H       1  UNL1        0.1501
      5 C          61.4771   85.0263   11.5191 C.ar    1  UNL1        0.0808
      6 C          60.5762   84.7372   10.4805 C.ar    1  UNL1        0.0080
      7 C          60.2264   85.7178    9.5492 C.ar    1  UNL1        0.0148
      8 C          60.7695   87.0107    9.6333 C.ar    1  UNL1        0.0502
      9 C          61.6546   87.3058   10.6847 C.ar    1  UNL1        0.0443
     10 C          62.0033   86.3279   11.6206 C.ar    1  UNL1        0.1457
     11 F          62.8847   86.6478   12.6023 F       1  UNL1       -0.2040
     12 N          60.4191   88.0193    8.6603 N.pl3   1  UNL1       -0.3040
     13 C          60.5794   89.4445    8.9814 C.3     1  UNL1        0.1123
     14 C          60.9326   90.2475    7.7248 C.3     1  UNL1        0.1136
     15 N          60.0228   89.9460    6.6064 N.pl3   1  UNL1       -0.2897
     16 C          59.1031   88.8034    6.7041 C.3     1  UNL1        0.1136
     17 C          59.7884   87.6191    7.3928 C.3     1  UNL1        0.1123
     18 C          59.9304   90.8429    5.4763 C.ar    1  UNL1        0.1318
     19 C          58.7017   91.4017    5.0826 C.ar    1  UNL1        0.0343
     20 C          58.6540   92.2632    3.9855 C.ar    1  UNL1        0.0083
     21 C          59.8274   92.5889    3.2900 C.ar    1  UNL1        0.0906
     22 C          61.0304   91.9943    3.6991 C.ar    1  UNL1        0.1041
     23 N          61.0522   91.1564    4.7688 N.ar    1  UNL1       -0.2292
     24 C          59.7809   93.4780    2.0736 C.3     1  UNL1        0.4200
     25 F          59.7723   94.8117    2.4440 F       1  UNL1       -0.1658
     26 F          60.8844   93.2599    1.2669 F       1  UNL1       -0.1658
     27 F          58.6342   93.2032    1.3524 F       1  UNL1       -0.1658
     28 C          61.7598   83.0018   14.8244 C.3     1  UNL1        0.1535
     29 C          61.2893   81.7156   14.1761 C.2     1  UNL1        0.2444
     30 O          61.9923   80.6719   14.2614 O.2     1  UNL1       -0.2730
     31 N          60.0115   81.6693   13.5161 N.am    1  UNL1       -0.2801
     32 H          59.5063   82.5680   13.3471 H       1  UNL1        0.1550
     33 C          59.4371   80.4695   12.9698 C.ar    1  UNL1        0.0876
     34 C          59.1593   79.3613   13.7872 C.ar    1  UNL1        0.0384
     35 C          58.5749   78.2219   13.2306 C.ar    1  UNL1        0.1004
     36 N          58.2638   78.1913   11.9085 N.ar    1  UNL1       -0.2391
     37 C          58.5038   79.2529   11.0949 C.ar    1  UNL1        0.1366
     38 C          59.0898   80.4169   11.6095 C.ar    1  UNL1        0.1664
     39 O          59.3360   81.5091   10.7785 O.3     1  UNL1       -0.5030
     40 H          59.0967   81.4908    9.7940 H       1  UNL1        0.2923
     41 C          63.2074   82.9240   15.3694 C.3     1  UNL1        0.0569
     42 C          63.9536   84.2271   15.2402 C.ar    1  UNL1       -0.0017
     43 C          65.1081   84.4572   14.4958 C.ar    1  UNL1        0.0681
     44 N          65.4316   85.7702   14.5165 N.ar    1  UNL1       -0.3523
     45 C          64.4906   86.3739   15.2622 C.ar    1  UNL1        0.0563
     46 C          64.3823   87.7350   15.5451 C.ar    1  UNL1        0.0170
     47 C          63.2953   88.1595   16.3312 C.ar    1  UNL1        0.0015
     48 C          62.3559   87.2238   16.8171 C.ar    1  UNL1        0.0001
     49 C          62.4942   85.8563   16.5201 C.ar    1  UNL1        0.0012
     50 C          63.5742   85.4657   15.7267 C.ar    1  UNL1        0.0131
     51 H          66.2404   86.2219   14.0346 H       1  UNL1        0.1660
@<TRIPOS>BOND
     1     1     2    2
     2     2     3   am
     3     3    28    1
     4    28    41    1
     5    41    42    1
     6    42    43   ar
     7    43    44   ar
     8    44    45   ar
     9    45    46   ar
    10    46    47   ar
    11    47    48   ar
    12    48    49   ar
    13    49    50   ar
    14    28    29    1
    15    29    30    2
    16    29    31   am
    17    31    33    1
    18    33    34   ar
    19    34    35   ar
    20    35    36   ar
    21    36    37   ar
    22    37    38   ar
    23    38    39    1
    24     2     5    1
    25     5     6   ar
    26     6     7   ar
    27     7     8   ar
    28     8    12    1
    29    12    13    1
    30    13    14    1
    31    14    15    1
    32    15    18    1
    33    18    19   ar
    34    19    20   ar
    35    20    21   ar
    36    21    24    1
    37    24    25    1
    38    24    26    1
    39    24    27    1
    40    21    22   ar
    41    22    23   ar
    42    15    16    1
    43    16    17    1
    44     8     9   ar
    45     9    10   ar
    46    10    11    1
    47    50    42   ar
    48    38    33   ar
    49    10     5   ar
    50    50    45   ar
    51    17    12    1
    52    23    18   ar
    53     3     4    1
    54    44    51    1
    55    31    32    1
    56    39    40    1
@<TRIPOS>MOLECULE
*****
 51 56 0 0 0
SMALL
GASTEIGER

@<TRIPOS>ATOM
      1 O          58.2615   85.4229   10.9095 O.2     1  UNL1       -0.2701
      2 C          59.2821   86.1620   10.8543 C.2     1  UNL1        0.2483
      3 N          60.2433   86.1329   11.9222 N.am    1  UNL1       -0.2945
      4 H          61.0497   86.7970   11.8903 H       1  UNL1        0.1501
      5 C          59.4518   87.0901    9.7115 C.ar    1  UNL1        0.0808
      6 C          60.1971   88.2722    9.8571 C.ar    1  UNL1        0.0080
      7 C          60.3162   89.1729    8.7961 C.ar    1  UNL1        0.0148
      8 C          59.6926   88.9138    7.5642 C.ar    1  UNL1        0.0502
      9 C          58.9643   87.7212    7.4119 C.ar    1  UNL1        0.0443
     10 C          58.8467   86.8160    8.4705 C.ar    1  UNL1        0.1457
     11 F          58.1093   85.6908    8.2892 F       1  UNL1       -0.2040
     12 N          59.8035   89.8537    6.4727 N.pl3   1  UNL1       -0.3040
     13 C          61.0639   90.5733    6.2412 C.3     1  UNL1        0.1123
     14 C          61.2671   90.8447    4.7466 C.3     1  UNL1        0.1136
     15 N          60.0709   91.4423    4.1292 N.pl3   1  UNL1       -0.2897
     16 C          58.8054   91.4750    4.8764 C.3     1  UNL1        0.1136
     17 C          58.6151   90.1777    5.6683 C.3     1  UNL1        0.1123
     18 C          60.1656   92.1178    2.8544 C.ar    1  UNL1        0.1318
     19 C          59.0427   92.7175    2.2575 C.ar    1  UNL1        0.0343
     20 C          59.1751   93.3599    1.0255 C.ar    1  UNL1        0.0083
     21 C          60.4251   93.4274    0.3935 C.ar    1  UNL1        0.0906
     22 C          61.5173   92.7983    1.0094 C.ar    1  UNL1        0.1041
     23 N          61.3640   92.1764    2.2080 N.ar    1  UNL1       -0.2292
     24 C          60.5705   94.0745   -0.9603 C.3     1  UNL1        0.4200
     25 F          59.4655   94.8566   -1.2485 F       1  UNL1       -0.1658
     26 F          61.6941   94.8821   -0.9973 F       1  UNL1       -0.1658
     27 F          60.6904   93.0912   -1.9243 F       1  UNL1       -0.1658
     28 C          59.9826   85.4540   13.1964 C.3     1  UNL1        0.1535
     29 C          59.3058   84.1207   12.9509 C.2     1  UNL1        0.2444
     30 O          58.2542   83.8215   13.5796 O.2     1  UNL1       -0.2730
     31 N          59.8284   83.2222   11.9558 N.am    1  UNL1       -0.2801
     32 H          60.7640   83.4303   11.5402 H       1  UNL1        0.1550
     33 C          59.1920   81.9887   11.5797 C.ar    1  UNL1        0.0876
     34 C          59.3561   80.8244   12.3483 C.ar    1  UNL1        0.0384
     35 C          58.7011   79.6503   11.9714 C.ar    1  UNL1        0.1004
     36 N          57.8985   79.6384   10.8754 N.ar    1  UNL1       -0.2391
     37 C          57.7054   80.7521   10.1212 C.ar    1  UNL1        0.1366
     38 C          58.3431   81.9526   10.4608 C.ar    1  UNL1        0.1664
     39 O          58.1462   83.0981    9.6906 O.3     1  UNL1       -0.5030
     40 H          57.5410   83.0929    8.8778 H       1  UNL1        0.2923
     41 C          61.2935   85.3390   14.0132 C.3     1  UNL1        0.0569
     42 C          62.0533   84.0692   13.7271 C.ar    1  UNL1       -0.0017
     43 C          62.0706   82.9140   14.5050 C.ar    1  UNL1        0.0681
     44 N          62.7647   81.9340   13.8828 N.ar    1  UNL1       -0.3523
     45 C          63.1823   82.4559   12.7170 C.ar    1  UNL1        0.0563
     46 C          63.9114   81.8130   11.7172 C.ar    1  UNL1        0.0170
     47 C          64.2231   82.5443   10.5563 C.ar    1  UNL1        0.0015
     48 C          63.8099   83.8882   10.4254 C.ar    1  UNL1        0.0001
     49 C          63.0805   84.5121   11.4531 C.ar    1  UNL1        0.0012
     50 C          62.7735   83.7584   12.5872 C.ar    1  UNL1        0.0131
     51 H          62.9261   80.9637   14.2335 H       1  UNL1        0.1660
@<TRIPOS>BOND
     1     1     2    2
     2     2     3   am
     3     3    28    1
     4    28    41    1
     5    41    42    1
     6    42    43   ar
     7    43    44   ar
     8    44    45   ar
     9    45    46   ar
    10    46    47   ar
    11    47    48   ar
    12    48    49   ar
    13    49    50   ar
    14    28    29    1
    15    29    30    2
    16    29    31   am
    17    31    33    1
    18    33    34   ar
    19    34    35   ar
    20    35    36   ar
    21    36    37   ar
    22    37    38   ar
    23    38    39    1
    24     2     5    1
    25     5     6   ar
    26     6     7   ar
    27     7     8   ar
    28     8    12    1
    29    12    13    1
    30    13    14    1
    31    14    15    1
    32    15    18    1
    33    18    19   ar
    34    19    20   ar
    35    20    21   ar
    36    21    24    1
    37    24    25    1
    38    24    26    1
    39    24    27    1
    40    21    22   ar
    41    22    23   ar
    42    15    16    1
    43    16    17    1
    44     8     9   ar
    45     9    10   ar
    46    10    11    1
    47    50    42   ar
    48    38    33   ar
    49    10     5   ar
    50    50    45   ar
    51    17    12    1
    52    23    18   ar
    53     3     4    1
    54    44    51    1
    55    31    32    1
    56    39    40    1
