@<TRIPOS>MOLECULE
*****
 30 33 0 0 0
SMALL
GASTEIGER

@<TRIPOS>ATOM
      1 N         -24.3626   -9.7071  -11.1107 N.ar    1  UNL1       -0.3243
      2 C         -23.3742   -9.3184  -10.2623 C.ar    1  UNL1        0.0600
      3 C         -23.4548   -8.4272   -9.1862 C.ar    1  UNL1        0.0177
      4 C         -22.2884   -8.1774   -8.4410 C.ar    1  UNL1        0.0082
      5 C         -21.0733   -8.8177   -8.7694 C.ar    1  UNL1        0.0347
      6 BR        -19.5044   -8.4638   -7.7404 Br      1  UNL1       -0.0490
      7 C         -21.0133   -9.7202   -9.8456 C.ar    1  UNL1        0.0082
      8 C         -22.1826   -9.9477  -10.5685 C.ar    1  UNL1        0.0177
      9 C         -22.4400  -10.7666  -11.6430 C.ar    1  UNL1        0.0177
     10 C         -21.6173  -11.6335  -12.3573 C.ar    1  UNL1        0.0087
     11 C         -22.1857  -12.3584  -13.4206 C.ar    1  UNL1        0.0409
     12 BR        -21.0612  -13.5526  -14.4098 Br      1  UNL1       -0.0485
     13 C         -23.5610  -12.2007  -13.7381 C.ar    1  UNL1        0.0422
     14 BR        -24.3731  -13.1751  -15.1734 Br      1  UNL1       -0.0484
     15 C         -24.3649  -11.3161  -12.9934 C.ar    1  UNL1        0.0244
     16 C         -23.7747  -10.6015  -11.9472 C.ar    1  UNL1        0.0605
     17 C         -25.7526   -9.2342  -11.1601 C.3     1  UNL1        0.1429
     18 C         -25.9577   -8.2065  -12.2864 C.3     1  UNL1        0.2027
     19 F         -27.0696   -8.5646  -13.0278 F       1  UNL1       -0.2334
     20 C         -26.1030   -6.7635  -11.7737 C.3     1  UNL1        0.1259
     21 N         -25.0678   -5.8840  -12.3186 N.pl3   1  UNL1       -0.3157
     22 H         -25.3594   -4.9479  -12.6779 H       1  UNL1        0.1483
     23 C         -21.7945   -7.4437  -13.0250 C.ar    1  UNL1        0.2261
     24 C         -20.9570   -6.7974  -12.1120 C.ar    1  UNL1        0.0578
     25 C         -21.4919   -5.8338  -11.2555 C.ar    1  UNL1        0.0077
     26 C         -22.8518   -5.5242  -11.3185 C.ar    1  UNL1        0.0343
     27 C         -23.6663   -6.1863  -12.2468 C.ar    1  UNL1        0.1317
     28 N         -23.1190   -7.1261  -13.0674 N.ar    1  UNL1       -0.1969
     29 C         -21.9477   -8.8637  -15.0458 C.3     1  UNL1        0.2542
     30 O         -21.2624   -8.4084  -13.8850 O.3     1  UNL1       -0.4561
@<TRIPOS>BOND
     1    29    30    1
     2    30    23    1
     3    23    24   ar
     4    24    25   ar
     5    25    26   ar
     6    26    27   ar
     7    27    21    1
     8    21    20    1
     9    20    18    1
    10    18    19    1
    11    18    17    1
    12    17     1    1
    13     1     2   ar
    14     2     3   ar
    15     3     4   ar
    16     4     5   ar
    17     5     6    1
    18     5     7   ar
    19     7     8   ar
    20     8     9   ar
    21     9    10   ar
    22    10    11   ar
    23    11    12    1
    24    11    13   ar
    25    13    14    1
    26    13    15   ar
    27    15    16   ar
    28    27    28   ar
    29    28    23   ar
    30    16     1   ar
    31     8     2   ar
    32    16     9   ar
    33    21    22    1
@<TRIPOS>MOLECULE
*****
 30 33 0 0 0
SMALL
GASTEIGER

@<TRIPOS>ATOM
      1 N         -24.0048  -10.1956  -11.6200 N.ar    1  UNL1       -0.3243
      2 C         -23.8450  -11.1149  -12.6085 C.ar    1  UNL1        0.0600
      3 C         -24.7854  -11.5500  -13.5492 C.ar    1  UNL1        0.0177
      4 C         -24.3875  -12.5192  -14.4878 C.ar    1  UNL1        0.0082
      5 C         -23.0709  -13.0299  -14.4814 C.ar    1  UNL1        0.0347
      6 BR        -22.5548  -14.3430  -15.7678 Br      1  UNL1       -0.0490
      7 C         -22.1352  -12.5719  -13.5374 C.ar    1  UNL1        0.0082
      8 C         -22.5562  -11.6134  -12.6178 C.ar    1  UNL1        0.0177
      9 C         -21.8843  -10.9741  -11.6022 C.ar    1  UNL1        0.0177
     10 C         -20.5672  -11.0764  -11.1629 C.ar    1  UNL1        0.0087
     11 C         -20.1651  -10.2664  -10.0850 C.ar    1  UNL1        0.0409
     12 BR        -18.3551  -10.4012   -9.4730 Br      1  UNL1       -0.0485
     13 C         -21.0885   -9.3737   -9.4790 C.ar    1  UNL1        0.0422
     14 BR        -20.5773   -8.2498   -8.0146 Br      1  UNL1       -0.0484
     15 C         -22.4134   -9.2946   -9.9499 C.ar    1  UNL1        0.0244
     16 C         -22.7904  -10.1154  -11.0166 C.ar    1  UNL1        0.0605
     17 C         -25.2284   -9.4769  -11.2399 C.3     1  UNL1        0.1429
     18 C         -25.6400   -8.4581  -12.3167 C.3     1  UNL1        0.2027
     19 F         -26.9169   -8.7576  -12.7575 F       1  UNL1       -0.2334
     20 C         -25.5738   -7.0000  -11.8312 C.3     1  UNL1        0.1259
     21 N         -24.5144   -6.2481  -12.5051 N.pl3   1  UNL1       -0.3157
     22 H         -24.7070   -5.2549  -12.7639 H       1  UNL1        0.1483
     23 C         -21.6829   -8.1827  -13.8784 C.ar    1  UNL1        0.2261
     24 C         -20.6256   -7.7802  -13.0583 C.ar    1  UNL1        0.0578
     25 C         -20.8627   -6.8554  -12.0400 C.ar    1  UNL1        0.0077
     26 C         -22.1472   -6.3419  -11.8510 C.ar    1  UNL1        0.0343
     27 C         -23.1869   -6.7616  -12.6915 C.ar    1  UNL1        0.1317
     28 N         -22.9284   -7.6691  -13.6742 N.ar    1  UNL1       -0.1969
     29 C         -22.4395   -9.4582  -15.8594 C.3     1  UNL1        0.2542
     30 O         -21.4492   -9.1078  -14.8997 O.3     1  UNL1       -0.4561
@<TRIPOS>BOND
     1    29    30    1
     2    30    23    1
     3    23    24   ar
     4    24    25   ar
     5    25    26   ar
     6    26    27   ar
     7    27    21    1
     8    21    20    1
     9    20    18    1
    10    18    19    1
    11    18    17    1
    12    17     1    1
    13     1     2   ar
    14     2     3   ar
    15     3     4   ar
    16     4     5   ar
    17     5     6    1
    18     5     7   ar
    19     7     8   ar
    20     8     9   ar
    21     9    10   ar
    22    10    11   ar
    23    11    12    1
    24    11    13   ar
    25    13    14    1
    26    13    15   ar
    27    15    16   ar
    28    27    28   ar
    29    28    23   ar
    30    16     1   ar
    31     8     2   ar
    32    16     9   ar
    33    21    22    1
@<TRIPOS>MOLECULE
*****
 30 33 0 0 0
SMALL
GASTEIGER

@<TRIPOS>ATOM
      1 N         -21.8179  -12.6610  -14.6027 N.ar    1  UNL1       -0.3243
      2 C         -21.3891  -12.1428  -13.4214 C.ar    1  UNL1        0.0600
      3 C         -20.8869  -12.8234  -12.3064 C.ar    1  UNL1        0.0177
      4 C         -20.4998  -12.0678  -11.1850 C.ar    1  UNL1        0.0082
      5 C         -20.6096  -10.6599  -11.1926 C.ar    1  UNL1        0.0347
      6 BR        -20.0747   -9.6568   -9.6586 Br      1  UNL1       -0.0490
      7 C         -21.1041   -9.9914  -12.3262 C.ar    1  UNL1        0.0082
      8 C         -21.4825  -10.7641  -13.4223 C.ar    1  UNL1        0.0177
      9 C         -21.9799  -10.4085  -14.6543 C.ar    1  UNL1        0.0177
     10 C         -22.2669   -9.1631  -15.2064 C.ar    1  UNL1        0.0087
     11 C         -22.7649   -9.1220  -16.5216 C.ar    1  UNL1        0.0409
     12 BR        -23.1637   -7.4129  -17.2891 Br      1  UNL1       -0.0485
     13 C         -22.9580  -10.3256  -17.2502 C.ar    1  UNL1        0.0422
     14 BR        -23.6270  -10.3104  -19.0450 Br      1  UNL1       -0.0484
     15 C         -22.6556  -11.5686  -16.6614 C.ar    1  UNL1        0.0244
     16 C         -22.1699  -11.5832  -15.3509 C.ar    1  UNL1        0.0605
     17 C         -21.9322  -14.0752  -14.9836 C.3     1  UNL1        0.1429
     18 C         -23.3710  -14.4327  -15.3945 C.3     1  UNL1        0.2027
     19 F         -23.3784  -15.6942  -15.9629 F       1  UNL1       -0.2334
     20 C         -24.3702  -14.3702  -14.2267 C.3     1  UNL1        0.1259
     21 N         -25.3189  -13.2662  -14.3787 N.pl3   1  UNL1       -0.3157
     22 H         -26.1945  -13.4435  -14.9192 H       1  UNL1        0.1483
     23 C         -24.4864  -10.7829  -11.7737 C.ar    1  UNL1        0.2261
     24 C         -24.8941   -9.5853  -12.3672 C.ar    1  UNL1        0.0578
     25 C         -25.4505   -9.6100  -13.6470 C.ar    1  UNL1        0.0077
     26 C         -25.5933  -10.8245  -14.3207 C.ar    1  UNL1        0.0343
     27 C         -25.1720  -12.0089  -13.7016 C.ar    1  UNL1        0.1317
     28 N         -24.6369  -11.9563  -12.4498 N.ar    1  UNL1       -0.1969
     29 C         -24.1519   -9.6982   -9.5748 C.3     1  UNL1        0.2542
     30 O         -23.9278  -10.7620  -10.4927 O.3     1  UNL1       -0.4561
@<TRIPOS>BOND
     1    29    30    1
     2    30    23    1
     3    23    24   ar
     4    24    25   ar
     5    25    26   ar
     6    26    27   ar
     7    27    21    1
     8    21    20    1
     9    20    18    1
    10    18    19    1
    11    18    17    1
    12    17     1    1
    13     1     2   ar
    14     2     3   ar
    15     3     4   ar
    16     4     5   ar
    17     5     6    1
    18     5     7   ar
    19     7     8   ar
    20     8     9   ar
    21     9    10   ar
    22    10    11   ar
    23    11    12    1
    24    11    13   ar
    25    13    14    1
    26    13    15   ar
    27    15    16   ar
    28    27    28   ar
    29    28    23   ar
    30    16     1   ar
    31     8     2   ar
    32    16     9   ar
    33    21    22    1
@<TRIPOS>MOLECULE
*****
 30 33 0 0 0
SMALL
GASTEIGER

@<TRIPOS>ATOM
      1 N         -23.5975  -11.5714  -13.3621 N.ar    1  UNL1       -0.3243
      2 C         -24.2299  -10.3685  -13.3918 C.ar    1  UNL1        0.0600
      3 C         -25.4373  -10.0379  -14.0175 C.ar    1  UNL1        0.0177
      4 C         -25.9016   -8.7147  -13.9095 C.ar    1  UNL1        0.0082
      5 C         -25.1690   -7.7517  -13.1813 C.ar    1  UNL1        0.0347
      6 BR        -25.8222   -5.9626  -13.0474 Br      1  UNL1       -0.0490
      7 C         -23.9645   -8.1043  -12.5479 C.ar    1  UNL1        0.0082
      8 C         -23.5263   -9.4211  -12.6727 C.ar    1  UNL1        0.0177
      9 C         -22.4177  -10.0599  -12.1680 C.ar    1  UNL1        0.0177
     10 C         -21.3741   -9.5995  -11.3697 C.ar    1  UNL1        0.0087
     11 C         -20.3710  -10.5144  -11.0008 C.ar    1  UNL1        0.0409
     12 BR        -18.9306   -9.8897   -9.9035 Br      1  UNL1       -0.0485
     13 C         -20.4404  -11.8645  -11.4358 C.ar    1  UNL1        0.0422
     14 BR        -19.0983  -13.1414  -10.9487 Br      1  UNL1       -0.0484
     15 C         -21.5115  -12.2969  -12.2415 C.ar    1  UNL1        0.0244
     16 C         -22.4911  -11.3670  -12.6010 C.ar    1  UNL1        0.0605
     17 C         -23.9837  -12.8153  -14.0418 C.3     1  UNL1        0.1429
     18 C         -23.1899  -13.0143  -15.3446 C.3     1  UNL1        0.2027
     19 F         -22.9436  -14.3643  -15.5218 F       1  UNL1       -0.2334
     20 C         -23.8974  -12.4363  -16.5821 C.3     1  UNL1        0.1259
     21 N         -23.0520  -11.4787  -17.2964 N.pl3   1  UNL1       -0.3157
     22 H         -22.8310  -11.6723  -18.2984 H       1  UNL1        0.1483
     23 C         -23.0310   -7.8955  -16.3984 C.ar    1  UNL1        0.2261
     24 C         -21.8502   -7.7837  -15.6596 C.ar    1  UNL1        0.0578
     25 C         -21.0571   -8.9151  -15.4611 C.ar    1  UNL1        0.0077
     26 C         -21.4486  -10.1428  -15.9983 C.ar    1  UNL1        0.0343
     27 C         -22.6398  -10.2249  -16.7317 C.ar    1  UNL1        0.1317
     28 N         -23.3922   -9.1038  -16.9144 N.ar    1  UNL1       -0.1969
     29 C         -24.2096   -6.3141  -17.8929 C.3     1  UNL1        0.2542
     30 O         -23.8283   -6.7651  -16.5985 O.3     1  UNL1       -0.4561
@<TRIPOS>BOND
     1    29    30    1
     2    30    23    1
     3    23    24   ar
     4    24    25   ar
     5    25    26   ar
     6    26    27   ar
     7    27    21    1
     8    21    20    1
     9    20    18    1
    10    18    19    1
    11    18    17    1
    12    17     1    1
    13     1     2   ar
    14     2     3   ar
    15     3     4   ar
    16     4     5   ar
    17     5     6    1
    18     5     7   ar
    19     7     8   ar
    20     8     9   ar
    21     9    10   ar
    22    10    11   ar
    23    11    12    1
    24    11    13   ar
    25    13    14    1
    26    13    15   ar
    27    15    16   ar
    28    27    28   ar
    29    28    23   ar
    30    16     1   ar
    31     8     2   ar
    32    16     9   ar
    33    21    22    1
@<TRIPOS>MOLECULE
*****
 30 33 0 0 0
SMALL
GASTEIGER

@<TRIPOS>ATOM
      1 N         -23.3119   -9.8395  -13.5146 N.ar    1  UNL1       -0.3243
      2 C         -23.7739  -10.9281  -14.1849 C.ar    1  UNL1        0.0600
      3 C         -24.7999  -10.9915  -15.1346 C.ar    1  UNL1        0.0177
      4 C         -25.1047  -12.2421  -15.7015 C.ar    1  UNL1        0.0082
      5 C         -24.3860  -13.3979  -15.3248 C.ar    1  UNL1        0.0347
      6 BR        -24.8172  -15.0835  -16.1111 Br      1  UNL1       -0.0490
      7 C         -23.3494  -13.3137  -14.3788 C.ar    1  UNL1        0.0082
      8 C         -23.0698  -12.0633  -13.8312 C.ar    1  UNL1        0.0177
      9 C         -22.1270  -11.6658  -12.9121 C.ar    1  UNL1        0.0177
     10 C         -21.1469  -12.3823  -12.2305 C.ar    1  UNL1        0.0087
     11 C         -20.3094  -11.6790  -11.3454 C.ar    1  UNL1        0.0409
     12 BR        -18.9588  -12.6565  -10.4024 Br      1  UNL1       -0.0485
     13 C         -20.4712  -10.2791  -11.1691 C.ar    1  UNL1        0.0422
     14 BR        -19.3464   -9.2854   -9.9791 Br      1  UNL1       -0.0484
     15 C         -21.4723   -9.5853  -11.8761 C.ar    1  UNL1        0.0244
     16 C         -22.2965  -10.3079  -12.7432 C.ar    1  UNL1        0.0605
     17 C         -23.8215   -8.4625  -13.5618 C.3     1  UNL1        0.1429
     18 C         -25.0901   -8.3023  -12.7063 C.3     1  UNL1        0.2027
     19 F         -25.0116   -9.1535  -11.6183 F       1  UNL1       -0.2334
     20 C         -25.3270   -6.8575  -12.2346 C.3     1  UNL1        0.1259
     21 N         -24.1186   -6.0401  -12.3521 N.pl3   1  UNL1       -0.3157
     22 H         -24.0379   -5.3998  -13.1730 H       1  UNL1        0.1483
     23 C         -22.1447   -6.8696   -9.3418 C.ar    1  UNL1        0.2261
     24 C         -21.1975   -5.8426   -9.3182 C.ar    1  UNL1        0.0578
     25 C         -21.2203   -4.8671  -10.3163 C.ar    1  UNL1        0.0077
     26 C         -22.1833   -4.9260  -11.3255 C.ar    1  UNL1        0.0343
     27 C         -23.1179   -5.9700  -11.3251 C.ar    1  UNL1        0.1317
     28 N         -23.0759   -6.9059  -10.3359 N.ar    1  UNL1       -0.1969
     29 C         -22.9721   -8.9912   -8.3733 C.3     1  UNL1        0.2542
     30 O         -22.1245   -7.8488   -8.3446 O.3     1  UNL1       -0.4561
@<TRIPOS>BOND
     1    29    30    1
     2    30    23    1
     3    23    24   ar
     4    24    25   ar
     5    25    26   ar
     6    26    27   ar
     7    27    21    1
     8    21    20    1
     9    20    18    1
    10    18    19    1
    11    18    17    1
    12    17     1    1
    13     1     2   ar
    14     2     3   ar
    15     3     4   ar
    16     4     5   ar
    17     5     6    1
    18     5     7   ar
    19     7     8   ar
    20     8     9   ar
    21     9    10   ar
    22    10    11   ar
    23    11    12    1
    24    11    13   ar
    25    13    14    1
    26    13    15   ar
    27    15    16   ar
    28    27    28   ar
    29    28    23   ar
    30    16     1   ar
    31     8     2   ar
    32    16     9   ar
    33    21    22    1
@<TRIPOS>MOLECULE
*****
 30 33 0 0 0
SMALL
GASTEIGER

@<TRIPOS>ATOM
      1 N         -22.9106   -9.2091  -11.4901 N.ar    1  UNL1       -0.3243
      2 C         -24.0963   -8.6770  -11.8886 C.ar    1  UNL1        0.0600
      3 C         -24.6940   -7.4814  -11.4741 C.ar    1  UNL1        0.0177
      4 C         -25.9367   -7.1310  -12.0319 C.ar    1  UNL1        0.0082
      5 C         -26.5561   -7.9631  -12.9901 C.ar    1  UNL1        0.0347
      6 BR        -28.2420   -7.4637  -13.7344 Br      1  UNL1       -0.0490
      7 C         -25.9354   -9.1543  -13.4049 C.ar    1  UNL1        0.0082
      8 C         -24.7060   -9.4787  -12.8348 C.ar    1  UNL1        0.0177
      9 C         -23.8642  -10.5467  -13.0406 C.ar    1  UNL1        0.0177
     10 C         -23.9662  -11.6496  -13.8842 C.ar    1  UNL1        0.0087
     11 C         -22.9159  -12.5856  -13.8783 C.ar    1  UNL1        0.0409
     12 BR        -23.0480  -14.1069  -15.0347 Br      1  UNL1       -0.0485
     13 C         -21.7909  -12.3917  -13.0334 C.ar    1  UNL1        0.0422
     14 BR        -20.3379  -13.6394  -13.0024 Br      1  UNL1       -0.0484
     15 C         -21.7195  -11.2634  -12.1937 C.ar    1  UNL1        0.0244
     16 C         -22.7794  -10.3525  -12.2120 C.ar    1  UNL1        0.0605
     17 C         -21.9873   -8.7006  -10.4669 C.3     1  UNL1        0.1429
     18 C         -20.7609   -8.0231  -11.1023 C.3     1  UNL1        0.2027
     19 F         -19.8395   -8.9938  -11.4529 F       1  UNL1       -0.2334
     20 C         -21.1102   -7.1560  -12.3239 C.3     1  UNL1        0.1259
     21 N         -20.6027   -7.7363  -13.5679 N.pl3   1  UNL1       -0.3157
     22 H         -19.5742   -7.8973  -13.6498 H       1  UNL1        0.1483
     23 C         -21.9805   -9.9067  -16.2207 C.ar    1  UNL1        0.2261
     24 C         -23.0987   -9.1827  -16.6426 C.ar    1  UNL1        0.0578
     25 C         -23.3927   -7.9610  -16.0348 C.ar    1  UNL1        0.0077
     26 C         -22.5721   -7.4756  -15.0149 C.ar    1  UNL1        0.0343
     27 C         -21.4598   -8.2256  -14.6104 C.ar    1  UNL1        0.1317
     28 N         -21.1934   -9.4124  -15.2243 N.ar    1  UNL1       -0.1969
     29 C         -22.5964  -11.8038  -17.6854 C.3     1  UNL1        0.2542
     30 O         -21.6835  -11.1309  -16.8262 O.3     1  UNL1       -0.4561
@<TRIPOS>BOND
     1    29    30    1
     2    30    23    1
     3    23    24   ar
     4    24    25   ar
     5    25    26   ar
     6    26    27   ar
     7    27    21    1
     8    21    20    1
     9    20    18    1
    10    18    19    1
    11    18    17    1
    12    17     1    1
    13     1     2   ar
    14     2     3   ar
    15     3     4   ar
    16     4     5   ar
    17     5     6    1
    18     5     7   ar
    19     7     8   ar
    20     8     9   ar
    21     9    10   ar
    22    10    11   ar
    23    11    12    1
    24    11    13   ar
    25    13    14    1
    26    13    15   ar
    27    15    16   ar
    28    27    28   ar
    29    28    23   ar
    30    16     1   ar
    31     8     2   ar
    32    16     9   ar
    33    21    22    1
@<TRIPOS>MOLECULE
*****
 30 33 0 0 0
SMALL
GASTEIGER

@<TRIPOS>ATOM
      1 N         -25.1746   -7.2895  -13.0076 N.ar    1  UNL1       -0.3243
      2 C         -24.2111   -6.5025  -12.4597 C.ar    1  UNL1        0.0600
      3 C         -24.3542   -5.2464  -11.8593 C.ar    1  UNL1        0.0177
      4 C         -23.2025   -4.6152  -11.3557 C.ar    1  UNL1        0.0082
      5 C         -21.9396   -5.2403  -11.4491 C.ar    1  UNL1        0.0347
      6 BR        -20.3918   -4.3637  -10.7555 Br      1  UNL1       -0.0490
      7 C         -21.8161   -6.5082  -12.0438 C.ar    1  UNL1        0.0082
      8 C         -22.9723   -7.1100  -12.5364 C.ar    1  UNL1        0.0177
      9 C         -23.1724   -8.3259  -13.1473 C.ar    1  UNL1        0.0177
     10 C         -22.2863   -9.3495  -13.4720 C.ar    1  UNL1        0.0087
     11 C         -22.8045  -10.4994  -14.0953 C.ar    1  UNL1        0.0409
     12 BR        -21.5927  -11.9125  -14.5469 Br      1  UNL1       -0.0485
     13 C         -24.1939  -10.5968  -14.3728 C.ar    1  UNL1        0.0422
     14 BR        -24.9384  -12.1487  -15.2133 Br      1  UNL1       -0.0484
     15 C         -25.0624   -9.5428  -14.0291 C.ar    1  UNL1        0.0244
     16 C         -24.5218   -8.4079  -13.4181 C.ar    1  UNL1        0.0605
     17 C         -26.6029   -6.9896  -13.1752 C.3     1  UNL1        0.1429
     18 C         -27.4557   -7.6992  -12.1094 C.3     1  UNL1        0.2027
     19 F         -27.4009   -9.0651  -12.3230 F       1  UNL1       -0.2334
     20 C         -27.0276   -7.3689  -10.6694 C.3     1  UNL1        0.1259
     21 N         -26.5745   -8.5592   -9.9483 N.pl3   1  UNL1       -0.3157
     22 H         -27.2990   -9.2190   -9.5875 H       1  UNL1        0.1483
     23 C         -22.9692   -8.4065   -9.1583 C.ar    1  UNL1        0.2261
     24 C         -22.5080   -9.6312   -9.6481 C.ar    1  UNL1        0.0578
     25 C         -23.4100  -10.5129  -10.2460 C.ar    1  UNL1        0.0077
     26 C         -24.7585  -10.1663  -10.3480 C.ar    1  UNL1        0.0343
     27 C         -25.1923   -8.9327   -9.8444 C.ar    1  UNL1        0.1317
     28 N         -24.2896   -8.0892   -9.2702 N.ar    1  UNL1       -0.1969
     29 C         -20.6586   -7.6881   -8.6400 C.3     1  UNL1        0.2542
     30 O         -22.0692   -7.5215   -8.5580 O.3     1  UNL1       -0.4561
@<TRIPOS>BOND
     1    29    30    1
     2    30    23    1
     3    23    24   ar
     4    24    25   ar
     5    25    26   ar
     6    26    27   ar
     7    27    21    1
     8    21    20    1
     9    20    18    1
    10    18    19    1
    11    18    17    1
    12    17     1    1
    13     1     2   ar
    14     2     3   ar
    15     3     4   ar
    16     4     5   ar
    17     5     6    1
    18     5     7   ar
    19     7     8   ar
    20     8     9   ar
    21     9    10   ar
    22    10    11   ar
    23    11    12    1
    24    11    13   ar
    25    13    14    1
    26    13    15   ar
    27    15    16   ar
    28    27    28   ar
    29    28    23   ar
    30    16     1   ar
    31     8     2   ar
    32    16     9   ar
    33    21    22    1
@<TRIPOS>MOLECULE
*****
 30 33 0 0 0
SMALL
GASTEIGER

@<TRIPOS>ATOM
      1 N         -24.6241   -9.3642  -11.2377 N.ar    1  UNL1       -0.3243
      2 C         -23.5705   -9.0928  -10.4229 C.ar    1  UNL1        0.0600
      3 C         -23.5159   -8.2068   -9.3409 C.ar    1  UNL1        0.0177
      4 C         -22.3042   -8.0921   -8.6360 C.ar    1  UNL1        0.0082
      5 C         -21.1785   -8.8587   -9.0096 C.ar    1  UNL1        0.0347
      6 BR        -19.5458   -8.6866   -8.0349 Br      1  UNL1       -0.0490
      7 C         -21.2548   -9.7535  -10.0911 C.ar    1  UNL1        0.0082
      8 C         -22.4662   -9.8460  -10.7734 C.ar    1  UNL1        0.0177
      9 C         -22.8486  -10.6232  -11.8418 C.ar    1  UNL1        0.0177
     10 C         -22.1508  -11.5690  -12.5882 C.ar    1  UNL1        0.0087
     11 C         -22.8315  -12.2188  -13.6340 C.ar    1  UNL1        0.0409
     12 BR        -21.8793  -13.5207  -14.6672 Br      1  UNL1       -0.0485
     13 C         -24.1913  -11.9092  -13.9022 C.ar    1  UNL1        0.0422
     14 BR        -25.1542  -12.7774  -15.3123 Br      1  UNL1       -0.0484
     15 C         -24.8674  -10.9481  -13.1260 C.ar    1  UNL1        0.0244
     16 C         -24.1668  -10.3108  -12.0981 C.ar    1  UNL1        0.0605
     17 C         -25.9549   -8.7419  -11.2362 C.3     1  UNL1        0.1429
     18 C         -26.4312   -8.4288  -12.6652 C.3     1  UNL1        0.2027
     19 F         -27.8026   -8.5999  -12.7319 F       1  UNL1       -0.2334
     20 C         -26.0483   -7.0160  -13.1378 C.3     1  UNL1        0.1259
     21 N         -25.0045   -7.0479  -14.1632 N.pl3   1  UNL1       -0.3157
     22 H         -25.2653   -6.7748  -15.1367 H       1  UNL1        0.1483
     23 C         -21.7175   -6.8934  -12.4845 C.ar    1  UNL1        0.2261
     24 C         -20.9399   -7.7384  -13.2807 C.ar    1  UNL1        0.0578
     25 C         -21.5202   -8.3634  -14.3856 C.ar    1  UNL1        0.0077
     26 C         -22.8659   -8.1414  -14.6840 C.ar    1  UNL1        0.0343
     27 C         -23.6215   -7.2916  -13.8652 C.ar    1  UNL1        0.1317
     28 N         -23.0285   -6.6906  -12.7960 N.ar    1  UNL1       -0.1969
     29 C         -21.6844   -5.0898  -10.7905 C.3     1  UNL1        0.2542
     30 O         -21.1402   -6.2665  -11.3766 O.3     1  UNL1       -0.4561
@<TRIPOS>BOND
     1    29    30    1
     2    30    23    1
     3    23    24   ar
     4    24    25   ar
     5    25    26   ar
     6    26    27   ar
     7    27    21    1
     8    21    20    1
     9    20    18    1
    10    18    19    1
    11    18    17    1
    12    17     1    1
    13     1     2   ar
    14     2     3   ar
    15     3     4   ar
    16     4     5   ar
    17     5     6    1
    18     5     7   ar
    19     7     8   ar
    20     8     9   ar
    21     9    10   ar
    22    10    11   ar
    23    11    12    1
    24    11    13   ar
    25    13    14    1
    26    13    15   ar
    27    15    16   ar
    28    27    28   ar
    29    28    23   ar
    30    16     1   ar
    31     8     2   ar
    32    16     9   ar
    33    21    22    1
@<TRIPOS>MOLECULE
*****
 30 33 0 0 0
SMALL
GASTEIGER

@<TRIPOS>ATOM
      1 N         -21.7152  -10.5829  -11.1978 N.ar    1  UNL1       -0.3243
      2 C         -22.8219   -9.9719  -10.6982 C.ar    1  UNL1        0.0600
      3 C         -22.9065   -9.0601   -9.6398 C.ar    1  UNL1        0.0177
      4 C         -24.1734   -8.5535   -9.2984 C.ar    1  UNL1        0.0082
      5 C         -25.3246   -8.9516  -10.0131 C.ar    1  UNL1        0.0347
      6 BR        -27.0327   -8.2473   -9.5317 Br      1  UNL1       -0.0490
      7 C         -25.2195   -9.8585  -11.0821 C.ar    1  UNL1        0.0082
      8 C         -23.9531  -10.3466  -11.3977 C.ar    1  UNL1        0.0177
      9 C         -23.5347  -11.2175  -12.3765 C.ar    1  UNL1        0.0177
     10 C         -24.2390  -11.8940  -13.3689 C.ar    1  UNL1        0.0087
     11 C         -23.5147  -12.7223  -14.2456 C.ar    1  UNL1        0.0409
     12 BR        -24.4754  -13.6579  -15.6134 Br      1  UNL1       -0.0485
     13 C         -22.1066  -12.8483  -14.1096 C.ar    1  UNL1        0.0422
     14 BR        -21.0847  -13.9602  -15.2880 Br      1  UNL1       -0.0484
     15 C         -21.4256  -12.1481  -13.0952 C.ar    1  UNL1        0.0244
     16 C         -22.1687  -11.3381  -12.2320 C.ar    1  UNL1        0.0605
     17 C         -20.3333  -10.4982  -10.7064 C.3     1  UNL1        0.1429
     18 C         -19.8211   -9.0475  -10.7149 C.3     1  UNL1        0.2027
     19 F         -18.5910   -8.9991  -10.0833 F       1  UNL1       -0.2334
     20 C         -19.7171   -8.4477  -12.1275 C.3     1  UNL1        0.1259
     21 N         -20.5447   -7.2495  -12.2738 N.pl3   1  UNL1       -0.3157
     22 H         -20.0943   -6.3206  -12.1166 H       1  UNL1        0.1483
     23 C         -24.1686   -6.5941  -12.5637 C.ar    1  UNL1        0.2261
     24 C         -24.5166   -7.3530  -13.6842 C.ar    1  UNL1        0.0578
     25 C         -23.5318   -8.0880  -14.3461 C.ar    1  UNL1        0.0077
     26 C         -22.2137   -8.0579  -13.8866 C.ar    1  UNL1        0.0343
     27 C         -21.8941   -7.2848  -12.7625 C.ar    1  UNL1        0.1317
     28 N         -22.8760   -6.5812  -12.1325 N.ar    1  UNL1       -0.1969
     29 C         -26.4563   -5.6601  -12.4318 C.3     1  UNL1        0.2542
     30 O         -25.1518   -5.8561  -11.8988 O.3     1  UNL1       -0.4561
@<TRIPOS>BOND
     1    29    30    1
     2    30    23    1
     3    23    24   ar
     4    24    25   ar
     5    25    26   ar
     6    26    27   ar
     7    27    21    1
     8    21    20    1
     9    20    18    1
    10    18    19    1
    11    18    17    1
    12    17     1    1
    13     1     2   ar
    14     2     3   ar
    15     3     4   ar
    16     4     5   ar
    17     5     6    1
    18     5     7   ar
    19     7     8   ar
    20     8     9   ar
    21     9    10   ar
    22    10    11   ar
    23    11    12    1
    24    11    13   ar
    25    13    14    1
    26    13    15   ar
    27    15    16   ar
    28    27    28   ar
    29    28    23   ar
    30    16     1   ar
    31     8     2   ar
    32    16     9   ar
    33    21    22    1
