@<TRIPOS>MOLECULE
*****
 59 63 0 0 0
SMALL
GASTEIGER

@<TRIPOS>ATOM
      1 C         -28.7934   -3.5975  -16.8004 C.ar    1  UNL1        0.0548
      2 C         -28.3289   -3.6437  -18.1255 C.ar    1  UNL1        0.0077
      3 C         -27.0296   -4.0721  -18.4053 C.ar    1  UNL1        0.0390
      4 C         -26.1676   -4.4579  -17.3743 C.ar    1  UNL1        0.1598
      5 C         -26.6460   -4.4795  -16.0464 C.ar    1  UNL1        0.0993
      6 C         -27.9441   -4.0304  -15.7680 C.ar    1  UNL1        0.0235
      7 N         -30.9635   -3.8191  -15.4937 N.am    1  UNL1       -0.3040
      8 C         -30.1693   -3.1421  -16.4884 C.2     1  UNL1        0.2458
      9 O         -30.6473   -2.1621  -17.1212 O.2     1  UNL1       -0.2701
     10 H         -30.6244   -4.7519  -15.1659 H       1  UNL1        0.1496
     11 C         -32.8184   -4.3601  -13.9736 C.3     1  UNL1        0.0196
     12 C         -32.2214   -3.2990  -14.9210 C.3     1  UNL1        0.0572
     13 C         -31.9475   -2.0182  -14.1084 C.3     1  UNL1        0.0196
     14 C         -33.2415   -3.0153  -16.0411 C.3     1  UNL1        0.0196
     15 N         -25.8416   -4.9733  -14.9746 N.pl3   1  UNL1       -0.2120
     16 H         -25.0221   -4.3993  -14.6801 H       1  UNL1        0.1738
     17 S         -26.5441   -5.9966  -13.7688 S.O2    1  UNL1        0.0745
     18 O         -27.6746   -6.7865  -14.3653 O.2     1  UNL1       -0.1499
     19 O         -27.0864   -5.1586  -12.6452 O.2     1  UNL1       -0.1499
     20 C         -25.3059   -7.0928  -13.1439 C.ar    1  UNL1        0.1356
     21 C         -25.3687   -8.4569  -13.4577 C.ar    1  UNL1        0.0207
     22 C         -24.4314   -9.3492  -12.9338 C.ar    1  UNL1       -0.0028
     23 C         -23.4061   -8.9009  -12.0877 C.ar    1  UNL1       -0.0207
     24 C         -23.3247   -7.5229  -11.7989 C.ar    1  UNL1        0.0085
     25 C         -24.2598   -6.6237  -12.3247 C.ar    1  UNL1        0.0762
     26 CL        -24.0816   -4.9175  -11.9268 Cl      1  UNL1       -0.0809
     27 C         -22.4464   -9.9389  -11.5287 C.3     1  UNL1        0.0338
     28 C         -21.6438  -10.7705  -12.5231 C.3     1  UNL1        0.0169
     29 C         -20.9586   -9.6706  -11.7196 C.3     1  UNL1        0.0615
     30 BR        -19.8493  -10.3406  -10.2756 Br      1  UNL1       -0.0813
     31 O         -24.8569   -4.8234  -17.7129 O.3     1  UNL1       -0.4513
     32 C         -24.2976   -6.1071  -17.5983 C.ar    1  UNL1        0.1580
     33 C         -23.6225   -6.4161  -16.4116 C.ar    1  UNL1        0.0677
     34 C         -23.0655   -7.6803  -16.2114 C.ar    1  UNL1        0.1398
     35 F         -22.4122   -7.9410  -15.0507 F       1  UNL1       -0.2044
     36 C         -23.1940   -8.6720  -17.1963 C.ar    1  UNL1        0.0175
     37 C         -23.8722   -8.3712  -18.3874 C.ar    1  UNL1        0.0130
     38 C         -24.4364   -7.1054  -18.5912 C.ar    1  UNL1        0.0919
     39 CL        -25.4033   -6.8699  -20.0427 Cl      1  UNL1       -0.0791
     40 C         -22.6230  -10.0477  -16.9749 C.3     1  UNL1        0.1382
     41 C         -23.6081  -10.9112  -16.2573 C.2     1  UNL1        0.3234
     42 O         -24.8360  -10.6237  -16.2899 O.2     1  UNL1       -0.2497
     43 O         -23.1507  -12.0173  -15.5343 O.3     1  UNL1       -0.4215
     44 C         -23.9610  -12.7382  -14.6018 C.3     1  UNL1        0.3207
     45 O         -23.1624  -13.6289  -13.8395 O.3     1  UNL1       -0.3070
     46 C         -22.4553  -14.5808  -14.6331 C.3     1  UNL1        0.2456
     47 C         -23.2042  -15.0301  -15.9191 C.3     1  UNL1        0.1781
     48 O         -22.8482  -16.3537  -16.2305 O.3     1  UNL1       -0.3790
     49 C         -24.7193  -14.9313  -15.6791 C.3     1  UNL1        0.1733
     50 O         -25.4464  -15.3837  -16.7948 O.3     1  UNL1       -0.3793
     51 C         -25.1184  -13.4820  -15.3142 C.3     1  UNL1        0.2106
     52 O         -26.2444  -13.5001  -14.4748 O.3     1  UNL1       -0.3766
     53 H         -23.0380  -16.4853  -17.1960 H       1  UNL1        0.2106
     54 H         -25.1712  -14.8363  -17.5765 H       1  UNL1        0.2105
     55 H         -27.0217  -13.7444  -15.0424 H       1  UNL1        0.2107
     56 C         -21.0639  -14.0940  -14.9389 C.2     1  UNL1        0.3439
     57 O         -20.6332  -14.1211  -16.1233 O.2     1  UNL1       -0.2475
     58 O         -20.2332  -13.6477  -13.9159 O.3     1  UNL1       -0.4785
     59 H         -19.2992  -13.3159  -14.1206 H       1  UNL1        0.2951
@<TRIPOS>BOND
     1    11    12    1
     2    12    13    1
     3    12    14    1
     4    12     7    1
     5     7     8   am
     6     8     9    2
     7     8     1    1
     8     1     2   ar
     9     2     3   ar
    10     3     4   ar
    11     4    31    1
    12    31    32    1
    13    32    33   ar
    14    33    34   ar
    15    34    35    1
    16    34    36   ar
    17    36    40    1
    18    40    41    1
    19    41    42    2
    20    41    43    1
    21    43    44    1
    22    44    45    1
    23    45    46    1
    24    46    56    1
    25    56    57    2
    26    56    58    1
    27    46    47    1
    28    47    48    1
    29    47    49    1
    30    49    50    1
    31    49    51    1
    32    51    52    1
    33    36    37   ar
    34    37    38   ar
    35    38    39    1
    36     4     5   ar
    37     5    15    1
    38    15    17    1
    39    17    18    2
    40    17    19    2
    41    17    20    1
    42    20    21   ar
    43    21    22   ar
    44    22    23   ar
    45    23    27    1
    46    27    28    1
    47    28    29    1
    48    29    30    1
    49    23    24   ar
    50    24    25   ar
    51    25    26    1
    52     5     6   ar
    53     6     1   ar
    54    38    32   ar
    55    25    20   ar
    56    51    44    1
    57    29    27    1
    58     7    10    1
    59    58    59    1
    60    48    53    1
    61    50    54    1
    62    52    55    1
    63    15    16    1
@<TRIPOS>MOLECULE
*****
 59 63 0 0 0
SMALL
GASTEIGER

@<TRIPOS>ATOM
      1 C         -28.5869   -3.7518  -16.7826 C.ar    1  UNL1        0.0548
      2 C         -28.0717   -3.6723  -18.0872 C.ar    1  UNL1        0.0077
      3 C         -26.7725   -4.1039  -18.3625 C.ar    1  UNL1        0.0390
      4 C         -25.9608   -4.6178  -17.3466 C.ar    1  UNL1        0.1598
      5 C         -26.4916   -4.7647  -16.0468 C.ar    1  UNL1        0.0993
      6 C         -27.7890   -4.3124  -15.7708 C.ar    1  UNL1        0.0235
      7 N         -30.7772   -3.9963  -15.5141 N.am    1  UNL1       -0.3040
      8 C         -29.9633   -3.2947  -16.4754 C.2     1  UNL1        0.2458
      9 O         -30.4241   -2.2907  -17.0828 O.2     1  UNL1       -0.2701
     10 H         -30.4505   -4.9421  -15.2119 H       1  UNL1        0.1496
     11 C         -32.6626   -4.5730  -14.0456 C.3     1  UNL1        0.0196
     12 C         -32.0387   -3.4838  -14.9427 C.3     1  UNL1        0.0572
     13 C         -31.7647   -2.2376  -14.0781 C.3     1  UNL1        0.0196
     14 C         -33.0371   -3.1469  -16.0675 C.3     1  UNL1        0.0196
     15 N         -25.7414   -5.3887  -15.0040 N.pl3   1  UNL1       -0.2120
     16 H         -24.7506   -5.0900  -14.8750 H       1  UNL1        0.1738
     17 S         -26.5540   -6.0022  -13.6047 S.O2    1  UNL1        0.0745
     18 O         -27.5499   -7.0511  -14.0118 O.2     1  UNL1       -0.1499
     19 O         -27.2884   -4.8871  -12.9146 O.2     1  UNL1       -0.1499
     20 C         -25.3626   -6.6981  -12.4995 C.ar    1  UNL1        0.1356
     21 C         -24.0014   -6.4260  -12.6903 C.ar    1  UNL1        0.0207
     22 C         -23.0391   -7.0056  -11.8613 C.ar    1  UNL1       -0.0028
     23 C         -23.4124   -7.8672  -10.8190 C.ar    1  UNL1       -0.0207
     24 C         -24.7846   -8.1144  -10.6076 C.ar    1  UNL1        0.0085
     25 C         -25.7535   -7.5328  -11.4337 C.ar    1  UNL1        0.0762
     26 CL        -27.4464   -7.8815  -11.0960 Cl      1  UNL1       -0.0809
     27 C         -22.3041   -8.4871   -9.9832 C.3     1  UNL1        0.0338
     28 C         -22.2818  -10.0058   -9.8500 C.3     1  UNL1        0.0169
     29 C         -21.2554   -9.3016  -10.7307 C.3     1  UNL1        0.0615
     30 BR        -19.4852   -9.2139   -9.9411 Br      1  UNL1       -0.0813
     31 O         -24.6464   -4.9811  -17.6733 O.3     1  UNL1       -0.4513
     32 C         -24.0909   -6.2673  -17.5693 C.ar    1  UNL1        0.1580
     33 C         -23.3737   -6.5712  -16.4062 C.ar    1  UNL1        0.0677
     34 C         -22.8171   -7.8373  -16.2167 C.ar    1  UNL1        0.1398
     35 F         -22.1224   -8.0929  -15.0791 F       1  UNL1       -0.2044
     36 C         -22.9883   -8.8358  -17.1881 C.ar    1  UNL1        0.0175
     37 C         -23.7087   -8.5401  -18.3554 C.ar    1  UNL1        0.0130
     38 C         -24.2727   -7.2725  -18.5482 C.ar    1  UNL1        0.0919
     39 CL        -25.2918   -7.0424  -19.9644 Cl      1  UNL1       -0.0791
     40 C         -22.4175  -10.2133  -16.9770 C.3     1  UNL1        0.1382
     41 C         -23.4434  -11.2546  -17.2836 C.2     1  UNL1        0.3234
     42 O         -23.3787  -11.9007  -18.3652 O.2     1  UNL1       -0.2497
     43 O         -24.4813  -11.4824  -16.3746 O.3     1  UNL1       -0.4215
     44 C         -24.7761  -12.7685  -15.8222 C.3     1  UNL1        0.3207
     45 O         -25.2735  -12.6355  -14.5004 O.3     1  UNL1       -0.3070
     46 C         -24.3694  -11.9754  -13.6157 C.3     1  UNL1        0.2456
     47 C         -22.8671  -12.2397  -13.9152 C.3     1  UNL1        0.1781
     48 O         -22.1338  -12.1851  -12.7173 O.3     1  UNL1       -0.3790
     49 C         -22.7200  -13.6253  -14.5640 C.3     1  UNL1        0.1733
     50 O         -21.3700  -13.9399  -14.8024 O.3     1  UNL1       -0.3793
     51 C         -23.5413  -13.7028  -15.8726 C.3     1  UNL1        0.2106
     52 O         -23.9678  -15.0242  -16.0843 O.3     1  UNL1       -0.3766
     53 H         -21.1899  -12.0006  -12.9636 H       1  UNL1        0.2106
     54 H         -20.9931  -13.2297  -15.3854 H       1  UNL1        0.2105
     55 H         -23.1683  -15.5426  -16.3637 H       1  UNL1        0.2107
     56 C         -24.6730  -10.5027  -13.5417 C.2     1  UNL1        0.3439
     57 O         -23.7393   -9.6753  -13.3613 O.2     1  UNL1       -0.2475
     58 O         -25.9849  -10.0487  -13.6337 O.3     1  UNL1       -0.4785
     59 H         -26.1901   -9.0586  -13.5888 H       1  UNL1        0.2951
@<TRIPOS>BOND
     1    11    12    1
     2    12    13    1
     3    12    14    1
     4    12     7    1
     5     7     8   am
     6     8     9    2
     7     8     1    1
     8     1     2   ar
     9     2     3   ar
    10     3     4   ar
    11     4    31    1
    12    31    32    1
    13    32    33   ar
    14    33    34   ar
    15    34    35    1
    16    34    36   ar
    17    36    40    1
    18    40    41    1
    19    41    42    2
    20    41    43    1
    21    43    44    1
    22    44    45    1
    23    45    46    1
    24    46    56    1
    25    56    57    2
    26    56    58    1
    27    46    47    1
    28    47    48    1
    29    47    49    1
    30    49    50    1
    31    49    51    1
    32    51    52    1
    33    36    37   ar
    34    37    38   ar
    35    38    39    1
    36     4     5   ar
    37     5    15    1
    38    15    17    1
    39    17    18    2
    40    17    19    2
    41    17    20    1
    42    20    21   ar
    43    21    22   ar
    44    22    23   ar
    45    23    27    1
    46    27    28    1
    47    28    29    1
    48    29    30    1
    49    23    24   ar
    50    24    25   ar
    51    25    26    1
    52     5     6   ar
    53     6     1   ar
    54    38    32   ar
    55    25    20   ar
    56    51    44    1
    57    29    27    1
    58     7    10    1
    59    58    59    1
    60    48    53    1
    61    50    54    1
    62    52    55    1
    63    15    16    1
@<TRIPOS>MOLECULE
*****
 59 63 0 0 0
SMALL
GASTEIGER

@<TRIPOS>ATOM
      1 C         -28.8396   -3.6490  -16.7629 C.ar    1  UNL1        0.0548
      2 C         -28.4253   -3.7449  -18.1019 C.ar    1  UNL1        0.0077
      3 C         -27.1215   -4.1368  -18.4128 C.ar    1  UNL1        0.0390
      4 C         -26.2054   -4.4358  -17.3998 C.ar    1  UNL1        0.1598
      5 C         -26.6308   -4.4079  -16.0541 C.ar    1  UNL1        0.0993
      6 C         -27.9342   -3.9955  -15.7458 C.ar    1  UNL1        0.0235
      7 N         -30.9773   -3.9401  -15.4168 N.am    1  UNL1       -0.3040
      8 C         -30.2198   -3.2315  -16.4182 C.2     1  UNL1        0.2458
      9 O         -30.7340   -2.2558  -17.0288 O.2     1  UNL1       -0.2701
     10 H         -30.6090   -4.8683  -15.1078 H       1  UNL1        0.1496
     11 C         -32.7720   -4.5330  -13.8448 C.3     1  UNL1        0.0196
     12 C         -32.2358   -3.4582  -14.8130 C.3     1  UNL1        0.0572
     13 C         -31.9825   -2.1646  -14.0141 C.3     1  UNL1        0.0196
     14 C         -33.2943   -3.2143  -15.9065 C.3     1  UNL1        0.0196
     15 N         -25.7661   -4.8149  -14.9928 N.pl3   1  UNL1       -0.2120
     16 H         -24.9554   -4.1994  -14.7657 H       1  UNL1        0.1738
     17 S         -26.3824   -5.7912  -13.7037 S.O2    1  UNL1        0.0745
     18 O         -27.4149   -6.7451  -14.2347 O.2     1  UNL1       -0.1499
     19 O         -27.0285   -4.9149  -12.6676 O.2     1  UNL1       -0.1499
     20 C         -25.0504   -6.6916  -12.9688 C.ar    1  UNL1        0.1356
     21 C         -23.9694   -5.9949  -12.4127 C.ar    1  UNL1        0.0207
     22 C         -22.8825   -6.6854  -11.8729 C.ar    1  UNL1       -0.0028
     23 C         -22.8505   -8.0879  -11.8712 C.ar    1  UNL1       -0.0207
     24 C         -23.9538   -8.7881  -12.4017 C.ar    1  UNL1        0.0085
     25 C         -25.0474   -8.1004  -12.9407 C.ar    1  UNL1        0.0762
     26 CL        -26.3911   -9.0477  -13.5720 Cl      1  UNL1       -0.0809
     27 C         -21.6163   -8.7660  -11.2984 C.3     1  UNL1        0.0338
     28 C         -20.2532   -8.2773  -11.7757 C.3     1  UNL1        0.0169
     29 C         -20.7409   -7.9290  -10.3737 C.3     1  UNL1        0.0615
     30 BR        -19.8744   -8.9550   -8.9732 Br      1  UNL1       -0.0813
     31 O         -24.8950   -4.7675  -17.7729 O.3     1  UNL1       -0.4513
     32 C         -24.2859   -6.0259  -17.6339 C.ar    1  UNL1        0.1580
     33 C         -23.5805   -6.2771  -16.4513 C.ar    1  UNL1        0.0677
     34 C         -22.9731   -7.5139  -16.2271 C.ar    1  UNL1        0.1398
     35 F         -22.2916   -7.7183  -15.0713 F       1  UNL1       -0.2044
     36 C         -23.0802   -8.5361  -17.1829 C.ar    1  UNL1        0.0175
     37 C         -23.7885   -8.2933  -18.3697 C.ar    1  UNL1        0.0130
     38 C         -24.4033   -7.0554  -18.5973 C.ar    1  UNL1        0.0919
     39 CL        -25.4018   -6.8956  -20.0376 Cl      1  UNL1       -0.0791
     40 C         -22.4543   -9.8831  -16.9348 C.3     1  UNL1        0.1382
     41 C         -23.4127  -10.7793  -16.2213 C.2     1  UNL1        0.3234
     42 O         -24.4399  -10.2920  -15.6746 O.2     1  UNL1       -0.2497
     43 O         -23.1437  -12.1494  -16.1467 O.3     1  UNL1       -0.4215
     44 C         -22.5181  -12.7688  -15.0192 C.3     1  UNL1        0.3207
     45 O         -22.8230  -14.1537  -14.9848 O.3     1  UNL1       -0.3070
     46 C         -24.2217  -14.4271  -14.9149 C.3     1  UNL1        0.2456
     47 C         -25.0443  -13.3754  -14.1188 C.3     1  UNL1        0.1781
     48 O         -26.1492  -14.0023  -13.5173 O.3     1  UNL1       -0.3790
     49 C         -24.1453  -12.7416  -13.0452 C.3     1  UNL1        0.1733
     50 O         -24.8588  -11.8223  -12.2553 O.3     1  UNL1       -0.3793
     51 C         -22.9144  -12.0673  -13.6959 C.3     1  UNL1        0.2106
     52 O         -21.8286  -12.1086  -12.8058 O.3     1  UNL1       -0.3766
     53 H         -26.8200  -13.2938  -13.3339 H       1  UNL1        0.2106
     54 H         -25.2344  -11.1311  -12.8616 H       1  UNL1        0.2105
     55 H         -22.0179  -11.4456  -12.0912 H       1  UNL1        0.2107
     56 C         -24.7911  -14.6570  -16.2895 C.2     1  UNL1        0.3439
     57 O         -25.0867  -15.8245  -16.6617 O.2     1  UNL1       -0.2475
     58 O         -24.9593  -13.5922  -17.1691 O.3     1  UNL1       -0.4785
     59 H         -25.3463  -13.7446  -18.0918 H       1  UNL1        0.2951
@<TRIPOS>BOND
     1    11    12    1
     2    12    13    1
     3    12    14    1
     4    12     7    1
     5     7     8   am
     6     8     9    2
     7     8     1    1
     8     1     2   ar
     9     2     3   ar
    10     3     4   ar
    11     4    31    1
    12    31    32    1
    13    32    33   ar
    14    33    34   ar
    15    34    35    1
    16    34    36   ar
    17    36    40    1
    18    40    41    1
    19    41    42    2
    20    41    43    1
    21    43    44    1
    22    44    45    1
    23    45    46    1
    24    46    56    1
    25    56    57    2
    26    56    58    1
    27    46    47    1
    28    47    48    1
    29    47    49    1
    30    49    50    1
    31    49    51    1
    32    51    52    1
    33    36    37   ar
    34    37    38   ar
    35    38    39    1
    36     4     5   ar
    37     5    15    1
    38    15    17    1
    39    17    18    2
    40    17    19    2
    41    17    20    1
    42    20    21   ar
    43    21    22   ar
    44    22    23   ar
    45    23    27    1
    46    27    28    1
    47    28    29    1
    48    29    30    1
    49    23    24   ar
    50    24    25   ar
    51    25    26    1
    52     5     6   ar
    53     6     1   ar
    54    38    32   ar
    55    25    20   ar
    56    51    44    1
    57    29    27    1
    58     7    10    1
    59    58    59    1
    60    48    53    1
    61    50    54    1
    62    52    55    1
    63    15    16    1
@<TRIPOS>MOLECULE
*****
 59 63 0 0 0
SMALL
GASTEIGER

@<TRIPOS>ATOM
      1 C         -26.6529   -6.4031  -13.3729 C.ar    1  UNL1        0.0548
      2 C         -26.8379   -6.0876  -12.0164 C.ar    1  UNL1        0.0077
      3 C         -26.2356   -6.8607  -11.0216 C.ar    1  UNL1        0.0390
      4 C         -25.4429   -7.9628  -11.3561 C.ar    1  UNL1        0.1598
      5 C         -25.1957   -8.2478  -12.7164 C.ar    1  UNL1        0.0993
      6 C         -25.8177   -7.4813  -13.7112 C.ar    1  UNL1        0.0235
      7 N         -26.5882   -4.4866  -15.0429 N.am    1  UNL1       -0.3040
      8 C         -27.2885   -5.5929  -14.4394 C.2     1  UNL1        0.2458
      9 O         -28.4636   -5.8718  -14.8009 O.2     1  UNL1       -0.2701
     10 H         -25.7241   -4.1489  -14.5614 H       1  UNL1        0.1496
     11 C         -26.4355   -2.3603  -16.2674 C.3     1  UNL1        0.0196
     12 C         -27.0111   -3.7917  -16.2754 C.3     1  UNL1        0.0572
     13 C         -26.4688   -4.5287  -17.5157 C.3     1  UNL1        0.0196
     14 C         -28.5484   -3.6993  -16.3363 C.3     1  UNL1        0.0196
     15 N         -24.3022   -9.2915  -13.1065 N.pl3   1  UNL1       -0.2120
     16 H         -24.7137  -10.1392  -13.5533 H       1  UNL1        0.1738
     17 S         -22.6643   -8.9158  -13.5196 S.O2    1  UNL1        0.0745
     18 O         -22.4136   -7.4468  -13.3278 O.2     1  UNL1       -0.1499
     19 O         -22.4127   -9.2601  -14.9609 O.2     1  UNL1       -0.1499
     20 C         -21.5757   -9.8532  -12.4894 C.ar    1  UNL1        0.1356
     21 C         -21.8068  -11.2229  -12.3059 C.ar    1  UNL1        0.0207
     22 C         -20.9907  -11.9725  -11.4564 C.ar    1  UNL1       -0.0028
     23 C         -19.9216  -11.3740  -10.7731 C.ar    1  UNL1       -0.0207
     24 C         -19.6702  -10.0025  -10.9840 C.ar    1  UNL1        0.0085
     25 C         -20.4831   -9.2474  -11.8376 C.ar    1  UNL1        0.0762
     26 CL        -20.0952   -7.5437  -12.0572 Cl      1  UNL1       -0.0809
     27 C         -19.1018  -12.2488   -9.8385 C.3     1  UNL1        0.0338
     28 C         -18.1874  -13.2948  -10.4668 C.3     1  UNL1        0.0169
     29 C         -17.5931  -12.0351   -9.8465 C.3     1  UNL1        0.0615
     30 BR        -16.7487  -12.3409   -8.1265 Br      1  UNL1       -0.0813
     31 O         -24.9122   -8.7342  -10.3123 O.3     1  UNL1       -0.4513
     32 C         -23.6778   -8.5290   -9.6735 C.ar    1  UNL1        0.1580
     33 C         -23.0079   -7.3269   -9.9293 C.ar    1  UNL1        0.0677
     34 C         -21.7910   -7.0377   -9.3094 C.ar    1  UNL1        0.1398
     35 F         -21.1672   -5.8648   -9.5875 F       1  UNL1       -0.2044
     36 C         -21.2294   -7.9464   -8.3990 C.ar    1  UNL1        0.0175
     37 C         -21.8964   -9.1523   -8.1347 C.ar    1  UNL1        0.0130
     38 C         -23.1198   -9.4452   -8.7509 C.ar    1  UNL1        0.0919
     39 CL        -23.9599  -10.9043   -8.2390 Cl      1  UNL1       -0.0791
     40 C         -19.9327   -7.6279   -7.7027 C.3     1  UNL1        0.1382
     41 C         -19.2844   -8.8805   -7.2110 C.2     1  UNL1        0.3234
     42 O         -18.6532   -9.6186   -8.0161 O.2     1  UNL1       -0.2497
     43 O         -19.4083   -9.2325   -5.8634 O.3     1  UNL1       -0.4215
     44 C         -18.3045   -9.6460   -5.0530 C.3     1  UNL1        0.3207
     45 O         -18.7431   -9.9459   -3.7377 O.3     1  UNL1       -0.3070
     46 C         -19.3787   -8.8476   -3.0852 C.3     1  UNL1        0.2456
     47 C         -18.8135   -7.4529   -3.4745 C.3     1  UNL1        0.1781
     48 O         -18.9437   -6.5738   -2.3855 O.3     1  UNL1       -0.3790
     49 C         -17.3334   -7.6004   -3.8624 C.3     1  UNL1        0.1733
     50 O         -16.7560   -6.3547   -4.1676 O.3     1  UNL1       -0.3793
     51 C         -17.1773   -8.5831   -5.0468 C.3     1  UNL1        0.2106
     52 O         -15.9322   -9.2279   -4.9636 O.3     1  UNL1       -0.3766
     53 H         -18.9191   -5.6518   -2.7528 H       1  UNL1        0.2106
     54 H         -17.2817   -5.9517   -4.9076 H       1  UNL1        0.2105
     55 H         -15.2445   -8.5579   -5.2170 H       1  UNL1        0.2107
     56 C         -20.8725   -8.9132   -3.2603 C.2     1  UNL1        0.3439
     57 O         -21.5913   -9.4157   -2.3549 O.2     1  UNL1       -0.2475
     58 O         -21.4647   -8.4563   -4.4334 O.3     1  UNL1       -0.4785
     59 H         -22.4693   -8.4955   -4.5506 H       1  UNL1        0.2951
@<TRIPOS>BOND
     1    11    12    1
     2    12    13    1
     3    12    14    1
     4    12     7    1
     5     7     8   am
     6     8     9    2
     7     8     1    1
     8     1     2   ar
     9     2     3   ar
    10     3     4   ar
    11     4    31    1
    12    31    32    1
    13    32    33   ar
    14    33    34   ar
    15    34    35    1
    16    34    36   ar
    17    36    40    1
    18    40    41    1
    19    41    42    2
    20    41    43    1
    21    43    44    1
    22    44    45    1
    23    45    46    1
    24    46    56    1
    25    56    57    2
    26    56    58    1
    27    46    47    1
    28    47    48    1
    29    47    49    1
    30    49    50    1
    31    49    51    1
    32    51    52    1
    33    36    37   ar
    34    37    38   ar
    35    38    39    1
    36     4     5   ar
    37     5    15    1
    38    15    17    1
    39    17    18    2
    40    17    19    2
    41    17    20    1
    42    20    21   ar
    43    21    22   ar
    44    22    23   ar
    45    23    27    1
    46    27    28    1
    47    28    29    1
    48    29    30    1
    49    23    24   ar
    50    24    25   ar
    51    25    26    1
    52     5     6   ar
    53     6     1   ar
    54    38    32   ar
    55    25    20   ar
    56    51    44    1
    57    29    27    1
    58     7    10    1
    59    58    59    1
    60    48    53    1
    61    50    54    1
    62    52    55    1
    63    15    16    1
@<TRIPOS>MOLECULE
*****
 59 63 0 0 0
SMALL
GASTEIGER

@<TRIPOS>ATOM
      1 C         -26.1279   -6.9829  -13.7153 C.ar    1  UNL1        0.0548
      2 C         -26.7808   -8.0057  -13.0071 C.ar    1  UNL1        0.0077
      3 C         -26.0439   -8.9609  -12.3037 C.ar    1  UNL1        0.0390
      4 C         -24.6464   -8.9198  -12.2949 C.ar    1  UNL1        0.1598
      5 C         -23.9829   -7.8580  -12.9469 C.ar    1  UNL1        0.0993
      6 C         -24.7253   -6.9128  -13.6676 C.ar    1  UNL1        0.0235
      7 N         -26.2222   -4.9304  -15.2135 N.am    1  UNL1       -0.3040
      8 C         -26.8973   -5.9639  -14.4687 C.2     1  UNL1        0.2458
      9 O         -28.1570   -5.9999  -14.4342 O.2     1  UNL1       -0.2701
     10 H         -25.2019   -4.7981  -15.0290 H       1  UNL1        0.1496
     11 C         -26.3205   -2.6105  -16.0212 C.3     1  UNL1        0.0196
     12 C         -26.8689   -4.0415  -16.1995 C.3     1  UNL1        0.0572
     13 C         -26.5484   -4.5118  -17.6319 C.3     1  UNL1        0.0196
     14 C         -28.3932   -4.0118  -15.9735 C.3     1  UNL1        0.0196
     15 N         -22.5646   -7.7092  -12.8701 N.pl3   1  UNL1       -0.2120
     16 H         -22.1215   -7.7716  -11.9280 H       1  UNL1        0.1738
     17 S         -21.5764   -8.1477  -14.2214 S.O2    1  UNL1        0.0745
     18 O         -20.1351   -8.2087  -13.8012 O.2     1  UNL1       -0.1499
     19 O         -21.7152   -7.1176  -15.3071 O.2     1  UNL1       -0.1499
     20 C         -22.0940   -9.7237  -14.8325 C.ar    1  UNL1        0.1356
     21 C         -21.8841  -10.8695  -14.0539 C.ar    1  UNL1        0.0207
     22 C         -22.2380  -12.1305  -14.5377 C.ar    1  UNL1       -0.0028
     23 C         -22.8139  -12.2778  -15.8084 C.ar    1  UNL1       -0.0207
     24 C         -23.0545  -11.1206  -16.5776 C.ar    1  UNL1        0.0085
     25 C         -22.7050   -9.8537  -16.0956 C.ar    1  UNL1        0.0762
     26 CL        -23.0500   -8.4575  -17.1118 Cl      1  UNL1       -0.0809
     27 C         -23.1378  -13.6867  -16.2786 C.3     1  UNL1        0.0338
     28 C         -22.8550  -14.8370  -15.3185 C.3     1  UNL1        0.0169
     29 C         -24.2910  -14.3952  -15.5784 C.3     1  UNL1        0.0615
     30 BR        -25.2800  -15.6068  -16.7268 Br      1  UNL1       -0.0813
     31 O         -23.9612   -9.9394  -11.6186 O.3     1  UNL1       -0.4513
     32 C         -22.8519   -9.7738  -10.7724 C.ar    1  UNL1        0.1580
     33 C         -21.6220  -10.2785  -11.2103 C.ar    1  UNL1        0.0677
     34 C         -20.4685  -10.1269  -10.4387 C.ar    1  UNL1        0.1398
     35 F         -19.2951  -10.6357  -10.8929 F       1  UNL1       -0.2044
     36 C         -20.5236   -9.4432   -9.2142 C.ar    1  UNL1        0.0175
     37 C         -21.7523   -8.9314   -8.7697 C.ar    1  UNL1        0.0130
     38 C         -22.9115   -9.0773   -9.5423 C.ar    1  UNL1        0.0919
     39 CL        -24.3697   -8.2665   -8.9825 Cl      1  UNL1       -0.0791
     40 C         -19.2779   -9.2483   -8.3908 C.3     1  UNL1        0.1382
     41 C         -19.5794   -8.4355   -7.1746 C.2     1  UNL1        0.3234
     42 O         -19.7458   -7.1893   -7.2774 O.2     1  UNL1       -0.2497
     43 O         -19.6481   -9.0666   -5.9286 O.3     1  UNL1       -0.4215
     44 C         -18.4976   -9.5303   -5.2164 C.3     1  UNL1        0.3207
     45 O         -18.8665   -9.9814   -3.9231 O.3     1  UNL1       -0.3070
     46 C         -19.4986   -8.9783   -3.1291 C.3     1  UNL1        0.2456
     47 C         -18.9877   -7.5336   -3.3906 C.3     1  UNL1        0.1781
     48 O         -19.0892   -6.7796   -2.2087 O.3     1  UNL1       -0.3790
     49 C         -17.5242   -7.5944   -3.8564 C.3     1  UNL1        0.1733
     50 O         -16.9934   -6.3065   -4.0510 O.3     1  UNL1       -0.3793
     51 C         -17.3986   -8.4406   -5.1453 C.3     1  UNL1        0.2106
     52 O         -16.1351   -9.0526   -5.1864 O.3     1  UNL1       -0.3766
     53 H         -19.1051   -5.8235   -2.4755 H       1  UNL1        0.2106
     54 H         -17.5631   -5.8432   -4.7196 H       1  UNL1        0.2105
     55 H         -15.4772   -8.3391   -5.3962 H       1  UNL1        0.2107
     56 C         -20.9968   -9.0700   -3.2447 C.2     1  UNL1        0.3439
     57 O         -21.6631   -9.6544   -2.3483 O.2     1  UNL1       -0.2475
     58 O         -21.6507   -8.5459   -4.3553 O.3     1  UNL1       -0.4785
     59 H         -22.6584   -8.6028   -4.4322 H       1  UNL1        0.2951
@<TRIPOS>BOND
     1    11    12    1
     2    12    13    1
     3    12    14    1
     4    12     7    1
     5     7     8   am
     6     8     9    2
     7     8     1    1
     8     1     2   ar
     9     2     3   ar
    10     3     4   ar
    11     4    31    1
    12    31    32    1
    13    32    33   ar
    14    33    34   ar
    15    34    35    1
    16    34    36   ar
    17    36    40    1
    18    40    41    1
    19    41    42    2
    20    41    43    1
    21    43    44    1
    22    44    45    1
    23    45    46    1
    24    46    56    1
    25    56    57    2
    26    56    58    1
    27    46    47    1
    28    47    48    1
    29    47    49    1
    30    49    50    1
    31    49    51    1
    32    51    52    1
    33    36    37   ar
    34    37    38   ar
    35    38    39    1
    36     4     5   ar
    37     5    15    1
    38    15    17    1
    39    17    18    2
    40    17    19    2
    41    17    20    1
    42    20    21   ar
    43    21    22   ar
    44    22    23   ar
    45    23    27    1
    46    27    28    1
    47    28    29    1
    48    29    30    1
    49    23    24   ar
    50    24    25   ar
    51    25    26    1
    52     5     6   ar
    53     6     1   ar
    54    38    32   ar
    55    25    20   ar
    56    51    44    1
    57    29    27    1
    58     7    10    1
    59    58    59    1
    60    48    53    1
    61    50    54    1
    62    52    55    1
    63    15    16    1
@<TRIPOS>MOLECULE
*****
 59 63 0 0 0
SMALL
GASTEIGER

@<TRIPOS>ATOM
      1 C         -27.0450   -6.8976  -14.0321 C.ar    1  UNL1        0.0548
      2 C         -26.9316   -7.9364  -13.0931 C.ar    1  UNL1        0.0077
      3 C         -25.7049   -8.5697  -12.8833 C.ar    1  UNL1        0.0390
      4 C         -24.5707   -8.1857  -13.6052 C.ar    1  UNL1        0.1598
      5 C         -24.6583   -7.0988  -14.5016 C.ar    1  UNL1        0.0993
      6 C         -25.8955   -6.4788  -14.7232 C.ar    1  UNL1        0.0235
      7 N         -28.4012   -4.9678  -14.9824 N.am    1  UNL1       -0.3040
      8 C         -28.3416   -6.2183  -14.2672 C.2     1  UNL1        0.2458
      9 O         -29.3962   -6.7399  -13.8144 O.2     1  UNL1       -0.2701
     10 H         -27.4996   -4.4611  -15.1337 H       1  UNL1        0.1496
     11 C         -30.2371   -3.4372  -14.4072 C.3     1  UNL1        0.0196
     12 C         -29.6388   -4.3491  -15.4984 C.3     1  UNL1        0.0572
     13 C         -29.3271   -3.4871  -16.7376 C.3     1  UNL1        0.0196
     14 C         -30.6742   -5.4359  -15.8481 C.3     1  UNL1        0.0196
     15 N         -23.5037   -6.5966  -15.1757 N.pl3   1  UNL1       -0.2120
     16 H         -22.7172   -6.2416  -14.5899 H       1  UNL1        0.1738
     17 S         -23.0906   -7.1983  -16.7448 S.O2    1  UNL1        0.0745
     18 O         -21.9172   -6.4353  -17.2913 O.2     1  UNL1       -0.1499
     19 O         -24.2544   -7.0203  -17.6791 O.2     1  UNL1       -0.1499
     20 C         -22.6893   -8.9155  -16.6214 C.ar    1  UNL1        0.1356
     21 C         -23.4862   -9.8605  -17.2810 C.ar    1  UNL1        0.0207
     22 C         -23.2187  -11.2251  -17.1560 C.ar    1  UNL1       -0.0028
     23 C         -22.1467  -11.6793  -16.3733 C.ar    1  UNL1       -0.0207
     24 C         -21.3258  -10.7258  -15.7363 C.ar    1  UNL1        0.0085
     25 C         -21.5875   -9.3563  -15.8615 C.ar    1  UNL1        0.0762
     26 CL        -20.5080   -8.2295  -15.0453 Cl      1  UNL1       -0.0809
     27 C         -21.9426  -13.1812  -16.2576 C.3     1  UNL1        0.0338
     28 C         -21.2438  -13.7075  -15.0088 C.3     1  UNL1        0.0169
     29 C         -22.7462  -13.9017  -15.1819 C.3     1  UNL1        0.0615
     30 BR        -23.2446  -15.7154  -15.6582 Br      1  UNL1       -0.0813
     31 O         -23.3814   -8.8974  -13.3919 O.3     1  UNL1       -0.4513
     32 C         -22.5101   -8.7489  -12.2998 C.ar    1  UNL1        0.1580
     33 C         -22.3794   -7.4708  -11.7442 C.ar    1  UNL1        0.0677
     34 C         -21.5555   -7.2495  -10.6393 C.ar    1  UNL1        0.1398
     35 F         -21.4485   -5.9951  -10.1323 F       1  UNL1       -0.2044
     36 C         -20.8582   -8.3178  -10.0540 C.ar    1  UNL1        0.0175
     37 C         -20.9864   -9.6028  -10.6030 C.ar    1  UNL1        0.0130
     38 C         -21.8152   -9.8306  -11.7090 C.ar    1  UNL1        0.0919
     39 CL        -22.0385  -11.4970  -12.2287 Cl      1  UNL1       -0.0791
     40 C         -19.9919   -8.0929   -8.8429 C.3     1  UNL1        0.1382
     41 C         -20.7864   -8.2806   -7.5922 C.2     1  UNL1        0.3234
     42 O         -21.9896   -8.6532   -7.6625 O.2     1  UNL1       -0.2497
     43 O         -20.1903   -8.0147   -6.3555 O.3     1  UNL1       -0.4215
     44 C         -18.9657   -8.6164   -5.9262 C.3     1  UNL1        0.3207
     45 O         -19.2122   -9.5491   -4.8862 O.3     1  UNL1       -0.3070
     46 C         -19.8421   -8.9734   -3.7426 C.3     1  UNL1        0.2456
     47 C         -19.4370   -7.4999   -3.4580 C.3     1  UNL1        0.1781
     48 O         -19.4958   -7.2565   -2.0749 O.3     1  UNL1       -0.3790
     49 C         -18.0104   -7.2611   -3.9779 C.3     1  UNL1        0.1733
     50 O         -17.5714   -5.9558   -3.6921 O.3     1  UNL1       -0.3793
     51 C         -17.9301   -7.5474   -5.4960 C.3     1  UNL1        0.2106
     52 O         -16.6393   -7.9936   -5.8242 O.3     1  UNL1       -0.3766
     53 H         -19.5870   -6.2750   -1.9571 H       1  UNL1        0.2106
     54 H         -18.2145   -5.3234   -4.1077 H       1  UNL1        0.2105
     55 H         -16.0413   -7.2023   -5.7765 H       1  UNL1        0.2107
     56 C         -21.3369   -9.1371   -3.8162 C.2     1  UNL1        0.3439
     57 O         -21.9754   -9.5510   -2.8113 O.2     1  UNL1       -0.2475
     58 O         -22.0170   -8.8699   -5.0001 O.3     1  UNL1       -0.4785
     59 H         -23.0225   -8.9751   -5.0497 H       1  UNL1        0.2951
@<TRIPOS>BOND
     1    11    12    1
     2    12    13    1
     3    12    14    1
     4    12     7    1
     5     7     8   am
     6     8     9    2
     7     8     1    1
     8     1     2   ar
     9     2     3   ar
    10     3     4   ar
    11     4    31    1
    12    31    32    1
    13    32    33   ar
    14    33    34   ar
    15    34    35    1
    16    34    36   ar
    17    36    40    1
    18    40    41    1
    19    41    42    2
    20    41    43    1
    21    43    44    1
    22    44    45    1
    23    45    46    1
    24    46    56    1
    25    56    57    2
    26    56    58    1
    27    46    47    1
    28    47    48    1
    29    47    49    1
    30    49    50    1
    31    49    51    1
    32    51    52    1
    33    36    37   ar
    34    37    38   ar
    35    38    39    1
    36     4     5   ar
    37     5    15    1
    38    15    17    1
    39    17    18    2
    40    17    19    2
    41    17    20    1
    42    20    21   ar
    43    21    22   ar
    44    22    23   ar
    45    23    27    1
    46    27    28    1
    47    28    29    1
    48    29    30    1
    49    23    24   ar
    50    24    25   ar
    51    25    26    1
    52     5     6   ar
    53     6     1   ar
    54    38    32   ar
    55    25    20   ar
    56    51    44    1
    57    29    27    1
    58     7    10    1
    59    58    59    1
    60    48    53    1
    61    50    54    1
    62    52    55    1
    63    15    16    1
@<TRIPOS>MOLECULE
*****
 59 63 0 0 0
SMALL
GASTEIGER

@<TRIPOS>ATOM
      1 C         -24.5967  -11.0714  -13.4971 C.ar    1  UNL1        0.0548
      2 C         -23.7589  -11.3666  -12.4086 C.ar    1  UNL1        0.0077
      3 C         -23.6461  -10.4745  -11.3403 C.ar    1  UNL1        0.0390
      4 C         -24.3597   -9.2721  -11.3360 C.ar    1  UNL1        0.1598
      5 C         -25.2553   -8.9972  -12.3920 C.ar    1  UNL1        0.0993
      6 C         -25.3507   -9.8860  -13.4714 C.ar    1  UNL1        0.0235
      7 N         -23.8032  -13.1057  -14.8003 N.am    1  UNL1       -0.3040
      8 C         -24.7238  -12.0079  -14.6394 C.2     1  UNL1        0.2458
      9 O         -25.6399  -11.8203  -15.4848 O.2     1  UNL1       -0.2701
     10 H         -22.9338  -13.0885  -14.2202 H       1  UNL1        0.1496
     11 C         -25.4215  -14.7925  -15.5617 C.3     1  UNL1        0.0196
     12 C         -23.9925  -14.2361  -15.7314 C.3     1  UNL1        0.0572
     13 C         -23.8238  -13.7609  -17.1879 C.3     1  UNL1        0.0196
     14 C         -22.9892  -15.3627  -15.4155 C.3     1  UNL1        0.0196
     15 N         -26.0897   -7.8383  -12.3760 N.pl3   1  UNL1       -0.2120
     16 H         -26.6768   -7.6761  -11.5294 H       1  UNL1        0.1738
     17 S         -25.6382   -6.4370  -13.2856 S.O2    1  UNL1        0.0745
     18 O         -24.5429   -6.7874  -14.2526 O.2     1  UNL1       -0.1499
     19 O         -25.1326   -5.3697  -12.3560 O.2     1  UNL1       -0.1499
     20 C         -27.0492   -5.8354  -14.1643 C.ar    1  UNL1        0.1356
     21 C         -26.9159   -4.7246  -15.0079 C.ar    1  UNL1        0.0207
     22 C         -28.0268   -4.2007  -15.6719 C.ar    1  UNL1       -0.0028
     23 C         -29.2966   -4.7756  -15.5136 C.ar    1  UNL1       -0.0207
     24 C         -29.4235   -5.9133  -14.6900 C.ar    1  UNL1        0.0085
     25 C         -28.3122   -6.4446  -14.0250 C.ar    1  UNL1        0.0762
     26 CL        -28.5516   -7.8744  -13.0251 Cl      1  UNL1       -0.0809
     27 C         -30.4624   -4.1256  -16.2412 C.3     1  UNL1        0.0338
     28 C         -31.4732   -3.3466  -15.4068 C.3     1  UNL1        0.0169
     29 C         -30.4773   -2.6027  -16.2898 C.3     1  UNL1        0.0615
     30 BR        -31.2652   -1.8775  -17.9078 Br      1  UNL1       -0.0813
     31 O         -24.1610   -8.3913  -10.2631 O.3     1  UNL1       -0.4513
     32 C         -22.9625   -8.2041   -9.5543 C.ar    1  UNL1        0.1580
     33 C         -22.8824   -8.7406   -8.2639 C.ar    1  UNL1        0.0677
     34 C         -21.7146   -8.6213   -7.5085 C.ar    1  UNL1        0.1398
     35 F         -21.6766   -9.1482   -6.2583 F       1  UNL1       -0.2044
     36 C         -20.5902   -7.9749   -8.0451 C.ar    1  UNL1        0.0175
     37 C         -20.6613   -7.4373   -9.3393 C.ar    1  UNL1        0.0130
     38 C         -21.8295   -7.5582  -10.1027 C.ar    1  UNL1        0.0919
     39 CL        -21.7739   -6.9959  -11.7694 Cl      1  UNL1       -0.0791
     40 C         -19.3166   -7.8694   -7.2485 C.3     1  UNL1        0.1382
     41 C         -18.8432   -9.2262   -6.8412 C.2     1  UNL1        0.3234
     42 O         -18.3800  -10.0163   -7.7088 O.2     1  UNL1       -0.2497
     43 O         -18.9441   -9.6134   -5.5013 O.3     1  UNL1       -0.4215
     44 C         -17.8104   -9.8943   -4.6754 C.3     1  UNL1        0.3207
     45 O         -18.1823   -9.8829   -3.3066 O.3     1  UNL1       -0.3070
     46 C         -18.7395   -8.6411   -2.8783 C.3     1  UNL1        0.2456
     47 C         -18.1487   -7.3912   -3.5890 C.3     1  UNL1        0.1781
     48 O         -18.1842   -6.2931   -2.7123 O.3     1  UNL1       -0.3790
     49 C         -16.6999   -7.6885   -4.0075 C.3     1  UNL1        0.1733
     50 O         -16.0973   -6.5665   -4.6045 O.3     1  UNL1       -0.3793
     51 C         -16.6478   -8.9095   -4.9559 C.3     1  UNL1        0.2106
     52 O         -15.4237   -9.5793   -4.7955 O.3     1  UNL1       -0.3766
     53 H         -18.1482   -5.4741   -3.2722 H       1  UNL1        0.2106
     54 H         -16.6505   -6.3079   -5.3877 H       1  UNL1        0.2105
     55 H         -14.7285   -9.0129   -5.2220 H       1  UNL1        0.2107
     56 C         -20.2424   -8.6722   -2.9615 C.2     1  UNL1        0.3439
     57 O         -20.9140   -9.1953   -2.0318 O.2     1  UNL1       -0.2475
     58 O         -20.8966   -8.1600   -4.0774 O.3     1  UNL1       -0.4785
     59 H         -21.9071   -8.1761   -4.1327 H       1  UNL1        0.2951
@<TRIPOS>BOND
     1    11    12    1
     2    12    13    1
     3    12    14    1
     4    12     7    1
     5     7     8   am
     6     8     9    2
     7     8     1    1
     8     1     2   ar
     9     2     3   ar
    10     3     4   ar
    11     4    31    1
    12    31    32    1
    13    32    33   ar
    14    33    34   ar
    15    34    35    1
    16    34    36   ar
    17    36    40    1
    18    40    41    1
    19    41    42    2
    20    41    43    1
    21    43    44    1
    22    44    45    1
    23    45    46    1
    24    46    56    1
    25    56    57    2
    26    56    58    1
    27    46    47    1
    28    47    48    1
    29    47    49    1
    30    49    50    1
    31    49    51    1
    32    51    52    1
    33    36    37   ar
    34    37    38   ar
    35    38    39    1
    36     4     5   ar
    37     5    15    1
    38    15    17    1
    39    17    18    2
    40    17    19    2
    41    17    20    1
    42    20    21   ar
    43    21    22   ar
    44    22    23   ar
    45    23    27    1
    46    27    28    1
    47    28    29    1
    48    29    30    1
    49    23    24   ar
    50    24    25   ar
    51    25    26    1
    52     5     6   ar
    53     6     1   ar
    54    38    32   ar
    55    25    20   ar
    56    51    44    1
    57    29    27    1
    58     7    10    1
    59    58    59    1
    60    48    53    1
    61    50    54    1
    62    52    55    1
    63    15    16    1
@<TRIPOS>MOLECULE
*****
 59 63 0 0 0
SMALL
GASTEIGER

@<TRIPOS>ATOM
      1 C         -27.3442   -5.4894  -14.3544 C.ar    1  UNL1        0.0548
      2 C         -27.9717   -6.7464  -14.3491 C.ar    1  UNL1        0.0077
      3 C         -27.5917   -7.7230  -13.4261 C.ar    1  UNL1        0.0390
      4 C         -26.5793   -7.4701  -12.4954 C.ar    1  UNL1        0.1598
      5 C         -25.9896   -6.1884  -12.4481 C.ar    1  UNL1        0.0993
      6 C         -26.3603   -5.2178  -13.3887 C.ar    1  UNL1        0.0235
      7 N         -28.9078   -4.6048  -16.1541 N.am    1  UNL1       -0.3040
      8 C         -27.7355   -4.4443  -15.3304 C.2     1  UNL1        0.2458
      9 O         -27.0156   -3.4159  -15.4466 O.2     1  UNL1       -0.2701
     10 H         -29.3368   -5.5572  -16.1933 H       1  UNL1        0.1496
     11 C         -30.4814   -4.1637  -17.9907 C.3     1  UNL1        0.0196
     12 C         -29.5312   -3.5307  -16.9531 C.3     1  UNL1        0.0572
     13 C         -30.3544   -2.5985  -16.0425 C.3     1  UNL1        0.0196
     14 C         -28.4513   -2.7286  -17.7053 C.3     1  UNL1        0.0196
     15 N         -25.0341   -5.8467  -11.4432 N.pl3   1  UNL1       -0.2120
     16 H         -25.2758   -6.0627  -10.4519 H       1  UNL1        0.1738
     17 S         -23.3496   -5.7944  -11.8361 S.O2    1  UNL1        0.0745
     18 O         -22.8573   -4.3757  -11.7847 O.2     1  UNL1       -0.1499
     19 O         -23.1359   -6.3251  -13.2260 O.2     1  UNL1       -0.1499
     20 C         -22.4525   -6.7866  -10.6803 C.ar    1  UNL1        0.1356
     21 C         -23.0127   -7.0635   -9.4263 C.ar    1  UNL1        0.0207
     22 C         -22.3011   -7.8018   -8.4787 C.ar    1  UNL1       -0.0028
     23 C         -21.0149   -8.2852   -8.7615 C.ar    1  UNL1       -0.0207
     24 C         -20.4653   -8.0337  -10.0357 C.ar    1  UNL1        0.0085
     25 C         -21.1763   -7.2972  -10.9905 C.ar    1  UNL1        0.0762
     26 CL        -20.4256   -7.0373  -12.5622 Cl      1  UNL1       -0.0809
     27 C         -20.2901   -9.0493   -7.6652 C.3     1  UNL1        0.0338
     28 C         -18.8205   -9.3876   -7.8897 C.3     1  UNL1        0.0169
     29 C         -19.2097   -8.2933   -6.9016 C.3     1  UNL1        0.0615
     30 BR        -19.0416   -8.8290   -5.0444 Br      1  UNL1       -0.0813
     31 O         -26.2025   -8.5092  -11.6325 O.3     1  UNL1       -0.4513
     32 C         -24.9916   -9.2207  -11.6697 C.ar    1  UNL1        0.1580
     33 C         -24.1857   -9.0692  -12.8041 C.ar    1  UNL1        0.0677
     34 C         -22.9548   -9.7203  -12.9019 C.ar    1  UNL1        0.1398
     35 F         -22.2039   -9.5549  -14.0204 F       1  UNL1       -0.2044
     36 C         -22.4965  -10.5250  -11.8472 C.ar    1  UNL1        0.0175
     37 C         -23.2970  -10.6793  -10.7050 C.ar    1  UNL1        0.0130
     38 C         -24.5309  -10.0247  -10.6005 C.ar    1  UNL1        0.0919
     39 CL        -25.3904  -10.1485   -9.0698 Cl      1  UNL1       -0.0791
     40 C         -21.1559  -11.2057  -11.9319 C.3     1  UNL1        0.1382
     41 C         -21.2773  -12.5067  -12.6554 C.2     1  UNL1        0.3234
     42 O         -20.4329  -13.4210  -12.4494 O.2     1  UNL1       -0.2497
     43 O         -22.3157  -12.6850  -13.5748 O.3     1  UNL1       -0.4215
     44 C         -22.1220  -12.6798  -14.9920 C.3     1  UNL1        0.3207
     45 O         -23.2537  -12.1247  -15.6427 O.3     1  UNL1       -0.3070
     46 C         -24.4673  -12.8234  -15.3689 C.3     1  UNL1        0.2456
     47 C         -24.2961  -14.3544  -15.1618 C.3     1  UNL1        0.1781
     48 O         -25.4596  -15.0180  -15.5881 O.3     1  UNL1       -0.3790
     49 C         -23.0829  -14.8389  -15.9717 C.3     1  UNL1        0.1733
     50 O         -22.9180  -16.2317  -15.8660 O.3     1  UNL1       -0.3793
     51 C         -21.8002  -14.0986  -15.5247 C.3     1  UNL1        0.2106
     52 O         -20.9124  -13.9970  -16.6083 O.3     1  UNL1       -0.3766
     53 H         -25.4730  -15.9004  -15.1334 H       1  UNL1        0.2106
     54 H         -22.8164  -16.4513  -14.9028 H       1  UNL1        0.2105
     55 H         -20.5339  -14.9031  -16.7552 H       1  UNL1        0.2107
     56 C         -25.2055  -12.1842  -14.2230 C.2     1  UNL1        0.3439
     57 O         -25.9727  -11.2067  -14.4349 O.2     1  UNL1       -0.2475
     58 O         -25.0184  -12.6414  -12.9223 O.3     1  UNL1       -0.4785
     59 H         -25.5175  -12.2157  -12.1516 H       1  UNL1        0.2951
@<TRIPOS>BOND
     1    11    12    1
     2    12    13    1
     3    12    14    1
     4    12     7    1
     5     7     8   am
     6     8     9    2
     7     8     1    1
     8     1     2   ar
     9     2     3   ar
    10     3     4   ar
    11     4    31    1
    12    31    32    1
    13    32    33   ar
    14    33    34   ar
    15    34    35    1
    16    34    36   ar
    17    36    40    1
    18    40    41    1
    19    41    42    2
    20    41    43    1
    21    43    44    1
    22    44    45    1
    23    45    46    1
    24    46    56    1
    25    56    57    2
    26    56    58    1
    27    46    47    1
    28    47    48    1
    29    47    49    1
    30    49    50    1
    31    49    51    1
    32    51    52    1
    33    36    37   ar
    34    37    38   ar
    35    38    39    1
    36     4     5   ar
    37     5    15    1
    38    15    17    1
    39    17    18    2
    40    17    19    2
    41    17    20    1
    42    20    21   ar
    43    21    22   ar
    44    22    23   ar
    45    23    27    1
    46    27    28    1
    47    28    29    1
    48    29    30    1
    49    23    24   ar
    50    24    25   ar
    51    25    26    1
    52     5     6   ar
    53     6     1   ar
    54    38    32   ar
    55    25    20   ar
    56    51    44    1
    57    29    27    1
    58     7    10    1
    59    58    59    1
    60    48    53    1
    61    50    54    1
    62    52    55    1
    63    15    16    1
@<TRIPOS>MOLECULE
*****
 59 63 0 0 0
SMALL
GASTEIGER

@<TRIPOS>ATOM
      1 C         -26.7631   -6.1576  -14.1344 C.ar    1  UNL1        0.0548
      2 C         -25.8400   -6.1217  -15.1929 C.ar    1  UNL1        0.0077
      3 C         -24.4931   -6.4130  -14.9673 C.ar    1  UNL1        0.0390
      4 C         -24.0385   -6.7407  -13.6863 C.ar    1  UNL1        0.1598
      5 C         -24.9687   -6.8455  -12.6296 C.ar    1  UNL1        0.0993
      6 C         -26.3160   -6.5334  -12.8564 C.ar    1  UNL1        0.0235
      7 N         -28.5932   -4.6243  -15.0095 N.am    1  UNL1       -0.3040
      8 C         -28.1954   -5.8478  -14.3588 C.2     1  UNL1        0.2458
      9 O         -29.0680   -6.6625  -13.9537 O.2     1  UNL1       -0.2701
     10 H         -27.8649   -3.8823  -15.1172 H       1  UNL1        0.1496
     11 C         -30.6252   -3.3042  -14.5941 C.3     1  UNL1        0.0196
     12 C         -29.9510   -4.3411  -15.5164 C.3     1  UNL1        0.0572
     13 C         -29.8768   -3.7531  -16.9393 C.3     1  UNL1        0.0196
     14 C         -30.8024   -5.6259  -15.5111 C.3     1  UNL1        0.0196
     15 N         -24.5713   -7.2874  -11.3310 N.pl3   1  UNL1       -0.2120
     16 H         -24.4375   -6.5628  -10.5930 H       1  UNL1        0.1738
     17 S         -25.0019   -8.8738  -10.7900 S.O2    1  UNL1        0.0745
     18 O         -26.4702   -8.9245  -10.4750 O.2     1  UNL1       -0.1499
     19 O         -24.2331   -9.2109   -9.5433 O.2     1  UNL1       -0.1499
     20 C         -24.6158  -10.0444  -12.0571 C.ar    1  UNL1        0.1356
     21 C         -25.3578  -10.0462  -13.2456 C.ar    1  UNL1        0.0207
     22 C         -25.1045  -10.9943  -14.2387 C.ar    1  UNL1       -0.0028
     23 C         -24.1014  -11.9607  -14.0714 C.ar    1  UNL1       -0.0207
     24 C         -23.3335  -11.9374  -12.8888 C.ar    1  UNL1        0.0085
     25 C         -23.5811  -10.9866  -11.8918 C.ar    1  UNL1        0.0762
     26 CL        -22.5698  -11.0165  -10.4503 Cl      1  UNL1       -0.0809
     27 C         -23.9107  -12.9810  -15.1821 C.3     1  UNL1        0.0338
     28 C         -22.9045  -14.1026  -14.9492 C.3     1  UNL1        0.0169
     29 C         -24.3998  -14.3971  -14.9038 C.3     1  UNL1        0.0615
     30 BR        -25.0565  -15.3233  -16.4773 Br      1  UNL1       -0.0813
     31 O         -22.6656   -6.9667  -13.5118 O.3     1  UNL1       -0.4513
     32 C         -22.0037   -7.1471  -12.2858 C.ar    1  UNL1        0.1580
     33 C         -21.2802   -8.3321  -12.1083 C.ar    1  UNL1        0.0677
     34 C         -20.5721   -8.5708  -10.9292 C.ar    1  UNL1        0.1398
     35 F         -19.8877   -9.7346  -10.7905 F       1  UNL1       -0.2044
     36 C         -20.5595   -7.6092   -9.9068 C.ar    1  UNL1        0.0175
     37 C         -21.2797   -6.4171  -10.0784 C.ar    1  UNL1        0.0130
     38 C         -21.9882   -6.1712  -11.2614 C.ar    1  UNL1        0.0919
     39 CL        -22.7281   -4.5859  -11.4521 Cl      1  UNL1       -0.0791
     40 C         -19.7728   -7.8456   -8.6448 C.3     1  UNL1        0.1382
     41 C         -20.6871   -8.2127   -7.5222 C.2     1  UNL1        0.3234
     42 O         -21.8805   -8.5408   -7.7660 O.2     1  UNL1       -0.2497
     43 O         -20.2125   -8.1627   -6.2078 O.3     1  UNL1       -0.4215
     44 C         -18.9458   -8.6930   -5.8074 C.3     1  UNL1        0.3207
     45 O         -19.1118   -9.6184   -4.7452 O.3     1  UNL1       -0.3070
     46 C         -19.7355   -9.0555   -3.5919 C.3     1  UNL1        0.2456
     47 C         -19.3989   -7.5582   -3.3442 C.3     1  UNL1        0.1781
     48 O         -19.4281   -7.2935   -1.9640 O.3     1  UNL1       -0.3790
     49 C         -18.0031   -7.2559   -3.9124 C.3     1  UNL1        0.1733
     50 O         -17.6238   -5.9249   -3.6617 O.3     1  UNL1       -0.3793
     51 C         -17.9543   -7.5647   -5.4274 C.3     1  UNL1        0.2106
     52 O         -16.6528   -7.9499   -5.7886 O.3     1  UNL1       -0.3766
     53 H         -19.5664   -6.3160   -1.8594 H       1  UNL1        0.2106
     54 H         -18.3113   -5.3338   -4.0671 H       1  UNL1        0.2105
     55 H         -16.0955   -7.1283   -5.7725 H       1  UNL1        0.2107
     56 C         -21.2214   -9.2969   -3.6159 C.2     1  UNL1        0.3439
     57 O         -21.7778   -9.8957   -2.6563 O.2     1  UNL1       -0.2475
     58 O         -21.9823   -8.8963   -4.7096 O.3     1  UNL1       -0.4785
     59 H         -22.9820   -9.0538   -4.7251 H       1  UNL1        0.2951
@<TRIPOS>BOND
     1    11    12    1
     2    12    13    1
     3    12    14    1
     4    12     7    1
     5     7     8   am
     6     8     9    2
     7     8     1    1
     8     1     2   ar
     9     2     3   ar
    10     3     4   ar
    11     4    31    1
    12    31    32    1
    13    32    33   ar
    14    33    34   ar
    15    34    35    1
    16    34    36   ar
    17    36    40    1
    18    40    41    1
    19    41    42    2
    20    41    43    1
    21    43    44    1
    22    44    45    1
    23    45    46    1
    24    46    56    1
    25    56    57    2
    26    56    58    1
    27    46    47    1
    28    47    48    1
    29    47    49    1
    30    49    50    1
    31    49    51    1
    32    51    52    1
    33    36    37   ar
    34    37    38   ar
    35    38    39    1
    36     4     5   ar
    37     5    15    1
    38    15    17    1
    39    17    18    2
    40    17    19    2
    41    17    20    1
    42    20    21   ar
    43    21    22   ar
    44    22    23   ar
    45    23    27    1
    46    27    28    1
    47    28    29    1
    48    29    30    1
    49    23    24   ar
    50    24    25   ar
    51    25    26    1
    52     5     6   ar
    53     6     1   ar
    54    38    32   ar
    55    25    20   ar
    56    51    44    1
    57    29    27    1
    58     7    10    1
    59    58    59    1
    60    48    53    1
    61    50    54    1
    62    52    55    1
    63    15    16    1
