@<TRIPOS>MOLECULE
*****
 39 43 0 0 0
SMALL
GASTEIGER

@<TRIPOS>ATOM
      1 C         -23.1048   -7.6758  -10.2836 C.2     1  UNL1        0.2503
      2 O         -24.0061   -6.8098  -10.1201 O.2     1  UNL1       -0.2699
      3 N         -22.9395   -8.3190  -11.5672 N.am    1  UNL1       -0.2680
      4 C         -22.1728   -9.5635  -11.6941 C.3     1  UNL1        0.1412
      5 C         -20.7309   -9.2432  -12.0796 C.3     1  UNL1        0.2268
      6 O         -20.6588   -8.0893  -12.9163 O.3     1  UNL1       -0.4739
      7 C         -21.4253   -7.9525  -14.0769 C.ar    1  UNL1        0.1362
      8 C         -20.7575   -7.8774  -15.3024 C.ar    1  UNL1        0.0366
      9 C         -21.4715   -7.7721  -16.4956 C.ar    1  UNL1        0.0031
     10 C         -22.8740   -7.7246  -16.4832 C.ar    1  UNL1       -0.0000
     11 C         -23.5459   -7.7712  -15.2493 C.ar    1  UNL1        0.0004
     12 C         -22.8403   -7.8878  -14.0387 C.ar    1  UNL1        0.0317
     13 C         -23.6379   -7.7869  -12.7481 C.3     1  UNL1        0.1236
     14 C         -23.6361   -7.6092  -17.7524 C.ar    1  UNL1        0.0015
     15 C         -24.3249   -6.4050  -18.0707 C.ar    1  UNL1        0.0016
     16 C         -25.0497   -6.2839  -19.2712 C.ar    1  UNL1        0.0206
     17 C         -25.0683   -7.3774  -20.1299 C.ar    1  UNL1        0.0985
     18 N         -25.6885   -7.4807  -21.3190 N.ar    1  UNL1       -0.2241
     19 C         -25.3741   -8.7425  -21.7150 C.ar    1  UNL1        0.1750
     20 N         -24.5958   -9.4090  -20.8288 N.ar    1  UNL1       -0.3349
     21 C         -24.4135   -8.5326  -19.8342 C.ar    1  UNL1        0.0757
     22 C         -23.6853   -8.6962  -18.6592 C.ar    1  UNL1        0.0185
     23 H         -24.2256  -10.3822  -20.9069 H       1  UNL1        0.1675
     24 C         -20.9461   -7.3565   -9.0339 C.ar    1  UNL1       -0.0153
     25 C         -20.1310   -7.6484   -7.9285 C.ar    1  UNL1        0.0143
     26 C         -20.5466   -8.5569   -6.9520 C.ar    1  UNL1        0.1066
     27 C         -21.7931   -9.1768   -7.0676 C.ar    1  UNL1        0.0325
     28 C         -22.6288   -8.9054   -8.1584 C.ar    1  UNL1        0.0469
     29 N         -23.8982   -9.5696   -8.2422 N.pl3   1  UNL1       -0.3569
     30 C         -22.2115   -7.9855   -9.1483 C.ar    1  UNL1        0.0626
     31 H         -24.5548   -9.4140   -9.0383 H       1  UNL1        0.1424
     32 H         -24.1987  -10.2358   -7.4960 H       1  UNL1        0.1424
     33 S         -19.5148   -8.8950   -5.5661 S.O2    1  UNL1        0.0105
     34 C         -18.5763   -7.4398   -5.1625 C.3     1  UNL1        0.1816
     35 O         -20.3571   -9.2931   -4.3865 O.2     1  UNL1       -0.1686
     36 O         -18.5779  -10.0242   -5.8923 O.2     1  UNL1       -0.1686
     37 C         -20.4322   -6.3853  -10.0782 C.3     1  UNL1        0.0266
     38 C         -21.6042   -4.5142  -11.3550 C.3     1  UNL1        0.0004
     39 C         -21.1264   -5.0176   -9.9935 C.3     1  UNL1        0.0047
@<TRIPOS>BOND
     1    38    39    1
     2    39    37    1
     3    37    24    1
     4    24    25   ar
     5    25    26   ar
     6    26    33    1
     7    33    34    1
     8    33    35    2
     9    33    36    2
    10    26    27   ar
    11    27    28   ar
    12    28    29    1
    13    28    30   ar
    14    30     1    1
    15     1     2    2
    16     1     3   am
    17     3     4    1
    18     4     5    1
    19     5     6    1
    20     6     7    1
    21     7     8   ar
    22     8     9   ar
    23     9    10   ar
    24    10    14    1
    25    14    15   ar
    26    15    16   ar
    27    16    17   ar
    28    17    18   ar
    29    18    19   ar
    30    19    20   ar
    31    20    21   ar
    32    21    22   ar
    33    10    11   ar
    34    11    12   ar
    35    12    13    1
    36    30    24   ar
    37    13     3    1
    38    12     7   ar
    39    22    14   ar
    40    21    17   ar
    41    29    31    1
    42    29    32    1
    43    20    23    1
@<TRIPOS>MOLECULE
*****
 39 43 0 0 0
SMALL
GASTEIGER

@<TRIPOS>ATOM
      1 C         -22.9961   -7.3534  -10.7439 C.2     1  UNL1        0.2503
      2 O         -23.8898   -6.4778  -10.5900 O.2     1  UNL1       -0.2699
      3 N         -22.8741   -8.0537  -12.0021 N.am    1  UNL1       -0.2680
      4 C         -22.1145   -9.3053  -12.0981 C.3     1  UNL1        0.1412
      5 C         -20.6853   -9.0076  -12.5443 C.3     1  UNL1        0.2268
      6 O         -20.6383   -7.8925  -13.4337 O.3     1  UNL1       -0.4739
      7 C         -21.4420   -7.8050  -14.5737 C.ar    1  UNL1        0.1362
      8 C         -20.8145   -7.7870  -15.8224 C.ar    1  UNL1        0.0366
      9 C         -21.5669   -7.7326  -16.9953 C.ar    1  UNL1        0.0031
     10 C         -22.9682   -7.6798  -16.9393 C.ar    1  UNL1       -0.0000
     11 C         -23.5995   -7.6689  -15.6833 C.ar    1  UNL1        0.0004
     12 C         -22.8549   -7.7337  -14.4923 C.ar    1  UNL1        0.0317
     13 C         -23.6097   -7.5725  -13.1822 C.3     1  UNL1        0.1236
     14 C         -23.7712   -7.6185  -18.1869 C.ar    1  UNL1        0.0015
     15 C         -24.5043   -6.4430  -18.5134 C.ar    1  UNL1        0.0016
     16 C         -25.2681   -6.3732  -19.6935 C.ar    1  UNL1        0.0206
     17 C         -25.2803   -7.4883  -20.5242 C.ar    1  UNL1        0.0985
     18 N         -25.9327   -7.6395  -21.6907 N.ar    1  UNL1       -0.2241
     19 C         -25.5934   -8.9015  -22.0651 C.ar    1  UNL1        0.1750
     20 N         -24.7697   -9.5227  -21.1871 N.ar    1  UNL1       -0.3349
     21 C         -24.5834   -8.6164  -20.2205 C.ar    1  UNL1        0.0757
     22 C         -23.8157   -8.7292  -19.0648 C.ar    1  UNL1        0.0185
     23 H         -24.3736  -10.4866  -21.2527 H       1  UNL1        0.1675
     24 C         -22.1523   -8.8201   -8.8836 C.ar    1  UNL1       -0.0153
     25 C         -21.2367   -9.0542   -7.8451 C.ar    1  UNL1        0.0143
     26 C         -20.2555   -8.1115   -7.5291 C.ar    1  UNL1        0.1066
     27 C         -20.1739   -6.9241   -8.2604 C.ar    1  UNL1        0.0325
     28 C         -21.0726   -6.6624   -9.3025 C.ar    1  UNL1        0.0469
     29 N         -20.9581   -5.4269  -10.0236 N.pl3   1  UNL1       -0.3569
     30 C         -22.0667   -7.6151   -9.6256 C.ar    1  UNL1        0.0626
     31 H         -21.6079   -5.1752  -10.8005 H       1  UNL1        0.1424
     32 H         -20.2098   -4.7393   -9.7826 H       1  UNL1        0.1424
     33 S         -19.1077   -8.4340   -6.2336 S.O2    1  UNL1        0.0105
     34 C         -19.9964   -8.8117   -4.7407 C.3     1  UNL1        0.1816
     35 O         -18.2311   -9.5973   -6.6048 O.2     1  UNL1       -0.1686
     36 O         -18.2389   -7.2278   -6.0112 O.2     1  UNL1       -0.1686
     37 C         -23.2148   -9.8645   -9.1637 C.3     1  UNL1        0.0266
     38 C         -25.6663  -10.4895   -8.8410 C.3     1  UNL1        0.0004
     39 C         -24.6248   -9.3719   -8.8045 C.3     1  UNL1        0.0047
@<TRIPOS>BOND
     1    38    39    1
     2    39    37    1
     3    37    24    1
     4    24    25   ar
     5    25    26   ar
     6    26    33    1
     7    33    34    1
     8    33    35    2
     9    33    36    2
    10    26    27   ar
    11    27    28   ar
    12    28    29    1
    13    28    30   ar
    14    30     1    1
    15     1     2    2
    16     1     3   am
    17     3     4    1
    18     4     5    1
    19     5     6    1
    20     6     7    1
    21     7     8   ar
    22     8     9   ar
    23     9    10   ar
    24    10    14    1
    25    14    15   ar
    26    15    16   ar
    27    16    17   ar
    28    17    18   ar
    29    18    19   ar
    30    19    20   ar
    31    20    21   ar
    32    21    22   ar
    33    10    11   ar
    34    11    12   ar
    35    12    13    1
    36    30    24   ar
    37    13     3    1
    38    12     7   ar
    39    22    14   ar
    40    21    17   ar
    41    29    31    1
    42    29    32    1
    43    20    23    1
@<TRIPOS>MOLECULE
*****
 39 43 0 0 0
SMALL
GASTEIGER

@<TRIPOS>ATOM
      1 C         -22.9765  -11.2780  -12.5905 C.2     1  UNL1        0.2503
      2 O         -23.9450  -12.0844  -12.6197 O.2     1  UNL1       -0.2699
      3 N         -23.1031   -9.9687  -13.1889 N.am    1  UNL1       -0.2680
      4 C         -21.9165   -9.1634  -13.4992 C.3     1  UNL1        0.1412
      5 C         -21.6279   -8.2057  -12.3459 C.3     1  UNL1        0.2268
      6 O         -22.8321   -7.7713  -11.7152 O.3     1  UNL1       -0.4739
      7 C         -23.9025   -7.2280  -12.4307 C.ar    1  UNL1        0.1362
      8 C         -24.2554   -5.8989  -12.1805 C.ar    1  UNL1        0.0366
      9 C         -25.2947   -5.2944  -12.8871 C.ar    1  UNL1        0.0031
     10 C         -26.0136   -6.0172  -13.8515 C.ar    1  UNL1       -0.0000
     11 C         -25.6785   -7.3625  -14.0838 C.ar    1  UNL1        0.0004
     12 C         -24.6265   -7.9828  -13.3868 C.ar    1  UNL1        0.0317
     13 C         -24.4278   -9.4754  -13.5977 C.3     1  UNL1        0.1236
     14 C         -27.1228   -5.3764  -14.6026 C.ar    1  UNL1        0.0015
     15 C         -28.4761   -5.6961  -14.2989 C.ar    1  UNL1        0.0016
     16 C         -29.5354   -5.0943  -15.0036 C.ar    1  UNL1        0.0206
     17 C         -29.2135   -4.1812  -16.0018 C.ar    1  UNL1        0.0985
     18 N         -30.0570   -3.4923  -16.7912 N.ar    1  UNL1       -0.2241
     19 C         -29.2144   -2.7603  -17.5672 C.ar    1  UNL1        0.1750
     20 N         -27.9050   -2.9693  -17.2893 N.ar    1  UNL1       -0.3349
     21 C         -27.9233   -3.8696  -16.2996 C.ar    1  UNL1        0.0757
     22 C         -26.8453   -4.4404  -15.6289 C.ar    1  UNL1        0.0185
     23 H         -27.0754   -2.5280  -17.7447 H       1  UNL1        0.1675
     24 C         -20.9078  -12.7019  -12.4598 C.ar    1  UNL1       -0.0153
     25 C         -19.7191  -13.0547  -11.8012 C.ar    1  UNL1        0.0143
     26 C         -19.3514  -12.4340  -10.6049 C.ar    1  UNL1        0.1066
     27 C         -20.1688  -11.4412  -10.0594 C.ar    1  UNL1        0.0325
     28 C         -21.3604  -11.0671  -10.6935 C.ar    1  UNL1        0.0469
     29 N         -22.1745  -10.0478  -10.0952 N.pl3   1  UNL1       -0.3569
     30 C         -21.7351  -11.6930  -11.9052 C.ar    1  UNL1        0.0626
     31 H         -23.0772   -9.7389  -10.5180 H       1  UNL1        0.1424
     32 H         -21.8775   -9.5847   -9.2074 H       1  UNL1        0.1424
     33 S         -17.8479  -12.8811   -9.8054 S.O2    1  UNL1        0.0105
     34 C         -17.0746  -11.4214   -9.1477 C.3     1  UNL1        0.1816
     35 O         -18.1300  -13.8470   -8.6888 O.2     1  UNL1       -0.1686
     36 O         -16.9238  -13.5402  -10.7908 O.2     1  UNL1       -0.1686
     37 C         -21.2721  -13.4290  -13.7391 C.3     1  UNL1        0.0266
     38 C         -22.1515  -12.8641  -16.0655 C.3     1  UNL1        0.0004
     39 C         -21.1291  -12.5335  -14.9790 C.3     1  UNL1        0.0047
@<TRIPOS>BOND
     1    38    39    1
     2    39    37    1
     3    37    24    1
     4    24    25   ar
     5    25    26   ar
     6    26    33    1
     7    33    34    1
     8    33    35    2
     9    33    36    2
    10    26    27   ar
    11    27    28   ar
    12    28    29    1
    13    28    30   ar
    14    30     1    1
    15     1     2    2
    16     1     3   am
    17     3     4    1
    18     4     5    1
    19     5     6    1
    20     6     7    1
    21     7     8   ar
    22     8     9   ar
    23     9    10   ar
    24    10    14    1
    25    14    15   ar
    26    15    16   ar
    27    16    17   ar
    28    17    18   ar
    29    18    19   ar
    30    19    20   ar
    31    20    21   ar
    32    21    22   ar
    33    10    11   ar
    34    11    12   ar
    35    12    13    1
    36    30    24   ar
    37    13     3    1
    38    12     7   ar
    39    22    14   ar
    40    21    17   ar
    41    29    31    1
    42    29    32    1
    43    20    23    1
@<TRIPOS>MOLECULE
*****
 39 43 0 0 0
SMALL
GASTEIGER

@<TRIPOS>ATOM
      1 C         -22.6055   -7.1964  -10.0285 C.2     1  UNL1        0.2503
      2 O         -22.7432   -6.8328   -8.8294 O.2     1  UNL1       -0.2699
      3 N         -21.4008   -7.8756  -10.4479 N.am    1  UNL1       -0.2680
      4 C         -21.0488   -7.9789  -11.8685 C.3     1  UNL1        0.1412
      5 C         -21.5544   -9.3056  -12.4294 C.3     1  UNL1        0.2268
      6 O         -21.5089  -10.3387  -11.4458 O.3     1  UNL1       -0.4739
      7 C         -20.3564  -10.6263  -10.7095 C.ar    1  UNL1        0.1362
      8 C         -19.7646  -11.8816  -10.8757 C.ar    1  UNL1        0.0366
      9 C         -18.5957  -12.2126  -10.1910 C.ar    1  UNL1        0.0031
     10 C         -18.0027  -11.2940   -9.3113 C.ar    1  UNL1       -0.0000
     11 C         -18.6126  -10.0418   -9.1214 C.ar    1  UNL1        0.0004
     12 C         -19.7855   -9.6897   -9.8124 C.ar    1  UNL1        0.0317
     13 C         -20.4532   -8.3756   -9.4392 C.3     1  UNL1        0.1236
     14 C         -16.7598  -11.6456   -8.5787 C.ar    1  UNL1        0.0015
     15 C         -15.6682  -12.2505   -9.2630 C.ar    1  UNL1        0.0016
     16 C         -14.4850  -12.5872   -8.5791 C.ar    1  UNL1        0.0206
     17 C         -14.4218  -12.3091   -7.2181 C.ar    1  UNL1        0.0985
     18 N         -13.3987  -12.5415   -6.3764 N.ar    1  UNL1       -0.2241
     19 C         -13.8727  -12.0780   -5.1897 C.ar    1  UNL1        0.1750
     20 N         -15.1289  -11.5769   -5.2681 N.ar    1  UNL1       -0.3349
     21 C         -15.4599  -11.7317   -6.5553 C.ar    1  UNL1        0.0757
     22 C         -16.6479  -11.3826   -7.1913 C.ar    1  UNL1        0.0185
     23 H         -15.7034  -11.1656   -4.4992 H       1  UNL1        0.1675
     24 C         -24.7230   -7.9142  -11.1795 C.ar    1  UNL1       -0.0153
     25 C         -25.7785   -7.6322  -12.0614 C.ar    1  UNL1        0.0143
     26 C         -25.8362   -6.4144  -12.7435 C.ar    1  UNL1        0.1066
     27 C         -24.8386   -5.4580  -12.5400 C.ar    1  UNL1        0.0325
     28 C         -23.7734   -5.7100  -11.6660 C.ar    1  UNL1        0.0469
     29 N         -22.7659   -4.7030  -11.4915 N.pl3   1  UNL1       -0.3569
     30 C         -23.7124   -6.9415  -10.9733 C.ar    1  UNL1        0.0626
     31 H         -21.9448   -4.8422  -10.8626 H       1  UNL1        0.1424
     32 H         -22.8320   -3.7927  -11.9993 H       1  UNL1        0.1424
     33 S         -27.1782   -6.0762  -13.8318 S.O2    1  UNL1        0.0105
     34 C         -28.3156   -7.4424  -13.8056 C.3     1  UNL1        0.1816
     35 O         -27.8866   -4.8239  -13.3964 O.2     1  UNL1       -0.1686
     36 O         -26.6624   -5.8768  -15.2295 O.2     1  UNL1       -0.1686
     37 C         -24.6951   -9.2634  -10.4888 C.3     1  UNL1        0.0266
     38 C         -25.7054  -10.7072   -8.6450 C.3     1  UNL1        0.0004
     39 C         -25.7940   -9.3952   -9.4235 C.3     1  UNL1        0.0047
@<TRIPOS>BOND
     1    38    39    1
     2    39    37    1
     3    37    24    1
     4    24    25   ar
     5    25    26   ar
     6    26    33    1
     7    33    34    1
     8    33    35    2
     9    33    36    2
    10    26    27   ar
    11    27    28   ar
    12    28    29    1
    13    28    30   ar
    14    30     1    1
    15     1     2    2
    16     1     3   am
    17     3     4    1
    18     4     5    1
    19     5     6    1
    20     6     7    1
    21     7     8   ar
    22     8     9   ar
    23     9    10   ar
    24    10    14    1
    25    14    15   ar
    26    15    16   ar
    27    16    17   ar
    28    17    18   ar
    29    18    19   ar
    30    19    20   ar
    31    20    21   ar
    32    21    22   ar
    33    10    11   ar
    34    11    12   ar
    35    12    13    1
    36    30    24   ar
    37    13     3    1
    38    12     7   ar
    39    22    14   ar
    40    21    17   ar
    41    29    31    1
    42    29    32    1
    43    20    23    1
@<TRIPOS>MOLECULE
*****
 39 43 0 0 0
SMALL
GASTEIGER

@<TRIPOS>ATOM
      1 C         -21.5599   -8.3899  -13.1933 C.2     1  UNL1        0.2503
      2 O         -21.2664   -8.5579  -14.4077 O.2     1  UNL1       -0.2699
      3 N         -22.7012   -7.5828  -12.8267 N.am    1  UNL1       -0.2680
      4 C         -22.8537   -7.0683  -11.4611 C.3     1  UNL1        0.1412
      5 C         -23.7268   -8.0196  -10.6468 C.3     1  UNL1        0.2268
      6 O         -24.7250   -8.6360  -11.4595 O.3     1  UNL1       -0.4739
      7 C         -25.5864   -7.9018  -12.2794 C.ar    1  UNL1        0.1362
      8 C         -26.9549   -7.9390  -11.9979 C.ar    1  UNL1        0.0366
      9 C         -27.8581   -7.2014  -12.7626 C.ar    1  UNL1        0.0031
     10 C         -27.4076   -6.4207  -13.8383 C.ar    1  UNL1       -0.0000
     11 C         -26.0348   -6.4050  -14.1402 C.ar    1  UNL1        0.0004
     12 C         -25.1108   -7.1351  -13.3721 C.ar    1  UNL1        0.0317
     13 C         -23.6699   -7.1740  -13.8562 C.3     1  UNL1        0.1236
     14 C         -28.3681   -5.6371  -14.6559 C.ar    1  UNL1        0.0015
     15 C         -29.7612   -5.9232  -14.6000 C.ar    1  UNL1        0.0016
     16 C         -30.6808   -5.1865  -15.3698 C.ar    1  UNL1        0.0206
     17 C         -30.1815   -4.1747  -16.1826 C.ar    1  UNL1        0.0985
     18 N         -30.8721   -3.3520  -16.9922 N.ar    1  UNL1       -0.2241
     19 C         -29.8982   -2.5734  -17.5334 C.ar    1  UNL1        0.1750
     20 N         -28.6540   -2.8807  -17.0942 N.ar    1  UNL1       -0.3349
     21 C         -28.8518   -3.8941  -16.2431 C.ar    1  UNL1        0.0757
     22 C         -27.9076   -4.5968  -15.4999 C.ar    1  UNL1        0.0185
     23 H         -27.7511   -2.4290  -17.3607 H       1  UNL1        0.1675
     24 C         -20.9658  -10.4191  -11.8320 C.ar    1  UNL1       -0.0153
     25 C         -20.1452  -11.0398  -10.8765 C.ar    1  UNL1        0.0143
     26 C         -19.1156  -10.3340  -10.2494 C.ar    1  UNL1        0.1066
     27 C         -18.8894   -8.9963  -10.5824 C.ar    1  UNL1        0.0325
     28 C         -19.6906   -8.3500  -11.5322 C.ar    1  UNL1        0.0469
     29 N         -19.4285   -6.9728  -11.8395 N.pl3   1  UNL1       -0.3569
     30 C         -20.7333   -9.0619  -12.1696 C.ar    1  UNL1        0.0626
     31 H         -20.0013   -6.4393  -12.5297 H       1  UNL1        0.1424
     32 H         -18.6459   -6.4643  -11.3708 H       1  UNL1        0.1424
     33 S         -18.0889  -11.1377   -9.0664 S.O2    1  UNL1        0.0105
     34 C         -18.2525  -12.8991   -9.2456 C.3     1  UNL1        0.1816
     35 O         -16.6548  -10.7417   -9.2809 O.2     1  UNL1       -0.1686
     36 O         -18.4982  -10.7324   -7.6781 O.2     1  UNL1       -0.1686
     37 C         -22.0867  -11.2243  -12.4590 C.3     1  UNL1        0.0266
     38 C         -21.6184  -12.0413  -14.8293 C.3     1  UNL1        0.0004
     39 C         -21.5605  -12.3691  -13.3378 C.3     1  UNL1        0.0047
@<TRIPOS>BOND
     1    38    39    1
     2    39    37    1
     3    37    24    1
     4    24    25   ar
     5    25    26   ar
     6    26    33    1
     7    33    34    1
     8    33    35    2
     9    33    36    2
    10    26    27   ar
    11    27    28   ar
    12    28    29    1
    13    28    30   ar
    14    30     1    1
    15     1     2    2
    16     1     3   am
    17     3     4    1
    18     4     5    1
    19     5     6    1
    20     6     7    1
    21     7     8   ar
    22     8     9   ar
    23     9    10   ar
    24    10    14    1
    25    14    15   ar
    26    15    16   ar
    27    16    17   ar
    28    17    18   ar
    29    18    19   ar
    30    19    20   ar
    31    20    21   ar
    32    21    22   ar
    33    10    11   ar
    34    11    12   ar
    35    12    13    1
    36    30    24   ar
    37    13     3    1
    38    12     7   ar
    39    22    14   ar
    40    21    17   ar
    41    29    31    1
    42    29    32    1
    43    20    23    1
@<TRIPOS>MOLECULE
*****
 39 43 0 0 0
SMALL
GASTEIGER

@<TRIPOS>ATOM
      1 C         -23.0032  -11.1217  -12.4938 C.2     1  UNL1        0.2503
      2 O         -23.9739  -11.9252  -12.4586 O.2     1  UNL1       -0.2699
      3 N         -23.1439   -9.8404  -13.1471 N.am    1  UNL1       -0.2680
      4 C         -21.9650   -9.0542  -13.5275 C.3     1  UNL1        0.1412
      5 C         -21.6411   -8.0463  -12.4276 C.3     1  UNL1        0.2268
      6 O         -22.8257   -7.5795  -11.7830 O.3     1  UNL1       -0.4739
      7 C         -23.9151   -7.0653  -12.4915 C.ar    1  UNL1        0.1362
      8 C         -24.2576   -5.7251  -12.2919 C.ar    1  UNL1        0.0366
      9 C         -25.3154   -5.1495  -12.9950 C.ar    1  UNL1        0.0031
     10 C         -26.0634   -5.9127  -13.9046 C.ar    1  UNL1       -0.0000
     11 C         -25.7382   -7.2683  -14.0851 C.ar    1  UNL1        0.0004
     12 C         -24.6680   -7.8601  -13.3912 C.ar    1  UNL1        0.0317
     13 C         -24.4788   -9.3615  -13.5397 C.3     1  UNL1        0.1236
     14 C         -27.1923   -5.3026  -14.6519 C.ar    1  UNL1        0.0015
     15 C         -28.5359   -5.6481  -14.3336 C.ar    1  UNL1        0.0016
     16 C         -29.6138   -5.0755  -15.0346 C.ar    1  UNL1        0.0206
     17 C         -29.3199   -4.1652  -16.0439 C.ar    1  UNL1        0.0985
     18 N         -30.1845   -3.5017  -16.8322 N.ar    1  UNL1       -0.2241
     19 C         -29.3642   -2.7595  -17.6222 C.ar    1  UNL1        0.1750
     20 N         -28.0484   -2.9380  -17.3539 N.ar    1  UNL1       -0.3349
     21 C         -28.0391   -3.8291  -16.3558 C.ar    1  UNL1        0.0757
     22 C         -26.9436   -4.3706  -15.6892 C.ar    1  UNL1        0.0185
     23 H         -27.2323   -2.4836  -17.8205 H       1  UNL1        0.1675
     24 C         -21.3530  -10.8951  -10.6098 C.ar    1  UNL1       -0.0153
     25 C         -20.1653  -11.3050   -9.9830 C.ar    1  UNL1        0.0143
     26 C         -19.3623  -12.2980  -10.5492 C.ar    1  UNL1        0.1066
     27 C         -19.7482  -12.9011  -11.7487 C.ar    1  UNL1        0.0325
     28 C         -20.9278  -12.5141  -12.3972 C.ar    1  UNL1        0.0469
     29 N         -21.2834  -13.1544  -13.6314 N.pl3   1  UNL1       -0.3569
     30 C         -21.7435  -11.5096  -11.8262 C.ar    1  UNL1        0.0626
     31 H         -22.1441  -12.8971  -14.1625 H       1  UNL1        0.1424
     32 H         -20.6781  -13.9046  -14.0335 H       1  UNL1        0.1424
     33 S         -17.8858  -12.8075   -9.7369 S.O2    1  UNL1        0.0105
     34 C         -17.0860  -11.3879   -9.0253 C.3     1  UNL1        0.1816
     35 O         -18.2134  -13.7959   -8.6529 O.2     1  UNL1       -0.1686
     36 O         -16.9620  -13.4639  -10.7244 O.2     1  UNL1       -0.1686
     37 C         -22.1702   -9.7925   -9.9660 C.3     1  UNL1        0.0266
     38 C         -24.6413   -9.6002   -9.3646 C.3     1  UNL1        0.0004
     39 C         -23.3286  -10.3436   -9.1209 C.3     1  UNL1        0.0047
@<TRIPOS>BOND
     1    38    39    1
     2    39    37    1
     3    37    24    1
     4    24    25   ar
     5    25    26   ar
     6    26    33    1
     7    33    34    1
     8    33    35    2
     9    33    36    2
    10    26    27   ar
    11    27    28   ar
    12    28    29    1
    13    28    30   ar
    14    30     1    1
    15     1     2    2
    16     1     3   am
    17     3     4    1
    18     4     5    1
    19     5     6    1
    20     6     7    1
    21     7     8   ar
    22     8     9   ar
    23     9    10   ar
    24    10    14    1
    25    14    15   ar
    26    15    16   ar
    27    16    17   ar
    28    17    18   ar
    29    18    19   ar
    30    19    20   ar
    31    20    21   ar
    32    21    22   ar
    33    10    11   ar
    34    11    12   ar
    35    12    13    1
    36    30    24   ar
    37    13     3    1
    38    12     7   ar
    39    22    14   ar
    40    21    17   ar
    41    29    31    1
    42    29    32    1
    43    20    23    1
@<TRIPOS>MOLECULE
*****
 39 43 0 0 0
SMALL
GASTEIGER

@<TRIPOS>ATOM
      1 C         -20.6929   -7.7052   -9.4649 C.2     1  UNL1        0.2503
      2 O         -20.4338   -6.4923   -9.2394 O.2     1  UNL1       -0.2699
      3 N         -21.9286   -8.0752  -10.1165 N.am    1  UNL1       -0.2680
      4 C         -22.4263   -9.4544  -10.0624 C.3     1  UNL1        0.1412
      5 C         -21.9701  -10.2157  -11.3045 C.3     1  UNL1        0.2268
      6 O         -21.9031   -9.3604  -12.4449 O.3     1  UNL1       -0.4739
      7 C         -22.9696   -8.5483  -12.8401 C.ar    1  UNL1        0.1362
      8 C         -23.5641   -8.7986  -14.0801 C.ar    1  UNL1        0.0366
      9 C         -24.6520   -8.0409  -14.5126 C.ar    1  UNL1        0.0031
     10 C         -25.1581   -7.0034  -13.7146 C.ar    1  UNL1       -0.0000
     11 C         -24.5430   -6.7319  -12.4800 C.ar    1  UNL1        0.0004
     12 C         -23.4521   -7.4938  -12.0257 C.ar    1  UNL1        0.0317
     13 C         -22.7610   -7.0400  -10.7496 C.3     1  UNL1        0.1236
     14 C         -26.3143   -6.1931  -14.1747 C.ar    1  UNL1        0.0015
     15 C         -26.1150   -4.8775  -14.6800 C.ar    1  UNL1        0.0016
     16 C         -27.2033   -4.1007  -15.1197 C.ar    1  UNL1        0.0206
     17 C         -28.4731   -4.6623  -15.0430 C.ar    1  UNL1        0.0985
     18 N         -29.6430   -4.1067  -15.4062 N.ar    1  UNL1       -0.2241
     19 C         -30.5431   -5.0844  -15.1208 C.ar    1  UNL1        0.1750
     20 N         -29.9804   -6.2031  -14.6040 N.ar    1  UNL1       -0.3349
     21 C         -28.6736   -5.9186  -14.5612 C.ar    1  UNL1        0.0757
     22 C         -27.6273   -6.7213  -14.1156 C.ar    1  UNL1        0.0185
     23 H         -30.4590   -7.0828  -14.3083 H       1  UNL1        0.1675
     24 C         -19.4185   -8.9818   -7.7128 C.ar    1  UNL1       -0.0153
     25 C         -18.4847   -9.9749   -7.3760 C.ar    1  UNL1        0.0143
     26 C         -17.8179  -10.6973   -8.3685 C.ar    1  UNL1        0.1066
     27 C         -18.0889  -10.4390   -9.7143 C.ar    1  UNL1        0.0325
     28 C         -19.0157   -9.4551  -10.0815 C.ar    1  UNL1        0.0469
     29 N         -19.2590   -9.2167  -11.4756 N.pl3   1  UNL1       -0.3569
     30 C         -19.6932   -8.7224   -9.0792 C.ar    1  UNL1        0.0626
     31 H         -19.9296   -8.4883  -11.8056 H       1  UNL1        0.1424
     32 H         -18.7614   -9.7756  -12.2042 H       1  UNL1        0.1424
     33 S         -16.6633  -11.9493   -7.9223 S.O2    1  UNL1        0.0105
     34 C         -15.3534  -11.9966   -9.1236 C.3     1  UNL1        0.1816
     35 O         -16.0896  -11.6556   -6.5644 O.2     1  UNL1       -0.1686
     36 O         -17.3526  -13.2843   -7.8757 O.2     1  UNL1       -0.1686
     37 C         -20.0904   -8.2086   -6.5954 C.3     1  UNL1        0.0266
     38 C         -20.5502   -8.9352   -4.1942 C.3     1  UNL1        0.0004
     39 C         -19.4902   -8.5337   -5.2192 C.3     1  UNL1        0.0047
@<TRIPOS>BOND
     1    38    39    1
     2    39    37    1
     3    37    24    1
     4    24    25   ar
     5    25    26   ar
     6    26    33    1
     7    33    34    1
     8    33    35    2
     9    33    36    2
    10    26    27   ar
    11    27    28   ar
    12    28    29    1
    13    28    30   ar
    14    30     1    1
    15     1     2    2
    16     1     3   am
    17     3     4    1
    18     4     5    1
    19     5     6    1
    20     6     7    1
    21     7     8   ar
    22     8     9   ar
    23     9    10   ar
    24    10    14    1
    25    14    15   ar
    26    15    16   ar
    27    16    17   ar
    28    17    18   ar
    29    18    19   ar
    30    19    20   ar
    31    20    21   ar
    32    21    22   ar
    33    10    11   ar
    34    11    12   ar
    35    12    13    1
    36    30    24   ar
    37    13     3    1
    38    12     7   ar
    39    22    14   ar
    40    21    17   ar
    41    29    31    1
    42    29    32    1
    43    20    23    1
@<TRIPOS>MOLECULE
*****
 39 43 0 0 0
SMALL
GASTEIGER

@<TRIPOS>ATOM
      1 C         -20.7259   -7.9562  -11.3278 C.2     1  UNL1        0.2503
      2 O         -20.0953   -7.1810  -12.0962 O.2     1  UNL1       -0.2699
      3 N         -22.1622   -7.8505  -11.2080 N.am    1  UNL1       -0.2680
      4 C         -22.8720   -8.4626  -10.0792 C.3     1  UNL1        0.1412
      5 C         -23.3743   -9.8482  -10.4768 C.3     1  UNL1        0.2268
      6 O         -23.7324   -9.8967  -11.8574 O.3     1  UNL1       -0.4739
      7 C         -24.6007   -8.9710  -12.4424 C.ar    1  UNL1        0.1362
      8 C         -25.8159   -9.4377  -12.9511 C.ar    1  UNL1        0.0366
      9 C         -26.7352   -8.5553  -13.5176 C.ar    1  UNL1        0.0031
     10 C         -26.4473   -7.1842  -13.5993 C.ar    1  UNL1       -0.0000
     11 C         -25.2133   -6.7175  -13.1140 C.ar    1  UNL1        0.0004
     12 C         -24.2807   -7.5934  -12.5308 C.ar    1  UNL1        0.0317
     13 C         -22.9180   -7.0267  -12.1648 C.3     1  UNL1        0.1236
     14 C         -27.4233   -6.2432  -14.2051 C.ar    1  UNL1        0.0015
     15 C         -26.9739   -5.0539  -14.8450 C.ar    1  UNL1        0.0016
     16 C         -27.8899   -4.1553  -15.4233 C.ar    1  UNL1        0.0206
     17 C         -29.2422   -4.4699  -15.3472 C.ar    1  UNL1        0.0985
     18 N         -30.2807   -3.7636  -15.8287 N.ar    1  UNL1       -0.2241
     19 C         -31.3514   -4.5251  -15.4801 C.ar    1  UNL1        0.1750
     20 N         -31.0163   -5.6556  -14.8130 N.ar    1  UNL1       -0.3349
     21 C         -29.6814   -5.6038  -14.7374 C.ar    1  UNL1        0.0757
     22 C         -28.8116   -6.5197  -14.1524 C.ar    1  UNL1        0.0185
     23 H         -31.6551   -6.3947  -14.4442 H       1  UNL1        0.1675
     24 C         -19.8898  -10.3146  -11.0765 C.ar    1  UNL1       -0.0153
     25 C         -19.1368  -11.2644  -10.3677 C.ar    1  UNL1        0.0143
     26 C         -18.4767  -10.9185   -9.1862 C.ar    1  UNL1        0.1066
     27 C         -18.5553   -9.6091   -8.7061 C.ar    1  UNL1        0.0325
     28 C         -19.2981   -8.6392   -9.3913 C.ar    1  UNL1        0.0469
     29 N         -19.3585   -7.3075   -8.8594 N.pl3   1  UNL1       -0.3569
     30 C         -19.9669   -8.9858  -10.5883 C.ar    1  UNL1        0.0626
     31 H         -19.9063   -6.5493   -9.3220 H       1  UNL1        0.1424
     32 H         -18.8476   -7.0631   -7.9819 H       1  UNL1        0.1424
     33 S         -17.5248  -12.1222   -8.3232 S.O2    1  UNL1        0.0105
     34 C         -15.8465  -12.0749   -8.9084 C.3     1  UNL1        0.1816
     35 O         -17.5512  -11.8338   -6.8483 O.2     1  UNL1       -0.1686
     36 O         -18.1014  -13.4905   -8.5570 O.2     1  UNL1       -0.1686
     37 C         -20.6095  -10.7526  -12.3367 C.3     1  UNL1        0.0266
     38 C         -21.5009  -12.7520  -13.6454 C.3     1  UNL1        0.0004
     39 C         -21.0085  -12.2354  -12.2942 C.3     1  UNL1        0.0047
@<TRIPOS>BOND
     1    38    39    1
     2    39    37    1
     3    37    24    1
     4    24    25   ar
     5    25    26   ar
     6    26    33    1
     7    33    34    1
     8    33    35    2
     9    33    36    2
    10    26    27   ar
    11    27    28   ar
    12    28    29    1
    13    28    30   ar
    14    30     1    1
    15     1     2    2
    16     1     3   am
    17     3     4    1
    18     4     5    1
    19     5     6    1
    20     6     7    1
    21     7     8   ar
    22     8     9   ar
    23     9    10   ar
    24    10    14    1
    25    14    15   ar
    26    15    16   ar
    27    16    17   ar
    28    17    18   ar
    29    18    19   ar
    30    19    20   ar
    31    20    21   ar
    32    21    22   ar
    33    10    11   ar
    34    11    12   ar
    35    12    13    1
    36    30    24   ar
    37    13     3    1
    38    12     7   ar
    39    22    14   ar
    40    21    17   ar
    41    29    31    1
    42    29    32    1
    43    20    23    1
@<TRIPOS>MOLECULE
*****
 39 43 0 0 0
SMALL
GASTEIGER

@<TRIPOS>ATOM
      1 C         -26.6384   -7.4805  -13.7277 C.2     1  UNL1        0.2503
      2 O         -26.4016   -8.5145  -14.4089 O.2     1  UNL1       -0.2699
      3 N         -25.9208   -7.2418  -12.4962 N.am    1  UNL1       -0.2680
      4 C         -26.4147   -6.2731  -11.5111 C.3     1  UNL1        0.1412
      5 C         -25.7428   -4.9211  -11.7365 C.3     1  UNL1        0.2268
      6 O         -24.4044   -5.0759  -12.2071 O.3     1  UNL1       -0.4739
      7 C         -23.4685   -5.8873  -11.5599 C.ar    1  UNL1        0.1362
      8 C         -22.3375   -5.2781  -11.0092 C.ar    1  UNL1        0.0366
      9 C         -21.3858   -6.0332  -10.3245 C.ar    1  UNL1        0.0031
     10 C         -21.5417   -7.4214  -10.1907 C.ar    1  UNL1       -0.0000
     11 C         -22.6642   -8.0394  -10.7687 C.ar    1  UNL1        0.0004
     12 C         -23.6375   -7.2901  -11.4531 C.ar    1  UNL1        0.0317
     13 C         -24.7400   -8.0559  -12.1672 C.3     1  UNL1        0.1236
     14 C         -20.5278   -8.2279   -9.4649 C.ar    1  UNL1        0.0015
     15 C         -20.1744   -7.9022   -8.1252 C.ar    1  UNL1        0.0016
     16 C         -19.2154   -8.6600   -7.4272 C.ar    1  UNL1        0.0206
     17 C         -18.6291   -9.7324   -8.0905 C.ar    1  UNL1        0.0985
     18 N         -17.7010  -10.5845   -7.6195 N.ar    1  UNL1       -0.2241
     19 C         -17.4966  -11.4201   -8.6720 C.ar    1  UNL1        0.1750
     20 N         -18.2521  -11.1195   -9.7556 N.ar    1  UNL1       -0.3349
     21 C         -18.9600  -10.0512   -9.3709 C.ar    1  UNL1        0.0757
     22 C         -19.9022   -9.3295  -10.0984 C.ar    1  UNL1        0.0185
     23 H         -18.2743  -11.6103  -10.6770 H       1  UNL1        0.1675
     24 C         -27.2373   -5.4464  -15.0796 C.ar    1  UNL1       -0.0153
     25 C         -28.2102   -4.5615  -15.5715 C.ar    1  UNL1        0.0143
     26 C         -29.5561   -4.7148  -15.2304 C.ar    1  UNL1        0.1066
     27 C         -29.9447   -5.7672  -14.3981 C.ar    1  UNL1        0.0325
     28 C         -28.9975   -6.6666  -13.8922 C.ar    1  UNL1        0.0469
     29 N         -29.4385   -7.7295  -13.0346 N.pl3   1  UNL1       -0.3569
     30 C         -27.6341   -6.5148  -14.2364 C.ar    1  UNL1        0.0626
     31 H         -28.7750   -8.4203  -12.6204 H       1  UNL1        0.1424
     32 H         -30.4508   -7.8371  -12.8008 H       1  UNL1        0.1424
     33 S         -30.7606   -3.6028  -15.8725 S.O2    1  UNL1        0.0105
     34 C         -30.3106   -3.1408  -17.5294 C.3     1  UNL1        0.1816
     35 O         -32.1112   -4.2625  -15.8838 O.2     1  UNL1       -0.1686
     36 O         -30.8314   -2.3746  -15.0088 O.2     1  UNL1       -0.1686
     37 C         -25.7879   -5.2151  -15.4584 C.3     1  UNL1        0.0266
     38 C         -24.8748   -5.5766  -17.8123 C.3     1  UNL1        0.0004
     39 C         -25.6405   -4.6425  -16.8762 C.3     1  UNL1        0.0047
@<TRIPOS>BOND
     1    38    39    1
     2    39    37    1
     3    37    24    1
     4    24    25   ar
     5    25    26   ar
     6    26    33    1
     7    33    34    1
     8    33    35    2
     9    33    36    2
    10    26    27   ar
    11    27    28   ar
    12    28    29    1
    13    28    30   ar
    14    30     1    1
    15     1     2    2
    16     1     3   am
    17     3     4    1
    18     4     5    1
    19     5     6    1
    20     6     7    1
    21     7     8   ar
    22     8     9   ar
    23     9    10   ar
    24    10    14    1
    25    14    15   ar
    26    15    16   ar
    27    16    17   ar
    28    17    18   ar
    29    18    19   ar
    30    19    20   ar
    31    20    21   ar
    32    21    22   ar
    33    10    11   ar
    34    11    12   ar
    35    12    13    1
    36    30    24   ar
    37    13     3    1
    38    12     7   ar
    39    22    14   ar
    40    21    17   ar
    41    29    31    1
    42    29    32    1
    43    20    23    1
