@<TRIPOS>MOLECULE
*****
 23 25 0 0 0
SMALL
GASTEIGER

@<TRIPOS>ATOM
      1 C         -16.1642    1.3162  -13.2972 C.ar    1  UNL1        0.0348
      2 C         -15.8624    2.1515  -12.2022 C.ar    1  UNL1        0.0044
      3 C         -16.8620    2.5474  -11.3089 C.ar    1  UNL1        0.0192
      4 C         -18.1781    2.1183  -11.4925 C.ar    1  UNL1        0.0827
      5 N         -19.1503    2.5058  -10.6238 N.ar    1  UNL1       -0.2305
      6 C         -20.4478    2.1206  -10.7695 C.ar    1  UNL1        0.1344
      7 C         -20.7996    1.2689  -11.8313 C.ar    1  UNL1        0.0345
      8 C         -19.8230    0.8576  -12.7400 C.ar    1  UNL1        0.0044
      9 C         -18.4984    1.2820  -12.5809 C.ar    1  UNL1        0.0179
     10 C         -17.4940    0.8853  -13.4760 C.ar    1  UNL1        0.0043
     11 N         -21.4157    2.5545   -9.8012 N.am    1  UNL1       -0.2645
     12 C         -22.8360    2.4184   -9.9547 C.2     1  UNL1        0.2700
     13 O         -23.5292    2.0804   -8.9588 O.2     1  UNL1       -0.2681
     14 H         -21.0601    2.9339   -8.8950 H       1  UNL1        0.1566
     15 C         -23.5145    2.7220  -11.2281 C.ar    1  UNL1        0.1556
     16 C         -24.7128    2.1917  -11.6748 C.ar    1  UNL1        0.0454
     17 C         -24.8933    2.7556  -12.9190 C.ar    1  UNL1        0.0925
     18 N         -23.8511    3.5629  -13.1821 N.ar    1  UNL1       -0.2742
     19 N         -23.0052    3.5457  -12.1652 N.ar    1  UNL1       -0.1680
     20 H         -23.7106    4.1201  -14.0534 H       1  UNL1        0.1890
     21 C         -13.9135    1.7431  -14.5528 C.3     1  UNL1        0.0773
     22 C         -15.1088    0.8879  -14.2553 C.2     1  UNL1        0.1735
     23 O         -15.2093   -0.2243  -14.8416 O.2     1  UNL1       -0.2913
@<TRIPOS>BOND
     1    21    22    1
     2    22    23    2
     3    22     1    1
     4     1     2   ar
     5     2     3   ar
     6     3     4   ar
     7     4     5   ar
     8     5     6   ar
     9     6    11    1
    10    11    12   am
    11    12    13    2
    12    12    15    1
    13    15    16   ar
    14    16    17   ar
    15    17    18   ar
    16    18    19   ar
    17     6     7   ar
    18     7     8   ar
    19     8     9   ar
    20     9    10   ar
    21    10     1   ar
    22     9     4   ar
    23    19    15   ar
    24    11    14    1
    25    18    20    1
@<TRIPOS>MOLECULE
*****
 23 25 0 0 0
SMALL
GASTEIGER

@<TRIPOS>ATOM
      1 C         -22.4209  -12.5990  -15.3524 C.ar    1  UNL1        0.0348
      2 C         -23.7830  -12.2779  -15.5237 C.ar    1  UNL1        0.0044
      3 C         -24.1700  -10.9949  -15.9210 C.ar    1  UNL1        0.0192
      4 C         -23.2066  -10.0111  -16.1531 C.ar    1  UNL1        0.0827
      5 N         -23.5844   -8.7624  -16.5377 N.ar    1  UNL1       -0.2305
      6 C         -22.6810   -7.7697  -16.7649 C.ar    1  UNL1        0.1344
      7 C         -21.3083   -8.0421  -16.6308 C.ar    1  UNL1        0.0345
      8 C         -20.8916   -9.3141  -16.2345 C.ar    1  UNL1        0.0044
      9 C         -21.8400  -10.3140  -15.9879 C.ar    1  UNL1        0.0179
     10 C         -21.4534  -11.6022  -15.5897 C.ar    1  UNL1        0.0043
     11 N         -23.1542   -6.4810  -17.1869 N.am    1  UNL1       -0.2645
     12 C         -24.3179   -6.2687  -17.9993 C.2     1  UNL1        0.2700
     13 O         -25.0851   -5.3069  -17.7294 O.2     1  UNL1       -0.2681
     14 H         -22.6565   -5.6376  -16.8228 H       1  UNL1        0.1566
     15 C         -24.6087   -7.1062  -19.1775 C.ar    1  UNL1        0.1556
     16 C         -25.4594   -6.7955  -20.2246 C.ar    1  UNL1        0.0454
     17 C         -25.4158   -7.9047  -21.0410 C.ar    1  UNL1        0.0925
     18 N         -24.5904   -8.8125  -20.4916 N.ar    1  UNL1       -0.2742
     19 N         -24.0994   -8.3409  -19.3574 N.ar    1  UNL1       -0.1680
     20 H         -24.3653   -9.7537  -20.8825 H       1  UNL1        0.1890
     21 C         -22.8411  -15.1724  -15.1913 C.3     1  UNL1        0.0773
     22 C         -21.9963  -13.9614  -14.9296 C.2     1  UNL1        0.1735
     23 O         -20.8961  -14.1174  -14.3327 O.2     1  UNL1       -0.2913
@<TRIPOS>BOND
     1    21    22    1
     2    22    23    2
     3    22     1    1
     4     1     2   ar
     5     2     3   ar
     6     3     4   ar
     7     4     5   ar
     8     5     6   ar
     9     6    11    1
    10    11    12   am
    11    12    13    2
    12    12    15    1
    13    15    16   ar
    14    16    17   ar
    15    17    18   ar
    16    18    19   ar
    17     6     7   ar
    18     7     8   ar
    19     8     9   ar
    20     9    10   ar
    21    10     1   ar
    22     9     4   ar
    23    19    15   ar
    24    11    14    1
    25    18    20    1
@<TRIPOS>MOLECULE
*****
 23 25 0 0 0
SMALL
GASTEIGER

@<TRIPOS>ATOM
      1 C         -16.4421    1.9524  -12.7212 C.ar    1  UNL1        0.0348
      2 C         -16.9329    3.2235  -12.3588 C.ar    1  UNL1        0.0044
      3 C         -18.3057    3.4455  -12.2175 C.ar    1  UNL1        0.0192
      4 C         -19.2115    2.4054  -12.4356 C.ar    1  UNL1        0.0827
      5 N         -20.5472    2.6231  -12.2998 N.ar    1  UNL1       -0.2305
      6 C         -21.4666    1.6420  -12.5125 C.ar    1  UNL1        0.1344
      7 C         -21.0304    0.3498  -12.8536 C.ar    1  UNL1        0.0345
      8 C         -19.6655    0.0981  -13.0029 C.ar    1  UNL1        0.0044
      9 C         -18.7392    1.1277  -12.7975 C.ar    1  UNL1        0.0179
     10 C         -17.3613    0.9065  -12.9384 C.ar    1  UNL1        0.0043
     11 N         -22.8594    1.9421  -12.3314 N.am    1  UNL1       -0.2645
     12 C         -23.3862    2.7411  -11.2621 C.2     1  UNL1        0.2700
     13 O         -24.3105    3.5604  -11.5088 O.2     1  UNL1       -0.2681
     14 H         -23.5268    1.6125  -13.0646 H       1  UNL1        0.1566
     15 C         -22.9195    2.5872   -9.8719 C.ar    1  UNL1        0.1556
     16 C         -21.7605    3.1107   -9.3249 C.ar    1  UNL1        0.0454
     17 C         -21.7614    2.6571   -8.0238 C.ar    1  UNL1        0.0925
     18 N         -22.8582    1.9043   -7.8303 N.ar    1  UNL1       -0.2742
     19 N         -23.5654    1.8502   -8.9469 N.ar    1  UNL1       -0.1680
     20 H         -23.1236    1.4224   -6.9433 H       1  UNL1        0.1890
     21 C         -14.3147    1.7077  -14.2175 C.3     1  UNL1        0.0773
     22 C         -14.9828    1.7035  -12.8750 C.2     1  UNL1        0.1735
     23 O         -14.2747    1.4813  -11.8552 O.2     1  UNL1       -0.2913
@<TRIPOS>BOND
     1    21    22    1
     2    22    23    2
     3    22     1    1
     4     1     2   ar
     5     2     3   ar
     6     3     4   ar
     7     4     5   ar
     8     5     6   ar
     9     6    11    1
    10    11    12   am
    11    12    13    2
    12    12    15    1
    13    15    16   ar
    14    16    17   ar
    15    17    18   ar
    16    18    19   ar
    17     6     7   ar
    18     7     8   ar
    19     8     9   ar
    20     9    10   ar
    21    10     1   ar
    22     9     4   ar
    23    19    15   ar
    24    11    14    1
    25    18    20    1
@<TRIPOS>MOLECULE
*****
 23 25 0 0 0
SMALL
GASTEIGER

@<TRIPOS>ATOM
      1 C         -20.4354   -8.5619   -9.5391 C.ar    1  UNL1        0.0348
      2 C         -20.9689   -7.6525  -10.4752 C.ar    1  UNL1        0.0044
      3 C         -21.4362   -8.0961  -11.7157 C.ar    1  UNL1        0.0192
      4 C         -21.3790   -9.4521  -12.0438 C.ar    1  UNL1        0.0827
      5 N         -21.8322   -9.8823  -13.2519 N.ar    1  UNL1       -0.2305
      6 C         -21.7865  -11.1926  -13.6183 C.ar    1  UNL1        0.1344
      7 C         -21.2852  -12.1449  -12.7137 C.ar    1  UNL1        0.0345
      8 C         -20.8104  -11.7317  -11.4677 C.ar    1  UNL1        0.0044
      9 C         -20.8500  -10.3760  -11.1201 C.ar    1  UNL1        0.0179
     10 C         -20.3819   -9.9293   -9.8756 C.ar    1  UNL1        0.0043
     11 N         -22.3012  -11.5743  -14.9036 N.am    1  UNL1       -0.2645
     12 C         -21.8152  -11.0698  -16.1561 C.2     1  UNL1        0.2700
     13 O         -21.6927  -11.8614  -17.1281 O.2     1  UNL1       -0.2681
     14 H         -23.0332  -12.3193  -14.9321 H       1  UNL1        0.1566
     15 C         -21.5134   -9.6404  -16.3557 C.ar    1  UNL1        0.1556
     16 C         -22.4274   -8.6027  -16.4222 C.ar    1  UNL1        0.0454
     17 C         -21.6576   -7.4838  -16.6552 C.ar    1  UNL1        0.0925
     18 N         -20.3677   -7.8552  -16.7278 N.ar    1  UNL1       -0.2742
     19 N         -20.2689   -9.1627  -16.5533 N.ar    1  UNL1       -0.1680
     20 H         -19.5556   -7.2230  -16.9020 H       1  UNL1        0.1890
     21 C         -19.0386   -8.9538   -7.3666 C.3     1  UNL1        0.0773
     22 C         -19.9345   -8.1019   -8.2152 C.2     1  UNL1        0.1735
     23 O         -20.2649   -6.9646   -7.7814 O.2     1  UNL1       -0.2913
@<TRIPOS>BOND
     1    21    22    1
     2    22    23    2
     3    22     1    1
     4     1     2   ar
     5     2     3   ar
     6     3     4   ar
     7     4     5   ar
     8     5     6   ar
     9     6    11    1
    10    11    12   am
    11    12    13    2
    12    12    15    1
    13    15    16   ar
    14    16    17   ar
    15    17    18   ar
    16    18    19   ar
    17     6     7   ar
    18     7     8   ar
    19     8     9   ar
    20     9    10   ar
    21    10     1   ar
    22     9     4   ar
    23    19    15   ar
    24    11    14    1
    25    18    20    1
@<TRIPOS>MOLECULE
*****
 23 25 0 0 0
SMALL
GASTEIGER

@<TRIPOS>ATOM
      1 C         -26.4073   -6.8503  -13.1811 C.ar    1  UNL1        0.0348
      2 C         -27.7005   -7.4108  -13.2169 C.ar    1  UNL1        0.0044
      3 C         -28.7002   -6.8500  -14.0170 C.ar    1  UNL1        0.0192
      4 C         -28.4279   -5.7218  -14.7934 C.ar    1  UNL1        0.0827
      5 N         -29.4019   -5.1758  -15.5700 N.ar    1  UNL1       -0.2305
      6 C         -29.1847   -4.0708  -16.3347 C.ar    1  UNL1        0.1344
      7 C         -27.9067   -3.4853  -16.3538 C.ar    1  UNL1        0.0345
      8 C         -26.8884   -4.0226  -15.5644 C.ar    1  UNL1        0.0044
      9 C         -27.1405   -5.1485  -14.7713 C.ar    1  UNL1        0.0179
     10 C         -26.1384   -5.7127  -13.9682 C.ar    1  UNL1        0.0043
     11 N         -30.2569   -3.5622  -17.1437 N.am    1  UNL1       -0.2645
     12 C         -31.2094   -2.5815  -16.7073 C.2     1  UNL1        0.2700
     13 O         -31.5646   -1.6756  -17.5072 O.2     1  UNL1       -0.2681
     14 H         -30.3068   -3.8776  -18.1385 H       1  UNL1        0.1566
     15 C         -31.8303   -2.6392  -15.3712 C.ar    1  UNL1        0.1556
     16 C         -32.7952   -3.5356  -14.9446 C.ar    1  UNL1        0.0454
     17 C         -33.0687   -3.1527  -13.6495 C.ar    1  UNL1        0.0925
     18 N         -32.3088   -2.0862  -13.3455 N.ar    1  UNL1       -0.2742
     19 N         -31.5575   -1.7623  -14.3849 N.ar    1  UNL1       -0.1680
     20 H         -32.3044   -1.5748  -12.4356 H       1  UNL1        0.1890
     21 C         -24.0803   -6.6845  -12.0055 C.3     1  UNL1        0.0773
     22 C         -25.3345   -7.4381  -12.3332 C.2     1  UNL1        0.1735
     23 O         -25.4706   -8.6033  -11.8697 O.2     1  UNL1       -0.2913
@<TRIPOS>BOND
     1    21    22    1
     2    22    23    2
     3    22     1    1
     4     1     2   ar
     5     2     3   ar
     6     3     4   ar
     7     4     5   ar
     8     5     6   ar
     9     6    11    1
    10    11    12   am
    11    12    13    2
    12    12    15    1
    13    15    16   ar
    14    16    17   ar
    15    17    18   ar
    16    18    19   ar
    17     6     7   ar
    18     7     8   ar
    19     8     9   ar
    20     9    10   ar
    21    10     1   ar
    22     9     4   ar
    23    19    15   ar
    24    11    14    1
    25    18    20    1
@<TRIPOS>MOLECULE
*****
 23 25 0 0 0
SMALL
GASTEIGER

@<TRIPOS>ATOM
      1 C         -23.8652  -12.2457  -13.5709 C.ar    1  UNL1        0.0348
      2 C         -22.4863  -12.3062  -13.8592 C.ar    1  UNL1        0.0044
      3 C         -21.5552  -11.6710  -13.0326 C.ar    1  UNL1        0.0192
      4 C         -21.9825  -10.9648  -11.9063 C.ar    1  UNL1        0.0827
      5 N         -21.0757  -10.3454  -11.1039 N.ar    1  UNL1       -0.2305
      6 C         -21.4473   -9.6375  -10.0021 C.ar    1  UNL1        0.1344
      7 C         -22.8079   -9.5641   -9.6557 C.ar    1  UNL1        0.0345
      8 C         -23.7611  -10.1877  -10.4627 C.ar    1  UNL1        0.0044
      9 C         -23.3569  -10.8943  -11.6017 C.ar    1  UNL1        0.0179
     10 C         -24.2898  -11.5327  -12.4319 C.ar    1  UNL1        0.0043
     11 N         -20.4312   -9.0262   -9.1920 N.am    1  UNL1       -0.2645
     12 C         -20.5462   -7.7312   -8.5842 C.2     1  UNL1        0.2700
     13 O         -20.1156   -7.5652   -7.4123 O.2     1  UNL1       -0.2681
     14 H         -19.5783   -9.5894   -8.9753 H       1  UNL1        0.1566
     15 C         -21.0979   -6.5747   -9.3137 C.ar    1  UNL1        0.1556
     16 C         -21.1486   -6.4097  -10.6873 C.ar    1  UNL1        0.0454
     17 C         -21.7122   -5.1644  -10.8614 C.ar    1  UNL1        0.0925
     18 N         -21.9664   -4.6333   -9.6529 N.ar    1  UNL1       -0.2742
     19 N         -21.5923   -5.4781   -8.7062 N.ar    1  UNL1       -0.1680
     20 H         -22.3876   -3.6959   -9.4704 H       1  UNL1        0.1890
     21 C         -25.9022  -13.8500  -13.8897 C.3     1  UNL1        0.0773
     22 C         -24.8664  -12.9177  -14.4434 C.2     1  UNL1        0.1735
     23 O         -24.8554  -12.7064  -15.6869 O.2     1  UNL1       -0.2913
@<TRIPOS>BOND
     1    21    22    1
     2    22    23    2
     3    22     1    1
     4     1     2   ar
     5     2     3   ar
     6     3     4   ar
     7     4     5   ar
     8     5     6   ar
     9     6    11    1
    10    11    12   am
    11    12    13    2
    12    12    15    1
    13    15    16   ar
    14    16    17   ar
    15    17    18   ar
    16    18    19   ar
    17     6     7   ar
    18     7     8   ar
    19     8     9   ar
    20     9    10   ar
    21    10     1   ar
    22     9     4   ar
    23    19    15   ar
    24    11    14    1
    25    18    20    1
@<TRIPOS>MOLECULE
*****
 23 25 0 0 0
SMALL
GASTEIGER

@<TRIPOS>ATOM
      1 C         -18.6342  -10.8667   -9.5561 C.ar    1  UNL1        0.0348
      2 C         -19.1400   -9.5572   -9.6875 C.ar    1  UNL1        0.0044
      3 C         -20.1617   -9.2741  -10.5984 C.ar    1  UNL1        0.0192
      4 C         -20.6954  -10.2904  -11.3934 C.ar    1  UNL1        0.0827
      5 N         -21.6882  -10.0134  -12.2809 N.ar    1  UNL1       -0.2305
      6 C         -22.2308  -10.9700  -13.0831 C.ar    1  UNL1        0.1344
      7 C         -21.7793  -12.2972  -12.9768 C.ar    1  UNL1        0.0345
      8 C         -20.7593  -12.6101  -12.0766 C.ar    1  UNL1        0.0044
      9 C         -20.2031  -11.6058  -11.2751 C.ar    1  UNL1        0.0179
     10 C         -19.1782  -11.8883  -10.3602 C.ar    1  UNL1        0.0043
     11 N         -23.2894  -10.6057  -13.9827 N.am    1  UNL1       -0.2645
     12 C         -23.1084  -10.3207  -15.3775 C.2     1  UNL1        0.2700
     13 O         -23.9586  -10.7459  -16.2040 O.2     1  UNL1       -0.2681
     14 H         -24.2663  -10.6139  -13.6123 H       1  UNL1        0.1566
     15 C         -21.9897   -9.4929  -15.8646 C.ar    1  UNL1        0.1556
     16 C         -21.9565   -8.1113  -15.9464 C.ar    1  UNL1        0.0454
     17 C         -20.7236   -7.8309  -16.4943 C.ar    1  UNL1        0.0925
     18 N         -20.0809   -8.9889  -16.7252 N.ar    1  UNL1       -0.2742
     19 N         -20.8422  -10.0043  -16.3523 N.ar    1  UNL1       -0.1680
     20 H         -19.1290   -9.0904  -17.1413 H       1  UNL1        0.1890
     21 C         -16.4607  -12.1642   -8.9104 C.3     1  UNL1        0.0773
     22 C         -17.5465  -11.1807   -8.5901 C.2     1  UNL1        0.1735
     23 O         -17.5243  -10.6107   -7.4651 O.2     1  UNL1       -0.2913
@<TRIPOS>BOND
     1    21    22    1
     2    22    23    2
     3    22     1    1
     4     1     2   ar
     5     2     3   ar
     6     3     4   ar
     7     4     5   ar
     8     5     6   ar
     9     6    11    1
    10    11    12   am
    11    12    13    2
    12    12    15    1
    13    15    16   ar
    14    16    17   ar
    15    17    18   ar
    16    18    19   ar
    17     6     7   ar
    18     7     8   ar
    19     8     9   ar
    20     9    10   ar
    21    10     1   ar
    22     9     4   ar
    23    19    15   ar
    24    11    14    1
    25    18    20    1
@<TRIPOS>MOLECULE
*****
 23 25 0 0 0
SMALL
GASTEIGER

@<TRIPOS>ATOM
      1 C         -24.2442  -13.6304  -14.9279 C.ar    1  UNL1        0.0348
      2 C         -25.4084  -12.8639  -14.7158 C.ar    1  UNL1        0.0044
      3 C         -25.3681  -11.7046  -13.9360 C.ar    1  UNL1        0.0192
      4 C         -24.1680  -11.2907  -13.3544 C.ar    1  UNL1        0.0827
      5 N         -24.1304  -10.1635  -12.5942 N.ar    1  UNL1       -0.2305
      6 C         -22.9857   -9.7282  -11.9997 C.ar    1  UNL1        0.1344
      7 C         -21.7910  -10.4425  -12.1972 C.ar    1  UNL1        0.0345
      8 C         -21.8004  -11.6048  -12.9704 C.ar    1  UNL1        0.0044
      9 C         -22.9937  -12.0437  -13.5564 C.ar    1  UNL1        0.0179
     10 C         -23.0358  -13.2065  -14.3396 C.ar    1  UNL1        0.0043
     11 N         -23.0194   -8.5184  -11.2266 N.am    1  UNL1       -0.2645
     12 C         -23.3568   -8.4535   -9.8333 C.2     1  UNL1        0.2700
     13 O         -22.7006   -7.6861   -9.0802 O.2     1  UNL1       -0.2681
     14 H         -22.7129   -7.6351  -11.6929 H       1  UNL1        0.1566
     15 C         -24.4883   -9.2125   -9.2697 C.ar    1  UNL1        0.1556
     16 C         -25.8307   -9.0324   -9.5563 C.ar    1  UNL1        0.0454
     17 C         -26.4771   -9.9484   -8.7551 C.ar    1  UNL1        0.0925
     18 N         -25.5584  -10.6173   -8.0369 N.ar    1  UNL1       -0.2742
     19 N         -24.3484  -10.1749   -8.3368 N.ar    1  UNL1       -0.1680
     20 H         -25.7526  -11.3689   -7.3392 H       1  UNL1        0.1890
     21 C         -23.0441  -15.6895  -15.9979 C.3     1  UNL1        0.0773
     22 C         -24.2743  -14.8668  -15.7560 C.2     1  UNL1        0.1735
     23 O         -25.3591  -15.2459  -16.2760 O.2     1  UNL1       -0.2913
@<TRIPOS>BOND
     1    21    22    1
     2    22    23    2
     3    22     1    1
     4     1     2   ar
     5     2     3   ar
     6     3     4   ar
     7     4     5   ar
     8     5     6   ar
     9     6    11    1
    10    11    12   am
    11    12    13    2
    12    12    15    1
    13    15    16   ar
    14    16    17   ar
    15    17    18   ar
    16    18    19   ar
    17     6     7   ar
    18     7     8   ar
    19     8     9   ar
    20     9    10   ar
    21    10     1   ar
    22     9     4   ar
    23    19    15   ar
    24    11    14    1
    25    18    20    1
@<TRIPOS>MOLECULE
*****
 23 25 0 0 0
SMALL
GASTEIGER

@<TRIPOS>ATOM
      1 C         -26.1227   -7.5707  -11.4434 C.ar    1  UNL1        0.0348
      2 C         -25.0525   -6.6631  -11.5809 C.ar    1  UNL1        0.0044
      3 C         -25.0727   -5.6803  -12.5746 C.ar    1  UNL1        0.0192
      4 C         -26.1584   -5.5863  -13.4476 C.ar    1  UNL1        0.0827
      5 N         -26.1760   -4.6308  -14.4154 N.ar    1  UNL1       -0.2305
      6 C         -27.2082   -4.5088  -15.2946 C.ar    1  UNL1        0.1344
      7 C         -28.3115   -5.3735  -15.1876 C.ar    1  UNL1        0.0345
      8 C         -28.3194   -6.3657  -14.2057 C.ar    1  UNL1        0.0044
      9 C         -27.2378   -6.4843  -13.3245 C.ar    1  UNL1        0.0179
     10 C         -27.2162   -7.4696  -12.3265 C.ar    1  UNL1        0.0043
     11 N         -27.1650   -3.4630  -16.2780 N.am    1  UNL1       -0.2645
     12 C         -27.0555   -3.6814  -17.6922 C.2     1  UNL1        0.2700
     13 O         -27.7352   -2.9668  -18.4758 O.2     1  UNL1       -0.2681
     14 H         -27.2889   -2.4797  -15.9474 H       1  UNL1        0.1566
     15 C         -26.1250   -4.6760  -18.2570 C.ar    1  UNL1        0.1556
     16 C         -25.1320   -5.3604  -17.5772 C.ar    1  UNL1        0.0454
     17 C         -24.5248   -6.1314  -18.5445 C.ar    1  UNL1        0.0925
     18 N         -25.1287   -5.8994  -19.7229 N.ar    1  UNL1       -0.2742
     19 N         -26.0976   -5.0134  -19.5614 N.ar    1  UNL1       -0.1680
     20 H         -24.8797   -6.3371  -20.6371 H       1  UNL1        0.1890
     21 C         -24.8973   -9.4544  -10.1112 C.3     1  UNL1        0.0773
     22 C         -26.1129   -8.6216  -10.3895 C.2     1  UNL1        0.1735
     23 O         -27.1501   -8.8290   -9.7024 O.2     1  UNL1       -0.2913
@<TRIPOS>BOND
     1    21    22    1
     2    22    23    2
     3    22     1    1
     4     1     2   ar
     5     2     3   ar
     6     3     4   ar
     7     4     5   ar
     8     5     6   ar
     9     6    11    1
    10    11    12   am
    11    12    13    2
    12    12    15    1
    13    15    16   ar
    14    16    17   ar
    15    17    18   ar
    16    18    19   ar
    17     6     7   ar
    18     7     8   ar
    19     8     9   ar
    20     9    10   ar
    21    10     1   ar
    22     9     4   ar
    23    19    15   ar
    24    11    14    1
    25    18    20    1
