@<TRIPOS>MOLECULE
*****
 49 55 0 0 0
SMALL
GASTEIGER

@<TRIPOS>ATOM
      1 C          59.8187   84.9563   13.6543 C.ar    1  UNL1        0.0481
      2 C          58.5757   85.3033   13.1006 C.ar    1  UNL1        0.0176
      3 C          57.8967   84.4078   12.2713 C.ar    1  UNL1        0.0382
      4 C          58.4437   83.1546   11.9775 C.ar    1  UNL1        0.1388
      5 C          59.6818   82.7968   12.5422 C.ar    1  UNL1        0.0382
      6 C          60.3609   83.6910   13.3753 C.ar    1  UNL1        0.0176
      7 N          62.3597   87.8846   14.9065 N.pl3   1  UNL1       -0.3041
      8 C          62.8681   86.5051   14.8279 C.3     1  UNL1        0.1122
      9 C          61.7744   85.4862   15.1678 C.3     1  UNL1        0.1122
     10 N          60.5145   85.8753   14.5180 N.pl3   1  UNL1       -0.3041
     11 C          59.9985   87.2434   14.6897 C.3     1  UNL1        0.1122
     12 C          61.0070   88.1327   15.4259 C.3     1  UNL1        0.1122
     13 C          64.7632   91.0682   13.4010 C.ar    1  UNL1        0.0699
     14 C          65.1658   90.3446   14.5361 C.ar    1  UNL1        0.0190
     15 C          64.3780   89.3011   15.0298 C.ar    1  UNL1        0.0160
     16 C          63.1657   88.9683   14.4057 C.ar    1  UNL1        0.0480
     17 C          62.7605   89.6919   13.2726 C.ar    1  UNL1        0.0160
     18 C          63.5491   90.7337   12.7770 C.ar    1  UNL1        0.0190
     19 N          66.5256   93.6764   11.5926 N.ar    1  UNL1       -0.2024
     20 N          67.0960   93.7834   12.7833 N.ar    1  UNL1       -0.1442
     21 C          66.5185   92.8493   13.5698 C.ar    1  UNL1        0.2073
     22 N          65.5788   92.1448   12.8994 N.ar    1  UNL1       -0.2398
     23 C          65.6158   92.6848   11.6651 C.ar    1  UNL1        0.3522
     24 O          64.9173   92.2900   10.6929 O.2     1  UNL1       -0.2444
     25 C          66.8877   94.5061   10.4373 C.3     1  UNL1        0.1099
     26 C          65.6294   94.8909    9.6472 C.3     1  UNL1        0.0265
     27 C          68.0745   92.2995    9.9266 C.3     1  UNL1        0.0021
     28 C          67.9326   93.7783    9.5660 C.3     1  UNL1        0.0245
     29 O          57.7313   82.3027   11.1224 O.3     1  UNL1       -0.4727
     30 C          58.2058   81.8366    9.8605 C.3     1  UNL1        0.2374
     31 C          58.0313   82.9214    8.7883 C.3     1  UNL1        0.1909
     32 C          57.4626   84.2031    9.3284 C.3     1  UNL1        0.1783
     33 O          58.5309   85.0851    9.4576 O.3     1  UNL1       -0.3266
     34 C          59.6140   84.5298    8.7384 C.3     1  UNL1        0.2315
     35 O          59.2681   83.2501    8.2389 O.3     1  UNL1       -0.3254
     36 C          60.8565   84.3946    9.6302 C.ar    1  UNL1        0.0410
     37 C          61.5518   83.1651    9.6191 C.ar    1  UNL1        0.0022
     38 C          62.6867   82.9691   10.4061 C.ar    1  UNL1        0.0113
     39 C          63.1716   84.0023   11.2039 C.ar    1  UNL1        0.0585
     40 CL         64.5930   83.7500   12.1999 Cl      1  UNL1       -0.0822
     41 C          62.5294   85.2400   11.2038 C.ar    1  UNL1        0.0226
     42 C          61.3830   85.4527   10.4267 C.ar    1  UNL1        0.0591
     43 CL         60.6843   87.0690   10.5020 Cl      1  UNL1       -0.0824
     44 C          59.9294   85.4300    7.5270 C.3     1  UNL1        0.1897
     45 N          61.0171   84.8915    6.7136 N.ar    1  UNL1       -0.2246
     46 C          62.3348   85.0450    6.9230 C.ar    1  UNL1        0.1974
     47 N          63.0531   84.4238    5.9681 N.ar    1  UNL1       -0.2007
     48 C          62.0921   83.8922    5.1799 C.ar    1  UNL1        0.2210
     49 N          60.8496   84.1707    5.6207 N.ar    1  UNL1       -0.1450
@<TRIPOS>BOND
     1    27    28    1
     2    28    25    1
     3    25    26    1
     4    25    19    1
     5    19    20   ar
     6    20    21   ar
     7    21    22   ar
     8    22    13    1
     9    13    14   ar
    10    14    15   ar
    11    15    16   ar
    12    16     7    1
    13     7     8    1
    14     8     9    1
    15     9    10    1
    16    10     1    1
    17     1     2   ar
    18     2     3   ar
    19     3     4   ar
    20     4    29    1
    21    29    30    1
    22    30    31    1
    23    31    32    1
    24    32    33    1
    25    33    34    1
    26    34    44    1
    27    44    45    1
    28    45    46   ar
    29    46    47   ar
    30    47    48   ar
    31    48    49   ar
    32    34    36    1
    33    36    37   ar
    34    37    38   ar
    35    38    39   ar
    36    39    40    1
    37    39    41   ar
    38    41    42   ar
    39    42    43    1
    40    34    35    1
    41     4     5   ar
    42     5     6   ar
    43    10    11    1
    44    11    12    1
    45    16    17   ar
    46    17    18   ar
    47    22    23   ar
    48    23    24    2
    49    23    19   ar
    50    18    13   ar
    51    12     7    1
    52     6     1   ar
    53    35    31    1
    54    49    45   ar
    55    42    36   ar
@<TRIPOS>MOLECULE
*****
 49 55 0 0 0
SMALL
GASTEIGER

@<TRIPOS>ATOM
      1 C          58.9259   85.6908   12.6079 C.ar    1  UNL1        0.0481
      2 C          58.6925   86.0843   11.2803 C.ar    1  UNL1        0.0176
      3 C          58.0743   85.2110   10.3825 C.ar    1  UNL1        0.0382
      4 C          57.6808   83.9322   10.7897 C.ar    1  UNL1        0.1388
      5 C          57.8990   83.5392   12.1231 C.ar    1  UNL1        0.0382
      6 C          58.5147   84.4137   13.0235 C.ar    1  UNL1        0.0176
      7 N          61.4993   88.4477   14.1495 N.pl3   1  UNL1       -0.3041
      8 C          61.8722   87.0254   14.2245 C.3     1  UNL1        0.1122
      9 C          60.6398   86.1338   14.4142 C.3     1  UNL1        0.1122
     10 N          59.5540   86.5947   13.5369 N.pl3   1  UNL1       -0.3041
     11 C          59.1567   88.0122   13.5528 C.3     1  UNL1        0.1122
     12 C          60.1101   88.8502   14.4125 C.3     1  UNL1        0.1122
     13 C          64.4343   91.2976   12.9484 C.ar    1  UNL1        0.0699
     14 C          64.4563   90.7522   14.2430 C.ar    1  UNL1        0.0190
     15 C          63.4942   89.8181   14.6370 C.ar    1  UNL1        0.0160
     16 C          62.4835   89.4199   13.7482 C.ar    1  UNL1        0.0480
     17 C          62.4584   89.9657   12.4548 C.ar    1  UNL1        0.0160
     18 C          63.4217   90.8978   12.0595 C.ar    1  UNL1        0.0190
     19 N          66.6707   93.6878   11.3786 N.ar    1  UNL1       -0.2024
     20 N          67.1664   93.6671   12.6068 N.ar    1  UNL1       -0.1442
     21 C          66.4088   92.7982   13.3108 C.ar    1  UNL1        0.2073
     22 N          65.4275   92.2624   12.5501 N.ar    1  UNL1       -0.2398
     23 C          65.6265   92.8365   11.3471 C.ar    1  UNL1        0.3522
     24 O          64.9482   92.5831   10.3152 O.2     1  UNL1       -0.2444
     25 C          67.2264   94.4983   10.2885 C.3     1  UNL1        0.1099
     26 C          66.1182   94.8870    9.3003 C.3     1  UNL1        0.0265
     27 C          68.2400   92.2283    9.6898 C.3     1  UNL1        0.0021
     28 C          68.3891   93.7475    9.6064 C.3     1  UNL1        0.0245
     29 O          57.0844   83.0878    9.8434 O.3     1  UNL1       -0.4727
     30 C          57.7691   82.4862    8.7461 C.3     1  UNL1        0.2374
     31 C          58.6971   81.3681    9.2416 C.3     1  UNL1        0.1909
     32 C          59.6002   80.8279    8.1690 C.3     1  UNL1        0.1783
     33 O          60.8517   81.3967    8.3838 O.3     1  UNL1       -0.3266
     34 C          60.8289   81.9687    9.6765 C.3     1  UNL1        0.2315
     35 O          59.5351   81.8542   10.2420 O.3     1  UNL1       -0.3254
     36 C          61.2199   83.4527    9.6296 C.ar    1  UNL1        0.0410
     37 C          61.7301   84.0430   10.8071 C.ar    1  UNL1        0.0022
     38 C          62.1027   85.3868   10.8393 C.ar    1  UNL1        0.0113
     39 C          62.0004   86.1688    9.6916 C.ar    1  UNL1        0.0585
     40 CL         62.4603   87.8607    9.7375 Cl      1  UNL1       -0.0822
     41 C          61.5385   85.6024    8.5041 C.ar    1  UNL1        0.0226
     42 C          61.1512   84.2567    8.4548 C.ar    1  UNL1        0.0591
     43 CL         60.6085   83.6631    6.8866 Cl      1  UNL1       -0.0824
     44 C          61.8028   81.1950   10.5876 C.3     1  UNL1        0.1897
     45 N          61.2263   80.9286   11.9035 N.ar    1  UNL1       -0.2246
     46 C          61.5593   81.5149   13.0650 C.ar    1  UNL1        0.1974
     47 N          60.8337   81.0175   14.0847 N.ar    1  UNL1       -0.2007
     48 C          60.0511   80.1043   13.4674 C.ar    1  UNL1        0.2210
     49 N          60.2810   80.0387   12.1413 N.ar    1  UNL1       -0.1450
@<TRIPOS>BOND
     1    27    28    1
     2    28    25    1
     3    25    26    1
     4    25    19    1
     5    19    20   ar
     6    20    21   ar
     7    21    22   ar
     8    22    13    1
     9    13    14   ar
    10    14    15   ar
    11    15    16   ar
    12    16     7    1
    13     7     8    1
    14     8     9    1
    15     9    10    1
    16    10     1    1
    17     1     2   ar
    18     2     3   ar
    19     3     4   ar
    20     4    29    1
    21    29    30    1
    22    30    31    1
    23    31    32    1
    24    32    33    1
    25    33    34    1
    26    34    44    1
    27    44    45    1
    28    45    46   ar
    29    46    47   ar
    30    47    48   ar
    31    48    49   ar
    32    34    36    1
    33    36    37   ar
    34    37    38   ar
    35    38    39   ar
    36    39    40    1
    37    39    41   ar
    38    41    42   ar
    39    42    43    1
    40    34    35    1
    41     4     5   ar
    42     5     6   ar
    43    10    11    1
    44    11    12    1
    45    16    17   ar
    46    17    18   ar
    47    22    23   ar
    48    23    24    2
    49    23    19   ar
    50    18    13   ar
    51    12     7    1
    52     6     1   ar
    53    35    31    1
    54    49    45   ar
    55    42    36   ar
@<TRIPOS>MOLECULE
*****
 49 55 0 0 0
SMALL
GASTEIGER

@<TRIPOS>ATOM
      1 C          59.8395   84.7488   13.7148 C.ar    1  UNL1        0.0481
      2 C          60.3660   83.4667   13.4889 C.ar    1  UNL1        0.0176
      3 C          59.7005   82.5664   12.6537 C.ar    1  UNL1        0.0382
      4 C          58.5001   82.9256   12.0323 C.ar    1  UNL1        0.1388
      5 C          57.9767   84.2145   12.2439 C.ar    1  UNL1        0.0382
      6 C          58.6438   85.1177   13.0769 C.ar    1  UNL1        0.0176
      7 N          62.3849   87.6859   14.9370 N.pl3   1  UNL1       -0.3041
      8 C          62.8846   86.3017   14.8941 C.3     1  UNL1        0.1122
      9 C          61.7796   85.2976   15.2415 C.3     1  UNL1        0.1122
     10 N          60.5307   85.6812   14.5676 N.pl3   1  UNL1       -0.3041
     11 C          60.0222   87.0562   14.7037 C.3     1  UNL1        0.1122
     12 C          61.0276   87.9541   15.4338 C.3     1  UNL1        0.1122
     13 C          64.7887   90.8705   13.4339 C.ar    1  UNL1        0.0699
     14 C          63.7316   90.3508   12.6681 C.ar    1  UNL1        0.0190
     15 C          62.9437   89.3068   13.1605 C.ar    1  UNL1        0.0160
     16 C          63.2048   88.7532   14.4236 C.ar    1  UNL1        0.0480
     17 C          64.2623   89.2697   15.1895 C.ar    1  UNL1        0.0160
     18 C          65.0488   90.3153   14.6986 C.ar    1  UNL1        0.0190
     19 N          66.5626   93.4421   11.5848 N.ar    1  UNL1       -0.2024
     20 N          67.0806   93.6147   12.7917 N.ar    1  UNL1       -0.1442
     21 C          66.4932   92.7010   13.5947 C.ar    1  UNL1        0.2073
     22 N          65.5988   91.9447   12.9186 N.ar    1  UNL1       -0.2398
     23 C          65.6741   92.4318   11.6642 C.ar    1  UNL1        0.3522
     24 O          65.0258   91.9780   10.6830 O.2     1  UNL1       -0.2444
     25 C          66.9525   94.2301   10.4096 C.3     1  UNL1        0.1099
     26 C          65.7172   94.8890    9.7808 C.3     1  UNL1        0.0265
     27 C          68.5332   92.2451   10.0945 C.3     1  UNL1        0.0021
     28 C          67.7244   93.3459    9.4081 C.3     1  UNL1        0.0245
     29 O          57.8620   81.9771   11.2216 O.3     1  UNL1       -0.4727
     30 C          58.4324   81.3937   10.0515 C.3     1  UNL1        0.2374
     31 C          58.3221   82.3591    8.8629 C.3     1  UNL1        0.1909
     32 C          57.7558   83.6994    9.2381 C.3     1  UNL1        0.1783
     33 O          58.8342   84.5750    9.3176 O.3     1  UNL1       -0.3266
     34 C          59.9352   83.9302    8.7086 C.3     1  UNL1        0.2315
     35 O          59.5861   82.6091    8.3347 O.3     1  UNL1       -0.3254
     36 C          61.1375   83.8741    9.6618 C.ar    1  UNL1        0.0410
     37 C          61.9671   82.7317    9.6186 C.ar    1  UNL1        0.0022
     38 C          63.0749   82.6105   10.4575 C.ar    1  UNL1        0.0113
     39 C          63.3982   83.6364   11.3420 C.ar    1  UNL1        0.0585
     40 CL         64.7860   83.4771   12.4026 Cl      1  UNL1       -0.0822
     41 C          62.6209   84.7935   11.3775 C.ar    1  UNL1        0.0226
     42 C          61.4993   84.9294   10.5489 C.ar    1  UNL1        0.0591
     43 CL         60.6193   86.4509   10.6786 Cl      1  UNL1       -0.0824
     44 C          60.3165   84.6901    7.4224 C.3     1  UNL1        0.1897
     45 N          59.9733   86.1080    7.5025 N.ar    1  UNL1       -0.2246
     46 C          60.7916   87.1197    7.8350 C.ar    1  UNL1        0.1974
     47 N          60.1379   88.2970    7.8198 N.ar    1  UNL1       -0.2007
     48 C          58.8872   87.9314    7.4602 C.ar    1  UNL1        0.2210
     49 N          58.7728   86.6030    7.2660 N.ar    1  UNL1       -0.1450
@<TRIPOS>BOND
     1    27    28    1
     2    28    25    1
     3    25    26    1
     4    25    19    1
     5    19    20   ar
     6    20    21   ar
     7    21    22   ar
     8    22    13    1
     9    13    14   ar
    10    14    15   ar
    11    15    16   ar
    12    16     7    1
    13     7     8    1
    14     8     9    1
    15     9    10    1
    16    10     1    1
    17     1     2   ar
    18     2     3   ar
    19     3     4   ar
    20     4    29    1
    21    29    30    1
    22    30    31    1
    23    31    32    1
    24    32    33    1
    25    33    34    1
    26    34    44    1
    27    44    45    1
    28    45    46   ar
    29    46    47   ar
    30    47    48   ar
    31    48    49   ar
    32    34    36    1
    33    36    37   ar
    34    37    38   ar
    35    38    39   ar
    36    39    40    1
    37    39    41   ar
    38    41    42   ar
    39    42    43    1
    40    34    35    1
    41     4     5   ar
    42     5     6   ar
    43    10    11    1
    44    11    12    1
    45    16    17   ar
    46    17    18   ar
    47    22    23   ar
    48    23    24    2
    49    23    19   ar
    50    18    13   ar
    51    12     7    1
    52     6     1   ar
    53    35    31    1
    54    49    45   ar
    55    42    36   ar
@<TRIPOS>MOLECULE
*****
 49 55 0 0 0
SMALL
GASTEIGER

@<TRIPOS>ATOM
      1 C          60.0101   84.3231    8.6336 C.ar    1  UNL1        0.0481
      2 C          60.7996   83.1701    8.4951 C.ar    1  UNL1        0.0176
      3 C          60.2335   81.9029    8.6517 C.ar    1  UNL1        0.0382
      4 C          58.8746   81.7621    8.9508 C.ar    1  UNL1        0.1388
      5 C          58.0765   82.9142    9.0756 C.ar    1  UNL1        0.0382
      6 C          58.6413   84.1832    8.9157 C.ar    1  UNL1        0.0176
      7 N          61.6565   87.9458    9.5079 N.pl3   1  UNL1       -0.3041
      8 C          60.1890   87.8400    9.4549 C.3     1  UNL1        0.1122
      9 C          59.7397   86.8264    8.3963 C.3     1  UNL1        0.1122
     10 N          60.5911   85.6299    8.4620 N.pl3   1  UNL1       -0.3041
     11 C          62.0558   85.7753    8.4296 C.3     1  UNL1        0.1122
     12 C          62.4728   87.2486    8.5036 C.3     1  UNL1        0.1122
     13 C          63.4616   90.1019   12.7130 C.ar    1  UNL1        0.0699
     14 C          63.1642   90.7434   11.4988 C.ar    1  UNL1        0.0190
     15 C          62.5727   90.0368   10.4480 C.ar    1  UNL1        0.0160
     16 C          62.2779   88.6715   10.5860 C.ar    1  UNL1        0.0480
     17 C          62.5766   88.0280   11.7977 C.ar    1  UNL1        0.0160
     18 C          63.1657   88.7347   12.8496 C.ar    1  UNL1        0.0190
     19 N          65.4365   92.1108   15.0027 N.ar    1  UNL1       -0.2024
     20 N          64.4848   91.6836   15.8189 N.ar    1  UNL1       -0.1442
     21 C          63.6638   90.9086   15.0773 C.ar    1  UNL1        0.2073
     22 N          64.0743   90.8358   13.7908 N.ar    1  UNL1       -0.2398
     23 C          65.1886   91.5938   13.7830 C.ar    1  UNL1        0.3522
     24 O          65.9257   91.7675   12.7753 O.2     1  UNL1       -0.2444
     25 C          66.5478   92.9712   15.4254 C.3     1  UNL1        0.1099
     26 C          66.8943   93.9719   14.3144 C.3     1  UNL1        0.0265
     27 C          69.0493   92.5259   15.1381 C.3     1  UNL1        0.0021
     28 C          67.7583   92.1104   15.8434 C.3     1  UNL1        0.0245
     29 O          58.3619   80.4686    9.1190 O.3     1  UNL1       -0.4727
     30 C          57.5800   80.0437   10.2339 C.3     1  UNL1        0.2374
     31 C          58.4751   79.4006   11.3024 C.3     1  UNL1        0.1909
     32 C          59.9262   79.3598   10.9144 C.3     1  UNL1        0.1783
     33 O          60.5488   80.3938   11.6066 O.3     1  UNL1       -0.3266
     34 C          59.6450   80.8254   12.6045 C.3     1  UNL1        0.2315
     35 O          58.4124   80.1381   12.4820 O.3     1  UNL1       -0.3254
     36 C          59.3841   82.3345   12.4965 C.ar    1  UNL1        0.0410
     37 C          58.1110   82.8173   12.8725 C.ar    1  UNL1        0.0022
     38 C          57.8017   84.1754   12.7975 C.ar    1  UNL1        0.0113
     39 C          58.7620   85.0890   12.3706 C.ar    1  UNL1        0.0585
     40 CL         58.3673   86.7948   12.2678 Cl      1  UNL1       -0.0822
     41 C          60.0400   84.6461   12.0320 C.ar    1  UNL1        0.0226
     42 C          60.3664   83.2848   12.0924 C.ar    1  UNL1        0.0591
     43 CL         62.0223   82.8646   11.6595 Cl      1  UNL1       -0.0824
     44 C          60.2271   80.4885   13.9919 C.3     1  UNL1        0.1897
     45 N          61.6231   80.9020   14.1147 N.ar    1  UNL1       -0.2246
     46 C          62.6967   80.2865   13.5930 C.ar    1  UNL1        0.1974
     47 N          63.8319   80.9355   13.9153 N.ar    1  UNL1       -0.2007
     48 C          63.3758   81.9701   14.6564 C.ar    1  UNL1        0.2210
     49 N          62.0348   81.9605   14.7870 N.ar    1  UNL1       -0.1450
@<TRIPOS>BOND
     1    27    28    1
     2    28    25    1
     3    25    26    1
     4    25    19    1
     5    19    20   ar
     6    20    21   ar
     7    21    22   ar
     8    22    13    1
     9    13    14   ar
    10    14    15   ar
    11    15    16   ar
    12    16     7    1
    13     7     8    1
    14     8     9    1
    15     9    10    1
    16    10     1    1
    17     1     2   ar
    18     2     3   ar
    19     3     4   ar
    20     4    29    1
    21    29    30    1
    22    30    31    1
    23    31    32    1
    24    32    33    1
    25    33    34    1
    26    34    44    1
    27    44    45    1
    28    45    46   ar
    29    46    47   ar
    30    47    48   ar
    31    48    49   ar
    32    34    36    1
    33    36    37   ar
    34    37    38   ar
    35    38    39   ar
    36    39    40    1
    37    39    41   ar
    38    41    42   ar
    39    42    43    1
    40    34    35    1
    41     4     5   ar
    42     5     6   ar
    43    10    11    1
    44    11    12    1
    45    16    17   ar
    46    17    18   ar
    47    22    23   ar
    48    23    24    2
    49    23    19   ar
    50    18    13   ar
    51    12     7    1
    52     6     1   ar
    53    35    31    1
    54    49    45   ar
    55    42    36   ar
@<TRIPOS>MOLECULE
*****
 49 55 0 0 0
SMALL
GASTEIGER

@<TRIPOS>ATOM
      1 C          58.3480   85.3260   11.7131 C.ar    1  UNL1        0.0481
      2 C          57.8311   84.0221   11.7824 C.ar    1  UNL1        0.0176
      3 C          57.6734   83.2617   10.6215 C.ar    1  UNL1        0.0382
      4 C          58.0246   83.7864    9.3736 C.ar    1  UNL1        0.1388
      5 C          58.5570   85.0869    9.3011 C.ar    1  UNL1        0.0382
      6 C          58.7185   85.8477   10.4629 C.ar    1  UNL1        0.0176
      7 N          60.0576   87.7226   14.5296 N.pl3   1  UNL1       -0.3041
      8 C          60.2707   86.2691   14.6267 C.3     1  UNL1        0.1122
      9 C          59.0435   85.4906   14.1391 C.3     1  UNL1        0.1122
     10 N          58.5206   86.1067   12.9112 N.pl3   1  UNL1       -0.3041
     11 C          58.2433   87.5524   12.8826 C.3     1  UNL1        0.1122
     12 C          58.7316   88.2404   14.1625 C.3     1  UNL1        0.1122
     13 C          63.3711   90.3451   15.0972 C.ar    1  UNL1        0.0699
     14 C          62.8425   89.6182   16.1771 C.ar    1  UNL1        0.0190
     15 C          61.7563   88.7586   15.9913 C.ar    1  UNL1        0.0160
     16 C          61.1689   88.6181   14.7243 C.ar    1  UNL1        0.0480
     17 C          61.6942   89.3456   13.6444 C.ar    1  UNL1        0.0160
     18 C          62.7820   90.2033   13.8291 C.ar    1  UNL1        0.0190
     19 N          66.3544   92.4122   15.0190 N.ar    1  UNL1       -0.2024
     20 N          65.9197   92.6656   16.2444 N.ar    1  UNL1       -0.1442
     21 C          64.7894   91.9439   16.4065 C.ar    1  UNL1        0.2073
     22 N          64.4891   91.2318   15.2967 N.ar    1  UNL1       -0.2398
     23 C          65.4927   91.5441   14.4532 C.ar    1  UNL1        0.3522
     24 O          65.6298   91.0593   13.2977 O.2     1  UNL1       -0.2444
     25 C          67.5791   92.9895   14.4526 C.3     1  UNL1        0.1099
     26 C          68.2676   91.9716   13.5330 C.3     1  UNL1        0.0265
     27 C          69.2051   92.3424   16.3169 C.3     1  UNL1        0.0021
     28 C          68.5055   93.4859   15.5823 C.3     1  UNL1        0.0245
     29 O          57.8258   82.9893    8.2380 O.3     1  UNL1       -0.4727
     30 C          58.2317   81.6268    8.1212 C.3     1  UNL1        0.2374
     31 C          59.7472   81.5366    7.8936 C.3     1  UNL1        0.1909
     32 C          60.4756   82.8043    8.2406 C.3     1  UNL1        0.1783
     33 O          61.0663   82.5924    9.4824 O.3     1  UNL1       -0.3266
     34 C          61.0083   81.2027    9.7355 C.3     1  UNL1        0.2315
     35 O          60.2917   80.5449    8.7057 O.3     1  UNL1       -0.3254
     36 C          60.3220   80.9152   11.0786 C.ar    1  UNL1        0.0410
     37 C          59.6280   79.6933   11.2220 C.ar    1  UNL1        0.0022
     38 C          58.9783   79.3662   12.4122 C.ar    1  UNL1        0.0113
     39 C          59.0261   80.2374   13.4975 C.ar    1  UNL1        0.0585
     40 CL         58.2000   79.8281   14.9896 Cl      1  UNL1       -0.0822
     41 C          59.7381   81.4322   13.3983 C.ar    1  UNL1        0.0226
     42 C          60.3895   81.7818   12.2080 C.ar    1  UNL1        0.0591
     43 CL         61.2710   83.3078   12.2260 Cl      1  UNL1       -0.0824
     44 C          62.4401   80.6309    9.7415 C.3     1  UNL1        0.1897
     45 N          63.3705   81.4927   10.4669 N.ar    1  UNL1       -0.2246
     46 C          64.0835   82.5145    9.9654 C.ar    1  UNL1        0.1974
     47 N          64.8502   83.0831   10.9155 N.ar    1  UNL1       -0.2007
     48 C          64.5547   82.3451   12.0089 C.ar    1  UNL1        0.2210
     49 N          63.6578   81.3735   11.7495 N.ar    1  UNL1       -0.1450
@<TRIPOS>BOND
     1    27    28    1
     2    28    25    1
     3    25    26    1
     4    25    19    1
     5    19    20   ar
     6    20    21   ar
     7    21    22   ar
     8    22    13    1
     9    13    14   ar
    10    14    15   ar
    11    15    16   ar
    12    16     7    1
    13     7     8    1
    14     8     9    1
    15     9    10    1
    16    10     1    1
    17     1     2   ar
    18     2     3   ar
    19     3     4   ar
    20     4    29    1
    21    29    30    1
    22    30    31    1
    23    31    32    1
    24    32    33    1
    25    33    34    1
    26    34    44    1
    27    44    45    1
    28    45    46   ar
    29    46    47   ar
    30    47    48   ar
    31    48    49   ar
    32    34    36    1
    33    36    37   ar
    34    37    38   ar
    35    38    39   ar
    36    39    40    1
    37    39    41   ar
    38    41    42   ar
    39    42    43    1
    40    34    35    1
    41     4     5   ar
    42     5     6   ar
    43    10    11    1
    44    11    12    1
    45    16    17   ar
    46    17    18   ar
    47    22    23   ar
    48    23    24    2
    49    23    19   ar
    50    18    13   ar
    51    12     7    1
    52     6     1   ar
    53    35    31    1
    54    49    45   ar
    55    42    36   ar
@<TRIPOS>MOLECULE
*****
 49 55 0 0 0
SMALL
GASTEIGER

@<TRIPOS>ATOM
      1 C          58.9512   85.2662   12.4833 C.ar    1  UNL1        0.0481
      2 C          59.7364   84.3530   13.2056 C.ar    1  UNL1        0.0176
      3 C          59.6438   82.9833   12.9487 C.ar    1  UNL1        0.0382
      4 C          58.7675   82.4997   11.9719 C.ar    1  UNL1        0.1388
      5 C          57.9898   83.4122   11.2353 C.ar    1  UNL1        0.0382
      6 C          58.0842   84.7839   11.4892 C.ar    1  UNL1        0.0176
      7 N          60.5574   88.9727   13.0138 N.pl3   1  UNL1       -0.3041
      8 C          60.4796   88.0722   14.1760 C.3     1  UNL1        0.1122
      9 C          59.2337   87.1815   14.1105 C.3     1  UNL1        0.1122
     10 N          59.0540   86.6797   12.7406 N.pl3   1  UNL1       -0.3041
     11 C          59.0563   87.6253   11.6121 C.3     1  UNL1        0.1122
     12 C          59.4333   89.0393   12.0688 C.3     1  UNL1        0.1122
     13 C          64.1105   91.2263   12.3244 C.ar    1  UNL1        0.0699
     14 C          63.1471   91.0844   11.3117 C.ar    1  UNL1        0.0190
     15 C          61.9824   90.3456   11.5374 C.ar    1  UNL1        0.0160
     16 C          61.7635   89.7235   12.7764 C.ar    1  UNL1        0.0480
     17 C          62.7263   89.8622   13.7890 C.ar    1  UNL1        0.0160
     18 C          63.8899   90.6030   13.5646 C.ar    1  UNL1        0.0190
     19 N          66.8698   93.2815   11.1662 N.ar    1  UNL1       -0.2024
     20 N          67.3367   92.8958   12.3443 N.ar    1  UNL1       -0.1442
     21 C          66.3864   92.1085   12.8936 C.ar    1  UNL1        0.2073
     22 N          65.3103   91.9868   12.0836 N.ar    1  UNL1       -0.2398
     23 C          65.6510   92.7278   11.0107 C.ar    1  UNL1        0.3522
     24 O          64.9392   92.8571    9.9783 O.2     1  UNL1       -0.2444
     25 C          67.6129   94.1394   10.2356 C.3     1  UNL1        0.1099
     26 C          66.6489   94.8007    9.2411 C.3     1  UNL1        0.0265
     27 C          68.2665   91.9204    9.1459 C.3     1  UNL1        0.0021
     28 C          68.7212   93.3277    9.5330 C.3     1  UNL1        0.0245
     29 O          58.6975   81.1147   11.7691 O.3     1  UNL1       -0.4727
     30 C          59.3946   80.4078   10.7449 C.3     1  UNL1        0.2374
     31 C          60.8458   80.1424   11.1693 C.3     1  UNL1        0.1909
     32 C          61.7166   79.6675   10.0405 C.3     1  UNL1        0.1783
     33 O          62.4709   80.7644    9.6360 O.3     1  UNL1       -0.3266
     34 C          62.3422   81.7481   10.6433 C.3     1  UNL1        0.2315
     35 O          61.4274   81.3186   11.6359 O.3     1  UNL1       -0.3254
     36 C          61.8479   83.0776   10.0556 C.ar    1  UNL1        0.0410
     37 C          62.3842   84.2753   10.5782 C.ar    1  UNL1        0.0022
     38 C          61.9796   85.5198   10.0952 C.ar    1  UNL1        0.0113
     39 C          61.0499   85.6005    9.0616 C.ar    1  UNL1        0.0585
     40 CL         60.5357   87.1668    8.4629 Cl      1  UNL1       -0.0822
     41 C          60.5342   84.4338    8.4986 C.ar    1  UNL1        0.0226
     42 C          60.9219   83.1750    8.9766 C.ar    1  UNL1        0.0591
     43 CL         60.2115   81.7835    8.1610 Cl      1  UNL1       -0.0824
     44 C          63.7085   81.9497   11.3288 C.3     1  UNL1        0.1897
     45 N          63.6099   81.8555   12.7835 N.ar    1  UNL1       -0.2246
     46 C          63.6049   82.8729   13.6603 C.ar    1  UNL1        0.1974
     47 N          63.5139   82.4217   14.9259 N.ar    1  UNL1       -0.2007
     48 C          63.4647   81.0816   14.7549 C.ar    1  UNL1        0.2210
     49 N          63.5242   80.7238   13.4572 N.ar    1  UNL1       -0.1450
@<TRIPOS>BOND
     1    27    28    1
     2    28    25    1
     3    25    26    1
     4    25    19    1
     5    19    20   ar
     6    20    21   ar
     7    21    22   ar
     8    22    13    1
     9    13    14   ar
    10    14    15   ar
    11    15    16   ar
    12    16     7    1
    13     7     8    1
    14     8     9    1
    15     9    10    1
    16    10     1    1
    17     1     2   ar
    18     2     3   ar
    19     3     4   ar
    20     4    29    1
    21    29    30    1
    22    30    31    1
    23    31    32    1
    24    32    33    1
    25    33    34    1
    26    34    44    1
    27    44    45    1
    28    45    46   ar
    29    46    47   ar
    30    47    48   ar
    31    48    49   ar
    32    34    36    1
    33    36    37   ar
    34    37    38   ar
    35    38    39   ar
    36    39    40    1
    37    39    41   ar
    38    41    42   ar
    39    42    43    1
    40    34    35    1
    41     4     5   ar
    42     5     6   ar
    43    10    11    1
    44    11    12    1
    45    16    17   ar
    46    17    18   ar
    47    22    23   ar
    48    23    24    2
    49    23    19   ar
    50    18    13   ar
    51    12     7    1
    52     6     1   ar
    53    35    31    1
    54    49    45   ar
    55    42    36   ar
@<TRIPOS>MOLECULE
*****
 49 55 0 0 0
SMALL
GASTEIGER

@<TRIPOS>ATOM
      1 C          59.6047   85.0732    8.8487 C.ar    1  UNL1        0.0481
      2 C          59.9720   83.8871    8.1928 C.ar    1  UNL1        0.0176
      3 C          59.2137   82.7255    8.3557 C.ar    1  UNL1        0.0382
      4 C          58.0802   82.7242    9.1748 C.ar    1  UNL1        0.1388
      5 C          57.6998   83.9143    9.8219 C.ar    1  UNL1        0.0382
      6 C          58.4561   85.0786    9.6570 C.ar    1  UNL1        0.0176
      7 N          61.7210   88.4463    9.7107 N.pl3   1  UNL1       -0.3041
      8 C          60.2587   88.5538    9.5785 C.3     1  UNL1        0.1122
      9 C          59.7195   87.5789    8.5256 C.3     1  UNL1        0.1122
     10 N          60.3803   86.2741    8.6729 N.pl3   1  UNL1       -0.3041
     11 C          61.8502   86.2030    8.7185 C.3     1  UNL1        0.1122
     12 C          62.4758   87.6014    8.7739 C.3     1  UNL1        0.1122
     13 C          63.6576   90.4274   12.9517 C.ar    1  UNL1        0.0699
     14 C          63.4050   91.1066   11.7480 C.ar    1  UNL1        0.0190
     15 C          62.7704   90.4573   10.6854 C.ar    1  UNL1        0.0160
     16 C          62.3866   89.1121   10.8009 C.ar    1  UNL1        0.0480
     17 C          62.6404   88.4310   12.0022 C.ar    1  UNL1        0.0160
     18 C          63.2727   89.0805   13.0659 C.ar    1  UNL1        0.0190
     19 N          65.7642   92.2500   15.2796 N.ar    1  UNL1       -0.2024
     20 N          64.7662   91.9052   16.0794 N.ar    1  UNL1       -0.1442
     21 C          63.8925   91.2069   15.3222 C.ar    1  UNL1        0.2073
     22 N          64.3150   91.1021   14.0418 N.ar    1  UNL1       -0.2398
     23 C          65.4912   91.7599   14.0542 C.ar    1  UNL1        0.3522
     24 O          66.2563   91.8715   13.0585 O.2     1  UNL1       -0.2444
     25 C          66.9396   93.0091   15.7227 C.3     1  UNL1        0.1099
     26 C          67.2700   94.1126   14.7085 C.3     1  UNL1        0.0265
     27 C          69.2367   92.2173   14.9260 C.3     1  UNL1        0.0021
     28 C          68.1282   92.0557   15.9662 C.3     1  UNL1        0.0245
     29 O          57.3675   81.5262    9.3209 O.3     1  UNL1       -0.4727
     30 C          57.9617   80.2521    9.5625 C.3     1  UNL1        0.2374
     31 C          57.9695   79.9409   11.0658 C.3     1  UNL1        0.1909
     32 C          58.7283   78.6901   11.4086 C.3     1  UNL1        0.1783
     33 O          59.9606   79.1005   11.9075 O.3     1  UNL1       -0.3266
     34 C          59.8553   80.4836   12.1810 C.3     1  UNL1        0.2315
     35 O          58.5937   80.9730   11.7618 O.3     1  UNL1       -0.3254
     36 C          60.9576   81.2734   11.4609 C.ar    1  UNL1        0.0410
     37 C          60.9794   82.6771   11.6171 C.ar    1  UNL1        0.0022
     38 C          61.9493   83.4593   10.9901 C.ar    1  UNL1        0.0113
     39 C          62.9369   82.8593   10.2130 C.ar    1  UNL1        0.0585
     40 CL         64.1493   83.8462    9.4178 Cl      1  UNL1       -0.0822
     41 C          62.9644   81.4722   10.0743 C.ar    1  UNL1        0.0226
     42 C          61.9933   80.6709   10.6892 C.ar    1  UNL1        0.0591
     43 CL         62.1584   78.9324   10.4511 Cl      1  UNL1       -0.0824
     44 C          59.9556   80.7058   13.7034 C.3     1  UNL1        0.1897
     45 N          61.3307   80.9529   14.1309 N.ar    1  UNL1       -0.2246
     46 C          62.3434   80.0708   14.1438 C.ar    1  UNL1        0.1974
     47 N          63.4727   80.6359   14.6119 N.ar    1  UNL1       -0.2007
     48 C          63.0774   81.9014   14.8764 C.ar    1  UNL1        0.2210
     49 N          61.7768   82.1069   14.5903 N.ar    1  UNL1       -0.1450
@<TRIPOS>BOND
     1    27    28    1
     2    28    25    1
     3    25    26    1
     4    25    19    1
     5    19    20   ar
     6    20    21   ar
     7    21    22   ar
     8    22    13    1
     9    13    14   ar
    10    14    15   ar
    11    15    16   ar
    12    16     7    1
    13     7     8    1
    14     8     9    1
    15     9    10    1
    16    10     1    1
    17     1     2   ar
    18     2     3   ar
    19     3     4   ar
    20     4    29    1
    21    29    30    1
    22    30    31    1
    23    31    32    1
    24    32    33    1
    25    33    34    1
    26    34    44    1
    27    44    45    1
    28    45    46   ar
    29    46    47   ar
    30    47    48   ar
    31    48    49   ar
    32    34    36    1
    33    36    37   ar
    34    37    38   ar
    35    38    39   ar
    36    39    40    1
    37    39    41   ar
    38    41    42   ar
    39    42    43    1
    40    34    35    1
    41     4     5   ar
    42     5     6   ar
    43    10    11    1
    44    11    12    1
    45    16    17   ar
    46    17    18   ar
    47    22    23   ar
    48    23    24    2
    49    23    19   ar
    50    18    13   ar
    51    12     7    1
    52     6     1   ar
    53    35    31    1
    54    49    45   ar
    55    42    36   ar
@<TRIPOS>MOLECULE
*****
 49 55 0 0 0
SMALL
GASTEIGER

@<TRIPOS>ATOM
      1 C          59.4121   85.6371    9.2966 C.ar    1  UNL1        0.0481
      2 C          60.4716   84.9965    8.6339 C.ar    1  UNL1        0.0176
      3 C          60.4543   83.6126    8.4465 C.ar    1  UNL1        0.0382
      4 C          59.3852   82.8436    8.9171 C.ar    1  UNL1        0.1388
      5 C          58.3143   83.4831    9.5684 C.ar    1  UNL1        0.0382
      6 C          58.3288   84.8688    9.7535 C.ar    1  UNL1        0.0176
      7 N          60.6285   89.3609   10.4161 N.pl3   1  UNL1       -0.3041
      8 C          59.8649   88.5553   11.3833 C.3     1  UNL1        0.1122
      9 C          58.8280   87.6722   10.6798 C.3     1  UNL1        0.1122
     10 N          59.4244   87.0656    9.4810 N.pl3   1  UNL1       -0.3041
     11 C          60.1091   87.9194    8.4963 C.3     1  UNL1        0.1122
     12 C          60.2355   89.3620    8.9995 C.3     1  UNL1        0.1122
     13 C          64.0622   91.5232   11.7250 C.ar    1  UNL1        0.0699
     14 C          63.7105   91.4968   10.3650 C.ar    1  UNL1        0.0190
     15 C          62.5851   90.7879    9.9357 C.ar    1  UNL1        0.0160
     16 C          61.7958   90.0811   10.8562 C.ar    1  UNL1        0.0480
     17 C          62.1470   90.1043   12.2155 C.ar    1  UNL1        0.0160
     18 C          63.2708   90.8151   12.6456 C.ar    1  UNL1        0.0190
     19 N          67.0273   92.9321   13.2748 N.ar    1  UNL1       -0.2024
     20 N          66.8359   93.7994   12.2921 N.ar    1  UNL1       -0.1442
     21 C          65.7396   93.3827   11.6219 C.ar    1  UNL1        0.2073
     22 N          65.2255   92.2535   12.1600 N.ar    1  UNL1       -0.2398
     23 C          66.0522   92.0053   13.1950 C.ar    1  UNL1        0.3522
     24 O          65.9115   91.0514   14.0070 O.2     1  UNL1       -0.2444
     25 C          68.1140   93.0379   14.2557 C.3     1  UNL1        0.1099
     26 C          69.1878   91.9787   13.9718 C.3     1  UNL1        0.0265
     27 C          68.4639   92.1527   16.6289 C.3     1  UNL1        0.0021
     28 C          67.5495   92.9375   15.6882 C.3     1  UNL1        0.0245
     29 O          59.4280   81.4564    8.7219 O.3     1  UNL1       -0.4727
     30 C          60.6154   80.6669    8.7629 C.3     1  UNL1        0.2374
     31 C          60.6798   79.8631   10.0692 C.3     1  UNL1        0.1909
     32 C          62.0563   79.3478   10.3813 C.3     1  UNL1        0.1783
     33 O          62.5808   80.1896   11.3571 O.3     1  UNL1       -0.3266
     34 C          61.5050   80.9537   11.8648 C.3     1  UNL1        0.2315
     35 O          60.3186   80.6723   11.1436 O.3     1  UNL1       -0.3254
     36 C          61.8011   82.4569   11.7649 C.ar    1  UNL1        0.0410
     37 C          63.0281   82.8557   11.1898 C.ar    1  UNL1        0.0022
     38 C          63.3659   84.2036   11.0694 C.ar    1  UNL1        0.0113
     39 C          62.4779   85.1881   11.4955 C.ar    1  UNL1        0.0585
     40 CL         62.9093   86.8820   11.3519 Cl      1  UNL1       -0.0822
     41 C          61.2421   84.8248   12.0296 C.ar    1  UNL1        0.0226
     42 C          60.8891   83.4758   12.1667 C.ar    1  UNL1        0.0591
     43 CL         59.2898   83.1570   12.8351 Cl      1  UNL1       -0.0824
     44 C          61.2572   80.5612   13.3351 C.3     1  UNL1        0.1897
     45 N          62.2300   81.1744   14.2365 N.ar    1  UNL1       -0.2246
     46 C          63.4098   80.6612   14.6217 C.ar    1  UNL1        0.1974
     47 N          64.0459   81.4915   15.4701 N.ar    1  UNL1       -0.2007
     48 C          63.1813   82.5261   15.5685 C.ar    1  UNL1        0.2210
     49 N          62.0722   82.3452   14.8250 N.ar    1  UNL1       -0.1450
@<TRIPOS>BOND
     1    27    28    1
     2    28    25    1
     3    25    26    1
     4    25    19    1
     5    19    20   ar
     6    20    21   ar
     7    21    22   ar
     8    22    13    1
     9    13    14   ar
    10    14    15   ar
    11    15    16   ar
    12    16     7    1
    13     7     8    1
    14     8     9    1
    15     9    10    1
    16    10     1    1
    17     1     2   ar
    18     2     3   ar
    19     3     4   ar
    20     4    29    1
    21    29    30    1
    22    30    31    1
    23    31    32    1
    24    32    33    1
    25    33    34    1
    26    34    44    1
    27    44    45    1
    28    45    46   ar
    29    46    47   ar
    30    47    48   ar
    31    48    49   ar
    32    34    36    1
    33    36    37   ar
    34    37    38   ar
    35    38    39   ar
    36    39    40    1
    37    39    41   ar
    38    41    42   ar
    39    42    43    1
    40    34    35    1
    41     4     5   ar
    42     5     6   ar
    43    10    11    1
    44    11    12    1
    45    16    17   ar
    46    17    18   ar
    47    22    23   ar
    48    23    24    2
    49    23    19   ar
    50    18    13   ar
    51    12     7    1
    52     6     1   ar
    53    35    31    1
    54    49    45   ar
    55    42    36   ar
@<TRIPOS>MOLECULE
*****
 49 55 0 0 0
SMALL
GASTEIGER

@<TRIPOS>ATOM
      1 C          58.6924   85.2263   11.8902 C.ar    1  UNL1        0.0481
      2 C          59.3833   84.4376   12.8244 C.ar    1  UNL1        0.0176
      3 C          59.3102   83.0441   12.7644 C.ar    1  UNL1        0.0382
      4 C          58.5472   82.4130   11.7767 C.ar    1  UNL1        0.1388
      5 C          57.8655   83.1990   10.8295 C.ar    1  UNL1        0.0382
      6 C          57.9407   84.5940   10.8864 C.ar    1  UNL1        0.0176
      7 N          60.2165   88.9759   12.3563 N.pl3   1  UNL1       -0.3041
      8 C          59.7051   88.2767   13.5468 C.3     1  UNL1        0.1122
      9 C          58.5096   87.3825   13.1992 C.3     1  UNL1        0.1122
     10 N          58.7759   86.6632   11.9452 N.pl3   1  UNL1       -0.3041
     11 C          59.2073   87.4121   10.7533 C.3     1  UNL1        0.1122
     12 C          59.4814   88.8831   11.0866 C.3     1  UNL1        0.1122
     13 C          63.9070   91.0983   12.5908 C.ar    1  UNL1        0.0699
     14 C          63.1509   91.1091   11.4066 C.ar    1  UNL1        0.0190
     15 C          61.9412   90.4133   11.3294 C.ar    1  UNL1        0.0160
     16 C          61.4694   89.6826   12.4311 C.ar    1  UNL1        0.0480
     17 C          62.2248   89.6686   13.6146 C.ar    1  UNL1        0.0160
     18 C          63.4332   90.3663   13.6930 C.ar    1  UNL1        0.0190
     19 N          67.1140   92.6302   13.3305 N.ar    1  UNL1       -0.2024
     20 N          66.8561   93.1729   12.1499 N.ar    1  UNL1       -0.1442
     21 C          65.6647   92.6759   11.7522 C.ar    1  UNL1        0.2073
     22 N          65.1546   91.8153   12.6621 N.ar    1  UNL1       -0.2398
     23 C          66.0843   91.8169   13.6379 C.ar    1  UNL1        0.3522
     24 O          65.9874   91.1709   14.7160 O.2     1  UNL1       -0.2444
     25 C          68.3153   92.9272   14.1196 C.3     1  UNL1        0.1099
     26 C          69.3662   91.8270   13.9179 C.3     1  UNL1        0.0265
     27 C          68.7072   92.1801   16.5335 C.3     1  UNL1        0.0021
     28 C          67.9421   93.1223   15.6041 C.3     1  UNL1        0.0245
     29 O          58.4903   81.0126   11.7748 O.3     1  UNL1       -0.4727
     30 C          59.2039   80.1722   10.8696 C.3     1  UNL1        0.2374
     31 C          60.6603   80.0072   11.3263 C.3     1  UNL1        0.1909
     32 C          61.5421   79.3823   10.2824 C.3     1  UNL1        0.1783
     33 O          62.2727   80.4194    9.7111 O.3     1  UNL1       -0.3266
     34 C          62.1218   81.5441   10.5543 C.3     1  UNL1        0.2315
     35 O          61.2157   81.2537   11.6038 O.3     1  UNL1       -0.3254
     36 C          61.5992   82.7556    9.7692 C.ar    1  UNL1        0.0410
     37 C          62.0895   84.0341   10.1162 C.ar    1  UNL1        0.0022
     38 C          61.6572   85.1799    9.4485 C.ar    1  UNL1        0.0113
     39 C          60.7451   85.0771    8.4012 C.ar    1  UNL1        0.0585
     40 CL         60.1958   86.5204    7.5699 Cl      1  UNL1       -0.0822
     41 C          60.2752   83.8239    8.0100 C.ar    1  UNL1        0.0226
     42 C          60.6912   82.6627    8.6746 C.ar    1  UNL1        0.0591
     43 CL         60.0381   81.1438    8.0642 Cl      1  UNL1       -0.0824
     44 C          63.4828   81.8788   11.1969 C.3     1  UNL1        0.1897
     45 N          63.4074   81.9053   12.6558 N.ar    1  UNL1       -0.2246
     46 C          63.2704   82.9884   13.4380 C.ar    1  UNL1        0.1974
     47 N          63.2495   82.6463   14.7404 N.ar    1  UNL1       -0.2007
     48 C          63.3809   81.3018   14.6909 C.ar    1  UNL1        0.2210
     49 N          63.4799   80.8385   13.4295 N.ar    1  UNL1       -0.1450
@<TRIPOS>BOND
     1    27    28    1
     2    28    25    1
     3    25    26    1
     4    25    19    1
     5    19    20   ar
     6    20    21   ar
     7    21    22   ar
     8    22    13    1
     9    13    14   ar
    10    14    15   ar
    11    15    16   ar
    12    16     7    1
    13     7     8    1
    14     8     9    1
    15     9    10    1
    16    10     1    1
    17     1     2   ar
    18     2     3   ar
    19     3     4   ar
    20     4    29    1
    21    29    30    1
    22    30    31    1
    23    31    32    1
    24    32    33    1
    25    33    34    1
    26    34    44    1
    27    44    45    1
    28    45    46   ar
    29    46    47   ar
    30    47    48   ar
    31    48    49   ar
    32    34    36    1
    33    36    37   ar
    34    37    38   ar
    35    38    39   ar
    36    39    40    1
    37    39    41   ar
    38    41    42   ar
    39    42    43    1
    40    34    35    1
    41     4     5   ar
    42     5     6   ar
    43    10    11    1
    44    11    12    1
    45    16    17   ar
    46    17    18   ar
    47    22    23   ar
    48    23    24    2
    49    23    19   ar
    50    18    13   ar
    51    12     7    1
    52     6     1   ar
    53    35    31    1
    54    49    45   ar
    55    42    36   ar
