@<TRIPOS>MOLECULE
*****
 39 43 0 0 0
SMALL
GASTEIGER

@<TRIPOS>ATOM
      1 C         -22.7873   -8.5667  -10.4883 C.2     1  UNL1        0.2506
      2 O         -23.9384   -9.0467  -10.2997 O.2     1  UNL1       -0.2699
      3 N         -22.4946   -7.8611  -11.7110 N.am    1  UNL1       -0.2680
      4 C         -21.6272   -6.6784  -11.6841 C.3     1  UNL1        0.1412
      5 C         -20.2473   -7.0233  -12.2417 C.3     1  UNL1        0.2268
      6 O         -20.3219   -8.0513  -13.2278 O.3     1  UNL1       -0.4739
      7 C         -21.1571   -7.9580  -14.3432 C.ar    1  UNL1        0.1362
      8 C         -20.5651   -7.9067  -15.6084 C.ar    1  UNL1        0.0366
      9 C         -21.3486   -7.7795  -16.7550 C.ar    1  UNL1        0.0031
     10 C         -22.7469   -7.7158  -16.6565 C.ar    1  UNL1        0.0001
     11 C         -23.3447   -7.7969  -15.3868 C.ar    1  UNL1        0.0004
     12 C         -22.5672   -7.9148  -14.2210 C.ar    1  UNL1        0.0317
     13 C         -23.2997   -8.1406  -12.9089 C.3     1  UNL1        0.1236
     14 C         -23.5837   -7.5828  -17.8761 C.ar    1  UNL1        0.0045
     15 C         -24.2916   -6.3757  -18.1336 C.ar    1  UNL1        0.0386
     16 C         -25.0957   -6.2366  -19.2919 C.ar    1  UNL1        0.1577
     17 C         -25.1597   -7.3249  -20.1584 C.ar    1  UNL1        0.1323
     18 N         -25.8545   -7.4222  -21.3069 N.ar    1  UNL1       -0.2210
     19 C         -25.5630   -8.6790  -21.7334 C.ar    1  UNL1        0.1751
     20 N         -24.7282   -9.3500  -20.9046 N.ar    1  UNL1       -0.3348
     21 C         -24.4833   -8.4806  -19.9172 C.ar    1  UNL1        0.0787
     22 C         -23.6845   -8.6564  -18.7924 C.ar    1  UNL1        0.0187
     23 H         -24.3622  -10.3217  -21.0141 H       1  UNL1        0.1675
     24 O         -25.8128   -5.0697  -19.5932 O.3     1  UNL1       -0.4699
     25 C         -26.5702   -4.3297  -18.6419 C.3     1  UNL1        0.2525
     26 C         -20.5432   -9.4405   -9.7274 C.ar    1  UNL1        0.0503
     27 C         -19.5755   -9.5462   -8.7084 C.ar    1  UNL1        0.0328
     28 C         -19.7999   -8.9881   -7.4444 C.ar    1  UNL1        0.1069
     29 C         -20.9939   -8.3081   -7.1890 C.ar    1  UNL1        0.0186
     30 C         -21.9624   -8.1949   -8.1855 C.ar    1  UNL1        0.0071
     31 C         -21.7541   -8.7607   -9.4516 C.ar    1  UNL1        0.0667
     32 S         -18.5648   -9.1182   -6.1964 S.O2    1  UNL1        0.0105
     33 C         -17.9069   -7.5031   -5.8498 C.3     1  UNL1        0.1816
     34 O         -19.1576   -9.6959   -4.9416 O.2     1  UNL1       -0.1686
     35 O         -17.4618  -10.0227   -6.6700 O.2     1  UNL1       -0.1686
     36 N         -20.3288  -10.0566  -11.0159 N.pl3   1  UNL1       -0.3325
     37 H         -19.9558   -9.4755  -11.7999 H       1  UNL1        0.1468
     38 C         -21.5242  -11.6077  -12.5079 C.3     1  UNL1        0.0229
     39 C         -20.5879  -11.4670  -11.3117 C.3     1  UNL1        0.0871
@<TRIPOS>BOND
     1    38    39    1
     2    39    36    1
     3    36    26    1
     4    26    27   ar
     5    27    28   ar
     6    28    32    1
     7    32    33    1
     8    32    34    2
     9    32    35    2
    10    28    29   ar
    11    29    30   ar
    12    30    31   ar
    13    31     1    1
    14     1     2    2
    15     1     3   am
    16     3     4    1
    17     4     5    1
    18     5     6    1
    19     6     7    1
    20     7     8   ar
    21     8     9   ar
    22     9    10   ar
    23    10    14    1
    24    14    15   ar
    25    15    16   ar
    26    16    24    1
    27    24    25    1
    28    16    17   ar
    29    17    18   ar
    30    18    19   ar
    31    19    20   ar
    32    20    21   ar
    33    21    22   ar
    34    10    11   ar
    35    11    12   ar
    36    12    13    1
    37    31    26   ar
    38    13     3    1
    39    12     7   ar
    40    22    14   ar
    41    21    17   ar
    42    36    37    1
    43    20    23    1
@<TRIPOS>MOLECULE
*****
 39 43 0 0 0
SMALL
GASTEIGER

@<TRIPOS>ATOM
      1 C         -22.0699   -9.8424  -13.2055 C.2     1  UNL1        0.2506
      2 O         -21.7935  -10.1327  -14.4015 O.2     1  UNL1       -0.2699
      3 N         -23.3092   -9.1736  -12.8965 N.am    1  UNL1       -0.2680
      4 C         -24.0452   -9.5227  -11.6766 C.3     1  UNL1        0.1412
      5 C         -23.8721   -8.4285  -10.6245 C.3     1  UNL1        0.2268
      6 O         -23.6997   -7.1462  -11.2248 O.3     1  UNL1       -0.4739
      7 C         -24.6065   -6.6264  -12.1511 C.ar    1  UNL1        0.1362
      8 C         -25.3145   -5.4719  -11.8050 C.ar    1  UNL1        0.0366
      9 C         -26.2571   -4.9282  -12.6771 C.ar    1  UNL1        0.0031
     10 C         -26.4988   -5.5247  -13.9240 C.ar    1  UNL1        0.0001
     11 C         -25.7661   -6.6689  -14.2851 C.ar    1  UNL1        0.0004
     12 C         -24.8200   -7.2344  -13.4120 C.ar    1  UNL1        0.0317
     13 C         -23.9744   -8.3810  -13.9408 C.3     1  UNL1        0.1236
     14 C         -27.5002   -4.9463  -14.8556 C.ar    1  UNL1        0.0045
     15 C         -28.8898   -5.1674  -14.6443 C.ar    1  UNL1        0.0386
     16 C         -29.8557   -4.6237  -15.5269 C.ar    1  UNL1        0.1577
     17 C         -29.3865   -3.8696  -16.5996 C.ar    1  UNL1        0.1323
     18 N         -30.1110   -3.2639  -17.5586 N.ar    1  UNL1       -0.2210
     19 C         -29.1605   -2.6839  -18.3373 C.ar    1  UNL1        0.1751
     20 N         -27.8973   -2.9054  -17.9021 N.ar    1  UNL1       -0.3348
     21 C         -28.0588   -3.6542  -16.8049 C.ar    1  UNL1        0.0787
     22 C         -27.0805   -4.1705  -15.9620 C.ar    1  UNL1        0.0187
     23 H         -27.0053   -2.5683  -18.3275 H       1  UNL1        0.1675
     24 O         -31.2359   -4.8107  -15.3643 O.3     1  UNL1       -0.4699
     25 C         -32.0667   -3.9744  -14.5663 C.3     1  UNL1        0.2525
     26 C         -20.7383  -11.5193  -11.8664 C.ar    1  UNL1        0.0503
     27 C         -19.7654  -11.7700  -10.8781 C.ar    1  UNL1        0.0328
     28 C         -19.1591  -10.7164  -10.1839 C.ar    1  UNL1        0.1069
     29 C         -19.5136   -9.3971  -10.4789 C.ar    1  UNL1        0.0186
     30 C         -20.4748   -9.1312  -11.4531 C.ar    1  UNL1        0.0071
     31 C         -21.0981  -10.1788  -12.1462 C.ar    1  UNL1        0.0667
     32 S         -17.9322  -11.0583   -8.9682 S.O2    1  UNL1        0.0105
     33 C         -17.8350  -12.8147   -8.7090 C.3     1  UNL1        0.1816
     34 O         -16.5951  -10.5462   -9.4258 O.2     1  UNL1       -0.1686
     35 O         -18.2950  -10.3761   -7.6791 O.2     1  UNL1       -0.1686
     36 N         -21.3954  -12.6094  -12.5487 N.pl3   1  UNL1       -0.3325
     37 H         -22.3740  -12.8589  -12.2808 H       1  UNL1        0.1468
     38 C         -21.7950  -13.6771  -14.7308 C.3     1  UNL1        0.0229
     39 C         -20.7871  -13.4017  -13.6192 C.3     1  UNL1        0.0871
@<TRIPOS>BOND
     1    38    39    1
     2    39    36    1
     3    36    26    1
     4    26    27   ar
     5    27    28   ar
     6    28    32    1
     7    32    33    1
     8    32    34    2
     9    32    35    2
    10    28    29   ar
    11    29    30   ar
    12    30    31   ar
    13    31     1    1
    14     1     2    2
    15     1     3   am
    16     3     4    1
    17     4     5    1
    18     5     6    1
    19     6     7    1
    20     7     8   ar
    21     8     9   ar
    22     9    10   ar
    23    10    14    1
    24    14    15   ar
    25    15    16   ar
    26    16    24    1
    27    24    25    1
    28    16    17   ar
    29    17    18   ar
    30    18    19   ar
    31    19    20   ar
    32    20    21   ar
    33    21    22   ar
    34    10    11   ar
    35    11    12   ar
    36    12    13    1
    37    31    26   ar
    38    13     3    1
    39    12     7   ar
    40    22    14   ar
    41    21    17   ar
    42    36    37    1
    43    20    23    1
@<TRIPOS>MOLECULE
*****
 39 43 0 0 0
SMALL
GASTEIGER

@<TRIPOS>ATOM
      1 C         -22.0808   -9.6658  -13.2007 C.2     1  UNL1        0.2506
      2 O         -21.8186   -9.9501  -14.4013 O.2     1  UNL1       -0.2699
      3 N         -23.3439   -9.0567  -12.8660 N.am    1  UNL1       -0.2680
      4 C         -24.0331   -9.4335  -11.6270 C.3     1  UNL1        0.1412
      5 C         -23.8895   -8.3252  -10.5853 C.3     1  UNL1        0.2268
      6 O         -23.7945   -7.0399  -11.1966 O.3     1  UNL1       -0.4739
      7 C         -24.7473   -6.5714  -12.1039 C.ar    1  UNL1        0.1362
      8 C         -25.5030   -5.4508  -11.7474 C.ar    1  UNL1        0.0366
      9 C         -26.4914   -4.9599  -12.5998 C.ar    1  UNL1        0.0031
     10 C         -26.7326   -5.5758  -13.8373 C.ar    1  UNL1        0.0001
     11 C         -25.9531   -6.6849  -14.2095 C.ar    1  UNL1        0.0004
     12 C         -24.9601   -7.1976  -13.3560 C.ar    1  UNL1        0.0317
     13 C         -24.0717   -8.3046  -13.8985 C.3     1  UNL1        0.1236
     14 C         -27.7829   -5.0534  -14.7480 C.ar    1  UNL1        0.0045
     15 C         -29.1447   -5.4202  -14.5593 C.ar    1  UNL1        0.0386
     16 C         -30.1563   -4.9312  -15.4225 C.ar    1  UNL1        0.1577
     17 C         -29.7600   -4.0828  -16.4533 C.ar    1  UNL1        0.1323
     18 N         -30.5373   -3.5047  -17.3877 N.ar    1  UNL1       -0.2210
     19 C         -29.6458   -2.7965  -18.1293 C.ar    1  UNL1        0.1751
     20 N         -28.3685   -2.9140  -17.6949 N.ar    1  UNL1       -0.3348
     21 C         -28.4593   -3.7280  -16.6367 C.ar    1  UNL1        0.0787
     22 C         -27.4378   -4.1866  -15.8118 C.ar    1  UNL1        0.0187
     23 H         -27.5126   -2.4702  -18.0959 H       1  UNL1        0.1675
     24 O         -31.5120   -5.2607  -15.2807 O.3     1  UNL1       -0.4699
     25 C         -32.4208   -4.5588  -14.4394 C.3     1  UNL1        0.2525
     26 C         -20.4448   -8.9073  -11.4325 C.ar    1  UNL1        0.0503
     27 C         -19.5259   -9.2452  -10.4189 C.ar    1  UNL1        0.0328
     28 C         -19.2334  -10.5837  -10.1320 C.ar    1  UNL1        0.1069
     29 C         -19.8664  -11.6011  -10.8515 C.ar    1  UNL1        0.0186
     30 C         -20.7776  -11.2846  -11.8581 C.ar    1  UNL1        0.0071
     31 C         -21.0691   -9.9471  -12.1629 C.ar    1  UNL1        0.0667
     32 S         -18.0961  -10.9769   -8.8467 S.O2    1  UNL1        0.0105
     33 C         -18.4708   -9.9981   -7.4105 C.3     1  UNL1        0.1816
     34 O         -18.1962  -12.4354   -8.4971 O.2     1  UNL1       -0.1686
     35 O         -16.6949  -10.6856   -9.3059 O.2     1  UNL1       -0.1686
     36 N         -20.7103   -7.5254  -11.7575 N.pl3   1  UNL1       -0.3325
     37 H         -20.9599   -7.2747  -12.7405 H       1  UNL1        0.1468
     38 C         -21.2105   -5.1402  -11.4083 C.3     1  UNL1        0.0229
     39 C         -20.6678   -6.4258  -10.7916 C.3     1  UNL1        0.0871
@<TRIPOS>BOND
     1    38    39    1
     2    39    36    1
     3    36    26    1
     4    26    27   ar
     5    27    28   ar
     6    28    32    1
     7    32    33    1
     8    32    34    2
     9    32    35    2
    10    28    29   ar
    11    29    30   ar
    12    30    31   ar
    13    31     1    1
    14     1     2    2
    15     1     3   am
    16     3     4    1
    17     4     5    1
    18     5     6    1
    19     6     7    1
    20     7     8   ar
    21     8     9   ar
    22     9    10   ar
    23    10    14    1
    24    14    15   ar
    25    15    16   ar
    26    16    24    1
    27    24    25    1
    28    16    17   ar
    29    17    18   ar
    30    18    19   ar
    31    19    20   ar
    32    20    21   ar
    33    21    22   ar
    34    10    11   ar
    35    11    12   ar
    36    12    13    1
    37    31    26   ar
    38    13     3    1
    39    12     7   ar
    40    22    14   ar
    41    21    17   ar
    42    36    37    1
    43    20    23    1
@<TRIPOS>MOLECULE
*****
 39 43 0 0 0
SMALL
GASTEIGER

@<TRIPOS>ATOM
      1 C         -21.7537   -8.2891   -9.4354 C.2     1  UNL1        0.2506
      2 O         -22.5677   -8.2208   -8.4742 O.2     1  UNL1       -0.2699
      3 N         -22.0452   -7.6103  -10.6734 N.am    1  UNL1       -0.2680
      4 C         -20.9641   -6.9668  -11.4277 C.3     1  UNL1        0.1412
      5 C         -20.6038   -7.8054  -12.6528 C.3     1  UNL1        0.2268
      6 O         -21.7334   -8.5208  -13.1494 O.3     1  UNL1       -0.4739
      7 C         -22.9345   -7.8877  -13.4768 C.ar    1  UNL1        0.1362
      8 C         -23.3510   -7.9122  -14.8109 C.ar    1  UNL1        0.0366
      9 C         -24.5247   -7.2677  -15.2007 C.ar    1  UNL1        0.0031
     10 C         -25.3143   -6.5961  -14.2549 C.ar    1  UNL1        0.0001
     11 C         -24.9114   -6.5960  -12.9081 C.ar    1  UNL1        0.0004
     12 C         -23.7253   -7.2325  -12.5018 C.ar    1  UNL1        0.0317
     13 C         -23.4434   -7.3054  -11.0104 C.3     1  UNL1        0.1236
     14 C         -26.5658   -5.9111  -14.6671 C.ar    1  UNL1        0.0045
     15 C         -26.5143   -4.7695  -15.5147 C.ar    1  UNL1        0.0386
     16 C         -27.7005   -4.1049  -15.9132 C.ar    1  UNL1        0.1577
     17 C         -28.9072   -4.6163  -15.4421 C.ar    1  UNL1        0.1323
     18 N         -30.1474   -4.1531  -15.6842 N.ar    1  UNL1       -0.2210
     19 C         -30.9349   -5.0129  -14.9864 C.ar    1  UNL1        0.1751
     20 N         -30.2386   -5.9735  -14.3334 N.ar    1  UNL1       -0.3348
     21 C         -28.9615   -5.7086  -14.6327 C.ar    1  UNL1        0.0787
     22 C         -27.8206   -6.3881  -14.2194 C.ar    1  UNL1        0.0187
     23 H         -30.6149   -6.7420  -13.7350 H       1  UNL1        0.1675
     24 O         -27.7058   -2.9772  -16.7468 O.3     1  UNL1       -0.4699
     25 C         -28.1012   -2.9966  -18.1141 C.3     1  UNL1        0.2525
     26 C         -19.6900   -8.9472   -8.1366 C.ar    1  UNL1        0.0503
     27 C         -18.5572   -9.7767   -8.0168 C.ar    1  UNL1        0.0328
     28 C         -18.2564  -10.7276   -8.9992 C.ar    1  UNL1        0.1069
     29 C         -19.0937  -10.8655  -10.1097 C.ar    1  UNL1        0.0186
     30 C         -20.2182  -10.0524  -10.2444 C.ar    1  UNL1        0.0071
     31 C         -20.5226   -9.0878   -9.2731 C.ar    1  UNL1        0.0667
     32 S         -16.8454  -11.7642   -8.8136 S.O2    1  UNL1        0.0105
     33 C         -16.4385  -11.8998   -7.0881 C.3     1  UNL1        0.1816
     34 O         -17.1328  -13.1315   -9.3679 O.2     1  UNL1       -0.1686
     35 O         -15.6835  -11.1742   -9.5624 O.2     1  UNL1       -0.1686
     36 N         -19.9727   -7.9359   -7.1449 N.pl3   1  UNL1       -0.3325
     37 H         -20.7582   -7.2676   -7.3119 H       1  UNL1        0.1468
     38 C         -19.8642   -8.6177   -4.7817 C.3     1  UNL1        0.0229
     39 C         -19.2348   -7.7792   -5.8900 C.3     1  UNL1        0.0871
@<TRIPOS>BOND
     1    38    39    1
     2    39    36    1
     3    36    26    1
     4    26    27   ar
     5    27    28   ar
     6    28    32    1
     7    32    33    1
     8    32    34    2
     9    32    35    2
    10    28    29   ar
    11    29    30   ar
    12    30    31   ar
    13    31     1    1
    14     1     2    2
    15     1     3   am
    16     3     4    1
    17     4     5    1
    18     5     6    1
    19     6     7    1
    20     7     8   ar
    21     8     9   ar
    22     9    10   ar
    23    10    14    1
    24    14    15   ar
    25    15    16   ar
    26    16    24    1
    27    24    25    1
    28    16    17   ar
    29    17    18   ar
    30    18    19   ar
    31    19    20   ar
    32    20    21   ar
    33    21    22   ar
    34    10    11   ar
    35    11    12   ar
    36    12    13    1
    37    31    26   ar
    38    13     3    1
    39    12     7   ar
    40    22    14   ar
    41    21    17   ar
    42    36    37    1
    43    20    23    1
@<TRIPOS>MOLECULE
*****
 39 43 0 0 0
SMALL
GASTEIGER

@<TRIPOS>ATOM
      1 C         -22.1514   -8.1022   -9.5094 C.2     1  UNL1        0.2506
      2 O         -22.9935   -7.9945   -8.5765 O.2     1  UNL1       -0.2699
      3 N         -22.3754   -7.4233  -10.7614 N.am    1  UNL1       -0.2680
      4 C         -21.2460   -6.8282  -11.4839 C.3     1  UNL1        0.1412
      5 C         -20.8780   -7.6905  -12.6902 C.3     1  UNL1        0.2268
      6 O         -22.0174   -8.3663  -13.2190 O.3     1  UNL1       -0.4739
      7 C         -23.1816   -7.6904  -13.5908 C.ar    1  UNL1        0.1362
      8 C         -23.5545   -7.7103  -14.9378 C.ar    1  UNL1        0.0366
      9 C         -24.6888   -7.0246  -15.3713 C.ar    1  UNL1        0.0031
     10 C         -25.4828   -6.3152  -14.4573 C.ar    1  UNL1        0.0001
     11 C         -25.1249   -6.3189  -13.0979 C.ar    1  UNL1        0.0004
     12 C         -23.9783   -6.9970  -12.6476 C.ar    1  UNL1        0.0317
     13 C         -23.7489   -7.0678  -11.1471 C.3     1  UNL1        0.1236
     14 C         -26.6926   -5.5862  -14.9159 C.ar    1  UNL1        0.0045
     15 C         -26.5779   -4.5223  -15.8537 C.ar    1  UNL1        0.0386
     16 C         -27.7237   -3.8168  -16.2975 C.ar    1  UNL1        0.1577
     17 C         -28.9551   -4.2096  -15.7791 C.ar    1  UNL1        0.1323
     18 N         -30.1659   -3.6883  -16.0503 N.ar    1  UNL1       -0.2210
     19 C         -30.9987   -4.4365  -15.2803 C.ar    1  UNL1        0.1751
     20 N         -30.3578   -5.3843  -14.5558 N.ar    1  UNL1       -0.3348
     21 C         -29.0699   -5.2274  -14.8834 C.ar    1  UNL1        0.0787
     22 C         -27.9701   -5.9436  -14.4234 C.ar    1  UNL1        0.0187
     23 H         -30.7756   -6.0762  -13.8947 H       1  UNL1        0.1675
     24 O         -27.6664   -2.7619  -17.2197 O.3     1  UNL1       -0.4699
     25 C         -28.0768   -2.8660  -18.5788 C.3     1  UNL1        0.2525
     26 C         -20.6976  -10.0781  -10.1096 C.ar    1  UNL1        0.0503
     27 C         -19.5139  -10.8114   -9.8923 C.ar    1  UNL1        0.0328
     28 C         -18.6058  -10.4304   -8.8974 C.ar    1  UNL1        0.1069
     29 C         -18.8684   -9.3032   -8.1141 C.ar    1  UNL1        0.0186
     30 C         -20.0350   -8.5668   -8.3152 C.ar    1  UNL1        0.0071
     31 C         -20.9582   -8.9460   -9.3003 C.ar    1  UNL1        0.0667
     32 S         -17.1252  -11.3536   -8.6613 S.O2    1  UNL1        0.0105
     33 C         -17.4061  -13.0452   -9.1315 C.3     1  UNL1        0.1816
     34 O         -16.0189  -10.7788   -9.5011 O.2     1  UNL1       -0.1686
     35 O         -16.7165  -11.2915   -7.2163 O.2     1  UNL1       -0.1686
     36 N         -21.6547  -10.4997  -11.1056 N.pl3   1  UNL1       -0.3325
     37 H         -22.5750  -10.0086  -11.1643 H       1  UNL1        0.1468
     38 C         -22.5981  -11.7004  -13.0368 C.3     1  UNL1        0.0229
     39 C         -21.4252  -11.5782  -12.0689 C.3     1  UNL1        0.0871
@<TRIPOS>BOND
     1    38    39    1
     2    39    36    1
     3    36    26    1
     4    26    27   ar
     5    27    28   ar
     6    28    32    1
     7    32    33    1
     8    32    34    2
     9    32    35    2
    10    28    29   ar
    11    29    30   ar
    12    30    31   ar
    13    31     1    1
    14     1     2    2
    15     1     3   am
    16     3     4    1
    17     4     5    1
    18     5     6    1
    19     6     7    1
    20     7     8   ar
    21     8     9   ar
    22     9    10   ar
    23    10    14    1
    24    14    15   ar
    25    15    16   ar
    26    16    24    1
    27    24    25    1
    28    16    17   ar
    29    17    18   ar
    30    18    19   ar
    31    19    20   ar
    32    20    21   ar
    33    21    22   ar
    34    10    11   ar
    35    11    12   ar
    36    12    13    1
    37    31    26   ar
    38    13     3    1
    39    12     7   ar
    40    22    14   ar
    41    21    17   ar
    42    36    37    1
    43    20    23    1
@<TRIPOS>MOLECULE
*****
 39 43 0 0 0
SMALL
GASTEIGER

@<TRIPOS>ATOM
      1 C         -21.8089  -10.4277  -12.8023 C.2     1  UNL1        0.2506
      2 O         -21.6558  -10.8258  -13.9894 O.2     1  UNL1       -0.2699
      3 N         -22.9555   -9.6255  -12.4557 N.am    1  UNL1       -0.2680
      4 C         -23.6195   -9.8177  -11.1619 C.3     1  UNL1        0.1412
      5 C         -23.2669   -8.6737  -10.2127 C.3     1  UNL1        0.2268
      6 O         -23.0305   -7.4584  -10.9211 O.3     1  UNL1       -0.4739
      7 C         -23.9591   -6.9218  -11.8157 C.ar    1  UNL1        0.1362
      8 C         -24.5325   -5.6845  -11.5086 C.ar    1  UNL1        0.0366
      9 C         -25.4902   -5.1171  -12.3485 C.ar    1  UNL1        0.0031
     10 C         -25.8826   -5.7741  -13.5247 C.ar    1  UNL1        0.0001
     11 C         -25.2850   -7.0045  -13.8493 C.ar    1  UNL1        0.0004
     12 C         -24.3257   -7.5939  -13.0070 C.ar    1  UNL1        0.0317
     13 C         -23.6297   -8.8490  -13.5064 C.3     1  UNL1        0.1236
     14 C         -26.9004   -5.1709  -14.4221 C.ar    1  UNL1        0.0045
     15 C         -26.4986   -4.4032  -15.5506 C.ar    1  UNL1        0.0386
     16 C         -27.4593   -3.8197  -16.4133 C.ar    1  UNL1        0.1577
     17 C         -28.8017   -4.0312  -16.1089 C.ar    1  UNL1        0.1323
     18 N         -29.8781   -3.5770  -16.7771 N.ar    1  UNL1       -0.2210
     19 C         -30.9164   -4.0708  -16.0529 C.ar    1  UNL1        0.1751
     20 N         -30.5275   -4.8006  -14.9805 N.ar    1  UNL1       -0.3348
     21 C         -29.1908   -4.7658  -15.0318 C.ar    1  UNL1        0.0787
     22 C         -28.2792   -5.3542  -14.1617 C.ar    1  UNL1        0.0187
     23 H         -31.1339   -5.2787  -14.2776 H       1  UNL1        0.1675
     24 O         -27.1174   -3.0553  -17.5382 O.3     1  UNL1       -0.4699
     25 C         -27.3338   -3.4711  -18.8823 C.3     1  UNL1        0.2525
     26 C         -20.3402  -12.1110  -11.6242 C.ar    1  UNL1        0.0503
     27 C         -19.3264  -12.3717  -10.6807 C.ar    1  UNL1        0.0328
     28 C         -18.7662  -11.3357   -9.9240 C.ar    1  UNL1        0.1069
     29 C         -19.2087  -10.0232  -10.1110 C.ar    1  UNL1        0.0186
     30 C         -20.2114   -9.7478  -11.0396 C.ar    1  UNL1        0.0071
     31 C         -20.7889  -10.7790  -11.7943 C.ar    1  UNL1        0.0667
     32 S         -17.4870  -11.6878   -8.7665 S.O2    1  UNL1        0.0105
     33 C         -17.8072  -10.8125   -7.2524 C.3     1  UNL1        0.1816
     34 O         -17.4342  -13.1640   -8.4886 O.2     1  UNL1       -0.1686
     35 O         -16.1627  -11.2551   -9.3305 O.2     1  UNL1       -0.1686
     36 N         -20.9485  -13.1875  -12.3705 N.pl3   1  UNL1       -0.3325
     37 H         -21.8470  -13.5967  -12.0290 H       1  UNL1        0.1468
     38 C         -21.5007  -14.0048  -14.6263 C.3     1  UNL1        0.0229
     39 C         -20.3973  -13.7540  -13.6030 C.3     1  UNL1        0.0871
@<TRIPOS>BOND
     1    38    39    1
     2    39    36    1
     3    36    26    1
     4    26    27   ar
     5    27    28   ar
     6    28    32    1
     7    32    33    1
     8    32    34    2
     9    32    35    2
    10    28    29   ar
    11    29    30   ar
    12    30    31   ar
    13    31     1    1
    14     1     2    2
    15     1     3   am
    16     3     4    1
    17     4     5    1
    18     5     6    1
    19     6     7    1
    20     7     8   ar
    21     8     9   ar
    22     9    10   ar
    23    10    14    1
    24    14    15   ar
    25    15    16   ar
    26    16    24    1
    27    24    25    1
    28    16    17   ar
    29    17    18   ar
    30    18    19   ar
    31    19    20   ar
    32    20    21   ar
    33    21    22   ar
    34    10    11   ar
    35    11    12   ar
    36    12    13    1
    37    31    26   ar
    38    13     3    1
    39    12     7   ar
    40    22    14   ar
    41    21    17   ar
    42    36    37    1
    43    20    23    1
@<TRIPOS>MOLECULE
*****
 39 43 0 0 0
SMALL
GASTEIGER

@<TRIPOS>ATOM
      1 C         -21.0217   -7.8737  -11.7793 C.2     1  UNL1        0.2506
      2 O         -20.1801   -7.6346  -12.6879 O.2     1  UNL1       -0.2699
      3 N         -22.4321   -7.8084  -12.0711 N.am    1  UNL1       -0.2680
      4 C         -23.3519   -8.7732  -11.4588 C.3     1  UNL1        0.1412
      5 C         -24.1496   -8.1051  -10.3402 C.3     1  UNL1        0.2268
      6 O         -24.3567   -6.7180  -10.6000 O.3     1  UNL1       -0.4739
      7 C         -24.9301   -6.2572  -11.7873 C.ar    1  UNL1        0.1362
      8 C         -26.1603   -5.5975  -11.7133 C.ar    1  UNL1        0.0366
      9 C         -26.7950   -5.1461  -12.8700 C.ar    1  UNL1        0.0031
     10 C         -26.2000   -5.3345  -14.1268 C.ar    1  UNL1        0.0001
     11 C         -24.9491   -5.9717  -14.1994 C.ar    1  UNL1        0.0004
     12 C         -24.3019   -6.4416  -13.0428 C.ar    1  UNL1        0.0317
     13 C         -22.8921   -6.9865  -13.1999 C.3     1  UNL1        0.1236
     14 C         -26.8728   -4.8525  -15.3598 C.ar    1  UNL1        0.0045
     15 C         -26.2019   -4.9093  -16.6133 C.ar    1  UNL1        0.0386
     16 C         -26.8311   -4.4503  -17.7969 C.ar    1  UNL1        0.1577
     17 C         -28.1241   -3.9467  -17.6778 C.ar    1  UNL1        0.1323
     18 N         -28.9093   -3.4569  -18.6549 N.ar    1  UNL1       -0.2210
     19 C         -30.0424   -3.1105  -17.9897 C.ar    1  UNL1        0.1751
     20 N         -29.9867   -3.3639  -16.6605 N.ar    1  UNL1       -0.3348
     21 C         -28.7702   -3.8919  -16.4816 C.ar    1  UNL1        0.0787
     22 C         -28.1871   -4.3320  -15.2982 C.ar    1  UNL1        0.0187
     23 H         -30.7248   -3.1866  -15.9436 H       1  UNL1        0.1675
     24 O         -26.2155   -4.4841  -19.0565 O.3     1  UNL1       -0.4699
     25 C         -25.4555   -5.5843  -19.5447 C.3     1  UNL1        0.2525
     26 C         -19.8937   -9.4244  -10.1358 C.ar    1  UNL1        0.0503
     27 C         -19.4063   -9.6488   -8.8327 C.ar    1  UNL1        0.0328
     28 C         -19.5485   -8.6765   -7.8357 C.ar    1  UNL1        0.1069
     29 C         -20.1727   -7.4625   -8.1354 C.ar    1  UNL1        0.0186
     30 C         -20.6613   -7.2243   -9.4192 C.ar    1  UNL1        0.0071
     31 C         -20.5359   -8.1958  -10.4228 C.ar    1  UNL1        0.0667
     32 S         -18.9123   -8.9760   -6.2215 S.O2    1  UNL1        0.0105
     33 C         -17.9251   -7.5878   -5.7119 C.3     1  UNL1        0.1816
     34 O         -20.0420   -9.1694   -5.2489 O.2     1  UNL1       -0.1686
     35 O         -18.0682  -10.2195   -6.2343 O.2     1  UNL1       -0.1686
     36 N         -19.7867  -10.4469  -11.1502 N.pl3   1  UNL1       -0.3325
     37 H         -19.1077  -10.3151  -11.9332 H       1  UNL1        0.1468
     38 C         -21.3522  -11.8242  -12.4591 C.3     1  UNL1        0.0229
     39 C         -20.5648  -11.6871  -11.1596 C.3     1  UNL1        0.0871
@<TRIPOS>BOND
     1    38    39    1
     2    39    36    1
     3    36    26    1
     4    26    27   ar
     5    27    28   ar
     6    28    32    1
     7    32    33    1
     8    32    34    2
     9    32    35    2
    10    28    29   ar
    11    29    30   ar
    12    30    31   ar
    13    31     1    1
    14     1     2    2
    15     1     3   am
    16     3     4    1
    17     4     5    1
    18     5     6    1
    19     6     7    1
    20     7     8   ar
    21     8     9   ar
    22     9    10   ar
    23    10    14    1
    24    14    15   ar
    25    15    16   ar
    26    16    24    1
    27    24    25    1
    28    16    17   ar
    29    17    18   ar
    30    18    19   ar
    31    19    20   ar
    32    20    21   ar
    33    21    22   ar
    34    10    11   ar
    35    11    12   ar
    36    12    13    1
    37    31    26   ar
    38    13     3    1
    39    12     7   ar
    40    22    14   ar
    41    21    17   ar
    42    36    37    1
    43    20    23    1
@<TRIPOS>MOLECULE
*****
 39 43 0 0 0
SMALL
GASTEIGER

@<TRIPOS>ATOM
      1 C         -21.0161   -7.6940  -11.6258 C.2     1  UNL1        0.2506
      2 O         -20.2429   -7.2365  -12.5112 O.2     1  UNL1       -0.2699
      3 N         -22.4319   -7.7812  -11.8838 N.am    1  UNL1       -0.2680
      4 C         -23.1984   -8.9269  -11.3820 C.3     1  UNL1        0.1412
      5 C         -24.0387   -8.5119  -10.1755 C.3     1  UNL1        0.2268
      6 O         -24.4321   -7.1432  -10.2561 O.3     1  UNL1       -0.4739
      7 C         -25.0990   -6.6212  -11.3666 C.ar    1  UNL1        0.1362
      8 C         -26.4012   -6.1444  -11.1902 C.ar    1  UNL1        0.0366
      9 C         -27.1268   -5.6433  -12.2706 C.ar    1  UNL1        0.0031
     10 C         -26.5540   -5.5966  -13.5508 C.ar    1  UNL1        0.0001
     11 C         -25.2342   -6.0486  -13.7233 C.ar    1  UNL1        0.0004
     12 C         -24.4939   -6.5661  -12.6456 C.ar    1  UNL1        0.0317
     13 C         -23.0313   -6.8960  -12.8930 C.3     1  UNL1        0.1236
     14 C         -27.3237   -5.0612  -14.7024 C.ar    1  UNL1        0.0045
     15 C         -28.7463   -5.0670  -14.6807 C.ar    1  UNL1        0.0386
     16 C         -29.4929   -4.5618  -15.7739 C.ar    1  UNL1        0.1577
     17 C         -28.7767   -4.0636  -16.8594 C.ar    1  UNL1        0.1323
     18 N         -29.2673   -3.5410  -17.9985 N.ar    1  UNL1       -0.2210
     19 C         -28.1450   -3.2242  -18.6960 C.ar    1  UNL1        0.1751
     20 N         -26.9991   -3.5269  -18.0408 N.ar    1  UNL1       -0.3348
     21 C         -27.4164   -4.0545  -16.8840 C.ar    1  UNL1        0.0787
     22 C         -26.6481   -4.5411  -15.8318 C.ar    1  UNL1        0.0187
     23 H         -26.0178   -3.3809  -18.3665 H       1  UNL1        0.1675
     24 O         -30.8948   -4.5436  -15.8033 O.3     1  UNL1       -0.4699
     25 C         -31.7084   -4.0018  -14.7685 C.3     1  UNL1        0.2525
     26 C         -19.8392   -9.3784  -10.1575 C.ar    1  UNL1        0.0503
     27 C         -19.2696   -9.6958   -8.9082 C.ar    1  UNL1        0.0328
     28 C         -19.2992   -8.7780   -7.8516 C.ar    1  UNL1        0.1069
     29 C         -19.8920   -7.5260   -8.0375 C.ar    1  UNL1        0.0186
     30 C         -20.4609   -7.1960   -9.2668 C.ar    1  UNL1        0.0071
     31 C         -20.4483   -8.1119  -10.3286 C.ar    1  UNL1        0.0667
     32 S         -18.5622   -9.1939   -6.3077 S.O2    1  UNL1        0.0105
     33 C         -19.7595   -8.9859   -5.0098 C.3     1  UNL1        0.1816
     34 O         -18.0908  -10.6210   -6.3284 O.2     1  UNL1       -0.1686
     35 O         -17.3814   -8.2991   -6.0547 O.2     1  UNL1       -0.1686
     36 N         -19.8479  -10.3440  -11.2315 N.pl3   1  UNL1       -0.3325
     37 H         -19.3831  -10.1014  -12.1352 H       1  UNL1        0.1468
     38 C         -21.2272  -11.9986  -12.4236 C.3     1  UNL1        0.0229
     39 C         -20.4608  -11.6709  -11.1457 C.3     1  UNL1        0.0871
@<TRIPOS>BOND
     1    38    39    1
     2    39    36    1
     3    36    26    1
     4    26    27   ar
     5    27    28   ar
     6    28    32    1
     7    32    33    1
     8    32    34    2
     9    32    35    2
    10    28    29   ar
    11    29    30   ar
    12    30    31   ar
    13    31     1    1
    14     1     2    2
    15     1     3   am
    16     3     4    1
    17     4     5    1
    18     5     6    1
    19     6     7    1
    20     7     8   ar
    21     8     9   ar
    22     9    10   ar
    23    10    14    1
    24    14    15   ar
    25    15    16   ar
    26    16    24    1
    27    24    25    1
    28    16    17   ar
    29    17    18   ar
    30    18    19   ar
    31    19    20   ar
    32    20    21   ar
    33    21    22   ar
    34    10    11   ar
    35    11    12   ar
    36    12    13    1
    37    31    26   ar
    38    13     3    1
    39    12     7   ar
    40    22    14   ar
    41    21    17   ar
    42    36    37    1
    43    20    23    1
@<TRIPOS>MOLECULE
*****
 39 43 0 0 0
SMALL
GASTEIGER

@<TRIPOS>ATOM
      1 C         -26.0397   -8.0435  -10.9880 C.2     1  UNL1        0.2506
      2 O         -26.5225   -8.1627   -9.8288 O.2     1  UNL1       -0.2699
      3 N         -24.7565   -8.6244  -11.2952 N.am    1  UNL1       -0.2680
      4 C         -24.5250   -9.2360  -12.6083 C.3     1  UNL1        0.1412
      5 C         -23.6604   -8.3194  -13.4722 C.3     1  UNL1        0.2268
      6 O         -22.7627   -7.5447  -12.6794 O.3     1  UNL1       -0.4739
      7 C         -21.8828   -8.1253  -11.7634 C.ar    1  UNL1        0.1362
      8 C         -20.5101   -7.9952  -11.9935 C.ar    1  UNL1        0.0366
      9 C         -19.5861   -8.5833  -11.1304 C.ar    1  UNL1        0.0031
     10 C         -20.0211   -9.3035  -10.0074 C.ar    1  UNL1        0.0001
     11 C         -21.4007   -9.4100   -9.7590 C.ar    1  UNL1        0.0004
     12 C         -22.3444   -8.8313  -10.6260 C.ar    1  UNL1        0.0317
     13 C         -23.8035   -8.8727  -10.2036 C.3     1  UNL1        0.1236
     14 C         -19.0392   -9.9286   -9.0853 C.ar    1  UNL1        0.0045
     15 C         -18.1639  -10.9487   -9.5519 C.ar    1  UNL1        0.0386
     16 C         -17.2243  -11.5554   -8.6821 C.ar    1  UNL1        0.1577
     17 C         -17.1968  -11.1107   -7.3626 C.ar    1  UNL1        0.1323
     18 N         -16.3987  -11.5383   -6.3669 N.ar    1  UNL1       -0.2210
     19 C         -16.7939  -10.7780   -5.3124 C.ar    1  UNL1        0.1751
     20 N         -17.7897   -9.9115   -5.6150 N.ar    1  UNL1       -0.3348
     21 C         -18.0306  -10.1344   -6.9123 C.ar    1  UNL1        0.0787
     22 C         -18.9662   -9.5150   -7.7340 C.ar    1  UNL1        0.0187
     23 H         -18.2590   -9.2285   -4.9797 H       1  UNL1        0.1675
     24 O         -16.3392  -12.5636   -9.0906 O.3     1  UNL1       -0.4699
     25 C         -14.9704  -12.3425   -9.4127 C.3     1  UNL1        0.2525
     26 C         -26.4620   -5.9538  -12.3420 C.ar    1  UNL1        0.0503
     27 C         -27.1931   -5.3046  -13.3569 C.ar    1  UNL1        0.0328
     28 C         -28.2334   -5.9616  -14.0246 C.ar    1  UNL1        0.1069
     29 C         -28.5473   -7.2817  -13.6898 C.ar    1  UNL1        0.0186
     30 C         -27.8346   -7.9386  -12.6877 C.ar    1  UNL1        0.0071
     31 C         -26.7988   -7.2865  -12.0032 C.ar    1  UNL1        0.0667
     32 S         -29.1170   -5.1327  -15.3022 S.O2    1  UNL1        0.0105
     33 C         -27.9613   -4.3505  -16.4040 C.3     1  UNL1        0.1816
     34 O         -29.9543   -6.1153  -16.0721 O.2     1  UNL1       -0.1686
     35 O         -30.0221   -4.0955  -14.6990 O.2     1  UNL1       -0.1686
     36 N         -25.4198   -5.2587  -11.6232 N.pl3   1  UNL1       -0.3325
     37 H         -25.5667   -5.0275  -10.6150 H       1  UNL1        0.1468
     38 C         -23.0484   -4.8035  -11.1432 C.3     1  UNL1        0.0229
     39 C         -24.1397   -4.8550  -12.2081 C.3     1  UNL1        0.0871
@<TRIPOS>BOND
     1    38    39    1
     2    39    36    1
     3    36    26    1
     4    26    27   ar
     5    27    28   ar
     6    28    32    1
     7    32    33    1
     8    32    34    2
     9    32    35    2
    10    28    29   ar
    11    29    30   ar
    12    30    31   ar
    13    31     1    1
    14     1     2    2
    15     1     3   am
    16     3     4    1
    17     4     5    1
    18     5     6    1
    19     6     7    1
    20     7     8   ar
    21     8     9   ar
    22     9    10   ar
    23    10    14    1
    24    14    15   ar
    25    15    16   ar
    26    16    24    1
    27    24    25    1
    28    16    17   ar
    29    17    18   ar
    30    18    19   ar
    31    19    20   ar
    32    20    21   ar
    33    21    22   ar
    34    10    11   ar
    35    11    12   ar
    36    12    13    1
    37    31    26   ar
    38    13     3    1
    39    12     7   ar
    40    22    14   ar
    41    21    17   ar
    42    36    37    1
    43    20    23    1
