@<TRIPOS>MOLECULE
*****
 47 52 0 0 0
SMALL
GASTEIGER

@<TRIPOS>ATOM
      1 C         -61.7122  -46.9044  -27.2335 C.ar    1  UNL1        0.0702
      2 C         -60.4382  -46.6458  -27.7519 C.ar    1  UNL1        0.0191
      3 C         -60.1629  -45.4265  -28.3730 C.ar    1  UNL1        0.0356
      4 C         -61.1766  -44.4588  -28.4863 C.ar    1  UNL1        0.1318
      5 N         -62.4154  -44.7464  -27.9958 N.ar    1  UNL1       -0.2279
      6 C         -62.7070  -45.9269  -27.3896 C.ar    1  UNL1        0.1149
      7 N         -60.9310  -43.1786  -29.1145 N.pl3   1  UNL1       -0.2932
      8 C         -61.0668  -43.0185  -30.5686 C.3     1  UNL1        0.0923
      9 C         -62.1486  -41.9785  -30.8901 C.3     1  UNL1        0.0252
     10 C         -62.1615  -40.7669  -29.9117 C.3     1  UNL1        0.0472
     11 C         -60.8556  -40.6854  -29.0881 C.3     1  UNL1        0.0252
     12 C         -60.5920  -41.9900  -28.3122 C.3     1  UNL1        0.0923
     13 C         -63.3937  -40.7459  -28.9788 C.3     1  UNL1        0.2054
     14 O         -63.3247  -41.7840  -27.9970 O.3     1  UNL1       -0.4755
     15 C         -63.5370  -41.6393  -26.6132 C.ar    1  UNL1        0.1388
     16 C         -62.6504  -42.2896  -25.7481 C.ar    1  UNL1        0.0369
     17 C         -62.8030  -42.1872  -24.3647 C.ar    1  UNL1        0.0033
     18 C         -63.8511  -41.4378  -23.8279 C.ar    1  UNL1        0.0066
     19 C         -64.7606  -40.7803  -24.6730 C.ar    1  UNL1        0.0785
     20 C         -64.5862  -40.8683  -26.0661 C.ar    1  UNL1        0.0433
     21 C         -65.8761  -39.9953  -24.0933 C.2     1  UNL1        0.3381
     22 O         -66.7711  -40.5778  -23.4249 O.2     1  UNL1       -0.2451
     23 O         -65.9784  -38.6185  -24.2879 O.3     1  UNL1       -0.4771
     24 H         -65.3467  -38.1045  -24.8886 H       1  UNL1        0.2954
     25 C         -61.7883  -48.4637  -25.2276 C.2     1  UNL1        0.2839
     26 O         -61.1193  -47.6768  -24.5059 O.2     1  UNL1       -0.2665
     27 N         -61.9868  -48.1771  -26.6219 N.am    1  UNL1       -0.2766
     28 H         -62.2731  -48.9646  -27.2467 H       1  UNL1        0.1553
     29 C         -64.8669  -49.3472  -25.1321 C.3     1  UNL1        0.0345
     30 C         -63.6788  -50.0954  -24.6062 C.ar    1  UNL1        0.0202
     31 C         -62.3356  -49.7056  -24.6495 C.ar    1  UNL1        0.1946
     32 O         -61.5782  -50.6295  -24.0851 O.2     1  UNL1       -0.4492
     33 C         -62.3613  -51.5980  -23.6770 C.ar    1  UNL1        0.1452
     34 C         -61.9869  -52.7691  -23.0278 C.ar    1  UNL1        0.0375
     35 C         -62.9974  -53.6801  -22.6745 C.ar    1  UNL1        0.0031
     36 C         -64.3599  -53.4089  -22.9738 C.ar    1  UNL1        0.0002
     37 C         -64.6984  -52.2048  -23.6366 C.ar    1  UNL1        0.0028
     38 C         -63.6696  -51.3233  -23.9727 C.ar    1  UNL1        0.0337
     39 C         -65.4188  -54.3788  -22.5955 C.ar    1  UNL1       -0.0000
     40 C         -65.0959  -55.5500  -21.8887 C.ar    1  UNL1       -0.0003
     41 C         -66.0925  -56.4620  -21.5317 C.ar    1  UNL1       -0.0043
     42 C         -67.4359  -56.2237  -21.8746 C.ar    1  UNL1       -0.0225
     43 C         -67.7581  -55.0532  -22.5813 C.ar    1  UNL1       -0.0043
     44 C         -66.7613  -54.1407  -22.9373 C.ar    1  UNL1       -0.0003
     45 C         -68.5282  -57.2056  -21.4937 C.3     1  UNL1        0.0224
     46 C         -69.6816  -57.1677  -22.5032 C.3     1  UNL1        0.0047
     47 C         -69.0328  -56.9460  -20.0693 C.3     1  UNL1        0.0047
@<TRIPOS>BOND
     1    29    30    1
     2    30    31   ar
     3    31    25    1
     4    25    26    2
     5    25    27   am
     6    27     1    1
     7     1     2   ar
     8     2     3   ar
     9     3     4   ar
    10     4     7    1
    11     7     8    1
    12     8     9    1
    13     9    10    1
    14    10    13    1
    15    13    14    1
    16    14    15    1
    17    15    16   ar
    18    16    17   ar
    19    17    18   ar
    20    18    19   ar
    21    19    21    1
    22    21    22    2
    23    21    23    1
    24    19    20   ar
    25    10    11    1
    26    11    12    1
    27     4     5   ar
    28     5     6   ar
    29    31    32   ar
    30    32    33   ar
    31    33    34   ar
    32    34    35   ar
    33    35    36   ar
    34    36    39    1
    35    39    40   ar
    36    40    41   ar
    37    41    42   ar
    38    42    45    1
    39    45    46    1
    40    45    47    1
    41    42    43   ar
    42    43    44   ar
    43    36    37   ar
    44    37    38   ar
    45    38    30   ar
    46     6     1   ar
    47    38    33   ar
    48    12     7    1
    49    44    39   ar
    50    20    15   ar
    51    27    28    1
    52    23    24    1
@<TRIPOS>MOLECULE
*****
 47 52 0 0 0
SMALL
GASTEIGER

@<TRIPOS>ATOM
      1 C         -62.1838  -41.6135  -20.4902 C.ar    1  UNL1        0.0702
      2 C         -60.7956  -41.5805  -20.6650 C.ar    1  UNL1        0.0191
      3 C         -60.1186  -42.6995  -21.1527 C.ar    1  UNL1        0.0356
      4 C         -60.8371  -43.8686  -21.4590 C.ar    1  UNL1        0.1318
      5 N         -62.1848  -43.8823  -21.2552 N.ar    1  UNL1       -0.2279
      6 C         -62.8644  -42.8062  -20.7795 C.ar    1  UNL1        0.1149
      7 N         -60.1756  -45.0475  -21.9753 N.pl3   1  UNL1       -0.2932
      8 C         -60.7043  -46.3886  -21.6918 C.3     1  UNL1        0.0923
      9 C         -61.0769  -47.1004  -22.9993 C.3     1  UNL1        0.0252
     10 C         -60.0840  -46.8237  -24.1668 C.3     1  UNL1        0.0472
     11 C         -58.7544  -46.2238  -23.6542 C.3     1  UNL1        0.0252
     12 C         -58.9891  -44.9360  -22.8419 C.3     1  UNL1        0.0923
     13 C         -60.6832  -45.9395  -25.2841 C.3     1  UNL1        0.2054
     14 O         -61.8106  -45.1947  -24.8143 O.3     1  UNL1       -0.4755
     15 C         -62.2838  -43.9774  -25.3387 C.ar    1  UNL1        0.1388
     16 C         -62.0243  -43.7056  -26.6863 C.ar    1  UNL1        0.0369
     17 C         -62.4659  -42.5173  -27.2700 C.ar    1  UNL1        0.0033
     18 C         -63.1673  -41.5803  -26.5095 C.ar    1  UNL1        0.0066
     19 C         -63.4355  -41.8237  -25.1522 C.ar    1  UNL1        0.0785
     20 C         -63.0084  -43.0343  -24.5770 C.ar    1  UNL1        0.0433
     21 C         -64.1723  -40.8180  -24.3507 C.2     1  UNL1        0.3381
     22 O         -64.4682  -41.0670  -23.1518 O.2     1  UNL1       -0.2451
     23 O         -64.5731  -39.5998  -24.8977 O.3     1  UNL1       -0.4771
     24 H         -64.4490  -39.3746  -25.8765 H       1  UNL1        0.2954
     25 C         -62.6733  -39.1197  -20.4404 C.2     1  UNL1        0.2839
     26 O         -61.7043  -38.8464  -21.1980 O.2     1  UNL1       -0.2665
     27 N         -62.8619  -40.4610  -19.9599 N.am    1  UNL1       -0.2766
     28 H         -63.4694  -40.5985  -19.1205 H       1  UNL1        0.1553
     29 C         -65.8752  -39.1837  -20.5456 C.3     1  UNL1        0.0345
     30 C         -64.9933  -38.0751  -20.0546 C.ar    1  UNL1        0.0202
     31 C         -63.5949  -38.0509  -20.0109 C.ar    1  UNL1        0.1946
     32 O         -63.1778  -36.9008  -19.5121 O.2     1  UNL1       -0.4492
     33 C         -64.2338  -36.1772  -19.2310 C.ar    1  UNL1        0.1452
     34 C         -64.2597  -34.8968  -18.6897 C.ar    1  UNL1        0.0375
     35 C         -65.5124  -34.2989  -18.4681 C.ar    1  UNL1        0.0031
     36 C         -66.7144  -34.9859  -18.7888 C.ar    1  UNL1        0.0002
     37 C         -66.6438  -36.2887  -19.3378 C.ar    1  UNL1        0.0028
     38 C         -65.3834  -36.8517  -19.5443 C.ar    1  UNL1        0.0337
     39 C         -68.0321  -34.3440  -18.5504 C.ar    1  UNL1       -0.0000
     40 C         -68.1418  -33.2329  -17.6967 C.ar    1  UNL1       -0.0003
     41 C         -69.3816  -32.6282  -17.4734 C.ar    1  UNL1       -0.0043
     42 C         -70.5410  -33.1221  -18.0986 C.ar    1  UNL1       -0.0225
     43 C         -70.4308  -34.2327  -18.9515 C.ar    1  UNL1       -0.0043
     44 C         -69.1906  -34.8367  -19.1755 C.ar    1  UNL1       -0.0003
     45 C         -71.8937  -32.4756  -17.8649 C.3     1  UNL1        0.0224
     46 C         -72.0843  -32.1118  -16.3877 C.3     1  UNL1        0.0047
     47 C         -73.0303  -33.3762  -18.3626 C.3     1  UNL1        0.0047
@<TRIPOS>BOND
     1    29    30    1
     2    30    31   ar
     3    31    25    1
     4    25    26    2
     5    25    27   am
     6    27     1    1
     7     1     2   ar
     8     2     3   ar
     9     3     4   ar
    10     4     7    1
    11     7     8    1
    12     8     9    1
    13     9    10    1
    14    10    13    1
    15    13    14    1
    16    14    15    1
    17    15    16   ar
    18    16    17   ar
    19    17    18   ar
    20    18    19   ar
    21    19    21    1
    22    21    22    2
    23    21    23    1
    24    19    20   ar
    25    10    11    1
    26    11    12    1
    27     4     5   ar
    28     5     6   ar
    29    31    32   ar
    30    32    33   ar
    31    33    34   ar
    32    34    35   ar
    33    35    36   ar
    34    36    39    1
    35    39    40   ar
    36    40    41   ar
    37    41    42   ar
    38    42    45    1
    39    45    46    1
    40    45    47    1
    41    42    43   ar
    42    43    44   ar
    43    36    37   ar
    44    37    38   ar
    45    38    30   ar
    46     6     1   ar
    47    38    33   ar
    48    12     7    1
    49    44    39   ar
    50    20    15   ar
    51    27    28    1
    52    23    24    1
@<TRIPOS>MOLECULE
*****
 47 52 0 0 0
SMALL
GASTEIGER

@<TRIPOS>ATOM
      1 C         -62.1549  -41.7120  -20.3505 C.ar    1  UNL1        0.0702
      2 C         -62.9102  -42.7202  -20.9603 C.ar    1  UNL1        0.0191
      3 C         -62.2854  -43.8581  -21.4732 C.ar    1  UNL1        0.0356
      4 C         -60.8878  -43.9842  -21.3847 C.ar    1  UNL1        0.1318
      5 N         -60.1738  -42.9759  -20.8090 N.ar    1  UNL1       -0.2279
      6 C         -60.7599  -41.8585  -20.3052 C.ar    1  UNL1        0.1149
      7 N         -60.2015  -45.1513  -21.8953 N.pl3   1  UNL1       -0.2932
      8 C         -60.7119  -46.5013  -21.6204 C.3     1  UNL1        0.0923
      9 C         -61.0577  -47.2163  -22.9335 C.3     1  UNL1        0.0252
     10 C         -60.0558  -46.9215  -24.0887 C.3     1  UNL1        0.0472
     11 C         -58.7421  -46.3014  -23.5595 C.3     1  UNL1        0.0252
     12 C         -59.0069  -45.0191  -22.7477 C.3     1  UNL1        0.0923
     13 C         -60.6561  -46.0447  -25.2114 C.3     1  UNL1        0.2054
     14 O         -62.0258  -46.3754  -25.4581 O.3     1  UNL1       -0.4755
     15 C         -62.6643  -46.4050  -26.7120 C.ar    1  UNL1        0.1388
     16 C         -62.8532  -45.1871  -27.3740 C.ar    1  UNL1        0.0369
     17 C         -63.4786  -45.1450  -28.6209 C.ar    1  UNL1        0.0033
     18 C         -63.9309  -46.3222  -29.2192 C.ar    1  UNL1        0.0066
     19 C         -63.7610  -47.5584  -28.5738 C.ar    1  UNL1        0.0785
     20 C         -63.1082  -47.5957  -27.3282 C.ar    1  UNL1        0.0433
     21 C         -64.2538  -48.8016  -29.2127 C.2     1  UNL1        0.3381
     22 O         -63.7882  -49.9164  -28.8558 O.2     1  UNL1       -0.2451
     23 O         -65.2114  -48.7719  -30.2257 O.3     1  UNL1       -0.4771
     24 H         -65.5587  -47.9080  -30.6222 H       1  UNL1        0.2954
     25 C         -62.6546  -39.2206  -20.4169 C.2     1  UNL1        0.2839
     26 O         -61.7261  -38.9882  -21.2364 O.2     1  UNL1       -0.2665
     27 N         -62.8118  -40.5331  -19.8527 N.am    1  UNL1       -0.2766
     28 H         -63.3758  -40.6243  -18.9775 H       1  UNL1        0.1553
     29 C         -65.8584  -39.2653  -20.4470 C.3     1  UNL1        0.0345
     30 C         -64.9584  -38.1472  -20.0137 C.ar    1  UNL1        0.0202
     31 C         -63.5592  -38.1316  -20.0026 C.ar    1  UNL1        0.1946
     32 O         -63.1235  -36.9684  -19.5523 O.2     1  UNL1       -0.4492
     33 C         -64.1682  -36.2284  -19.2716 C.ar    1  UNL1        0.1452
     34 C         -64.1735  -34.9304  -18.7731 C.ar    1  UNL1        0.0375
     35 C         -65.4170  -34.3166  -18.5433 C.ar    1  UNL1        0.0031
     36 C         -66.6304  -35.0053  -18.8133 C.ar    1  UNL1        0.0002
     37 C         -66.5806  -36.3262  -19.3198 C.ar    1  UNL1        0.0028
     38 C         -65.3289  -36.9047  -19.5359 C.ar    1  UNL1        0.0337
     39 C         -67.9381  -34.3464  -18.5667 C.ar    1  UNL1       -0.0000
     40 C         -68.0217  -33.2089  -17.7454 C.ar    1  UNL1       -0.0003
     41 C         -69.2522  -32.5883  -17.5144 C.ar    1  UNL1       -0.0043
     42 C         -70.4282  -33.0923  -18.0992 C.ar    1  UNL1       -0.0225
     43 C         -70.3441  -34.2293  -18.9197 C.ar    1  UNL1       -0.0043
     44 C         -69.1133  -34.8492  -19.1515 C.ar    1  UNL1       -0.0003
     45 C         -71.7710  -32.4287  -17.8566 C.3     1  UNL1        0.0224
     46 C         -71.9712  -32.1143  -16.3694 C.3     1  UNL1        0.0047
     47 C         -72.9187  -33.2891  -18.3982 C.3     1  UNL1        0.0047
@<TRIPOS>BOND
     1    29    30    1
     2    30    31   ar
     3    31    25    1
     4    25    26    2
     5    25    27   am
     6    27     1    1
     7     1     2   ar
     8     2     3   ar
     9     3     4   ar
    10     4     7    1
    11     7     8    1
    12     8     9    1
    13     9    10    1
    14    10    13    1
    15    13    14    1
    16    14    15    1
    17    15    16   ar
    18    16    17   ar
    19    17    18   ar
    20    18    19   ar
    21    19    21    1
    22    21    22    2
    23    21    23    1
    24    19    20   ar
    25    10    11    1
    26    11    12    1
    27     4     5   ar
    28     5     6   ar
    29    31    32   ar
    30    32    33   ar
    31    33    34   ar
    32    34    35   ar
    33    35    36   ar
    34    36    39    1
    35    39    40   ar
    36    40    41   ar
    37    41    42   ar
    38    42    45    1
    39    45    46    1
    40    45    47    1
    41    42    43   ar
    42    43    44   ar
    43    36    37   ar
    44    37    38   ar
    45    38    30   ar
    46     6     1   ar
    47    38    33   ar
    48    12     7    1
    49    44    39   ar
    50    20    15   ar
    51    27    28    1
    52    23    24    1
@<TRIPOS>MOLECULE
*****
 47 52 0 0 0
SMALL
GASTEIGER

@<TRIPOS>ATOM
      1 C         -62.1932  -41.6509  -20.5838 C.ar    1  UNL1        0.0702
      2 C         -60.7951  -41.7070  -20.5556 C.ar    1  UNL1        0.0191
      3 C         -60.1232  -42.8241  -21.0545 C.ar    1  UNL1        0.0356
      4 C         -60.8586  -43.9022  -21.5778 C.ar    1  UNL1        0.1318
      5 N         -62.2199  -43.8326  -21.5696 N.ar    1  UNL1       -0.2279
      6 C         -62.8953  -42.7568  -21.0873 C.ar    1  UNL1        0.1149
      7 N         -60.2014  -45.0750  -22.1132 N.pl3   1  UNL1       -0.2932
      8 C         -60.6951  -46.4218  -21.7955 C.3     1  UNL1        0.0923
      9 C         -61.1134  -47.1510  -23.0793 C.3     1  UNL1        0.0252
     10 C         -60.1776  -46.8690  -24.2919 C.3     1  UNL1        0.0472
     11 C         -58.8367  -46.2434  -23.8436 C.3     1  UNL1        0.0252
     12 C         -59.0562  -44.9523  -23.0323 C.3     1  UNL1        0.0923
     13 C         -60.8399  -46.0044  -25.3888 C.3     1  UNL1        0.2054
     14 O         -60.1718  -46.1507  -26.6452 O.3     1  UNL1       -0.4755
     15 C         -60.5646  -45.5805  -27.8705 C.ar    1  UNL1        0.1388
     16 C         -61.8828  -45.1255  -27.9827 C.ar    1  UNL1        0.0369
     17 C         -62.3375  -44.5489  -29.1696 C.ar    1  UNL1        0.0033
     18 C         -61.4799  -44.4270  -30.2640 C.ar    1  UNL1        0.0066
     19 C         -60.1534  -44.8820  -30.1819 C.ar    1  UNL1        0.0785
     20 C         -59.6952  -45.4400  -28.9745 C.ar    1  UNL1        0.0433
     21 C         -59.2535  -44.7572  -31.3529 C.2     1  UNL1        0.3381
     22 O         -59.6197  -44.0890  -32.3561 O.2     1  UNL1       -0.2451
     23 O         -58.0087  -45.3844  -31.3873 O.3     1  UNL1       -0.4771
     24 H         -57.6927  -46.0089  -30.6564 H       1  UNL1        0.2954
     25 C         -62.6461  -39.1522  -20.4719 C.2     1  UNL1        0.2839
     26 O         -61.6490  -38.8715  -21.1894 O.2     1  UNL1       -0.2665
     27 N         -62.8705  -40.5044  -20.0397 N.am    1  UNL1       -0.2766
     28 H         -63.5068  -40.6576  -19.2247 H       1  UNL1        0.1553
     29 C         -65.8484  -39.2113  -20.5673 C.3     1  UNL1        0.0345
     30 C         -64.9633  -38.1043  -20.0783 C.ar    1  UNL1        0.0202
     31 C         -63.5647  -38.0823  -20.0389 C.ar    1  UNL1        0.1946
     32 O         -63.1443  -36.9331  -19.5406 O.2     1  UNL1       -0.4492
     33 C         -64.1984  -36.2081  -19.2557 C.ar    1  UNL1        0.1452
     34 C         -64.2206  -34.9280  -18.7136 C.ar    1  UNL1        0.0375
     35 C         -65.4718  -34.3284  -18.4877 C.ar    1  UNL1        0.0031
     36 C         -66.6758  -35.0133  -18.8052 C.ar    1  UNL1        0.0002
     37 C         -66.6088  -36.3159  -19.3552 C.ar    1  UNL1        0.0028
     38 C         -65.3499  -36.8807  -19.5659 C.ar    1  UNL1        0.0337
     39 C         -67.9918  -34.3696  -18.5623 C.ar    1  UNL1       -0.0000
     40 C         -69.1635  -34.9041  -19.1251 C.ar    1  UNL1       -0.0003
     41 C         -70.4020  -34.2990  -18.8956 C.ar    1  UNL1       -0.0043
     42 C         -70.4966  -33.1440  -18.0981 C.ar    1  UNL1       -0.0225
     43 C         -69.3252  -32.6101  -17.5361 C.ar    1  UNL1       -0.0043
     44 C         -68.0869  -33.2160  -17.7649 C.ar    1  UNL1       -0.0003
     45 C         -71.8347  -32.4764  -17.8409 C.3     1  UNL1        0.0224
     46 C         -71.9960  -32.1149  -16.3596 C.3     1  UNL1        0.0047
     47 C         -72.9936  -33.3568  -18.3234 C.3     1  UNL1        0.0047
@<TRIPOS>BOND
     1    29    30    1
     2    30    31   ar
     3    31    25    1
     4    25    26    2
     5    25    27   am
     6    27     1    1
     7     1     2   ar
     8     2     3   ar
     9     3     4   ar
    10     4     7    1
    11     7     8    1
    12     8     9    1
    13     9    10    1
    14    10    13    1
    15    13    14    1
    16    14    15    1
    17    15    16   ar
    18    16    17   ar
    19    17    18   ar
    20    18    19   ar
    21    19    21    1
    22    21    22    2
    23    21    23    1
    24    19    20   ar
    25    10    11    1
    26    11    12    1
    27     4     5   ar
    28     5     6   ar
    29    31    32   ar
    30    32    33   ar
    31    33    34   ar
    32    34    35   ar
    33    35    36   ar
    34    36    39    1
    35    39    40   ar
    36    40    41   ar
    37    41    42   ar
    38    42    45    1
    39    45    46    1
    40    45    47    1
    41    42    43   ar
    42    43    44   ar
    43    36    37   ar
    44    37    38   ar
    45    38    30   ar
    46     6     1   ar
    47    38    33   ar
    48    12     7    1
    49    44    39   ar
    50    20    15   ar
    51    27    28    1
    52    23    24    1
@<TRIPOS>MOLECULE
*****
 47 52 0 0 0
SMALL
GASTEIGER

@<TRIPOS>ATOM
      1 C         -62.1231  -41.7650  -20.4779 C.ar    1  UNL1        0.0702
      2 C         -60.7482  -41.7170  -20.7350 C.ar    1  UNL1        0.0191
      3 C         -60.0773  -42.8485  -21.2016 C.ar    1  UNL1        0.0356
      4 C         -60.7878  -44.0450  -21.4032 C.ar    1  UNL1        0.1318
      5 N         -62.1210  -44.0713  -21.1206 N.ar    1  UNL1       -0.2279
      6 C         -62.7944  -42.9834  -20.6635 C.ar    1  UNL1        0.1149
      7 N         -60.1327  -45.2381  -21.8943 N.pl3   1  UNL1       -0.2932
      8 C         -60.7310  -46.5631  -21.6823 C.3     1  UNL1        0.0923
      9 C         -61.0281  -47.2339  -23.0302 C.3     1  UNL1        0.0252
     10 C         -59.9387  -46.9728  -24.1122 C.3     1  UNL1        0.0472
     11 C         -58.6312  -46.4351  -23.4864 C.3     1  UNL1        0.0252
     12 C         -58.8797  -45.1555  -22.6653 C.3     1  UNL1        0.0923
     13 C         -60.4170  -46.0441  -25.2515 C.3     1  UNL1        0.2054
     14 O         -61.7349  -45.5464  -25.0028 O.3     1  UNL1       -0.4755
     15 C         -62.2304  -44.2796  -25.3638 C.ar    1  UNL1        0.1388
     16 C         -62.4092  -43.3372  -24.3454 C.ar    1  UNL1        0.0369
     17 C         -62.8962  -42.0616  -24.6344 C.ar    1  UNL1        0.0033
     18 C         -63.2185  -41.7143  -25.9473 C.ar    1  UNL1        0.0066
     19 C         -63.0559  -42.6431  -26.9886 C.ar    1  UNL1        0.0785
     20 C         -62.5418  -43.9188  -26.6933 C.ar    1  UNL1        0.0433
     21 C         -63.4105  -42.2680  -28.3780 C.2     1  UNL1        0.3381
     22 O         -62.5078  -41.9083  -29.1796 O.2     1  UNL1       -0.2451
     23 O         -64.7320  -42.2787  -28.8224 O.3     1  UNL1       -0.4771
     24 H         -65.5126  -42.4681  -28.2069 H       1  UNL1        0.2954
     25 C         -62.5845  -39.2653  -20.4673 C.2     1  UNL1        0.2839
     26 O         -61.6045  -39.0134  -21.2182 O.2     1  UNL1       -0.2665
     27 N         -62.7934  -40.5977  -19.9705 N.am    1  UNL1       -0.2766
     28 H         -63.4111  -40.7167  -19.1358 H       1  UNL1        0.1553
     29 C         -65.7875  -39.3526  -20.4539 C.3     1  UNL1        0.0345
     30 C         -64.8969  -38.2146  -20.0542 C.ar    1  UNL1        0.0202
     31 C         -63.4981  -38.1804  -20.0621 C.ar    1  UNL1        0.1946
     32 O         -63.0721  -37.0030  -19.6401 O.2     1  UNL1       -0.4492
     33 C         -64.1228  -36.2714  -19.3599 C.ar    1  UNL1        0.1452
     34 C         -64.1390  -34.9642  -18.8865 C.ar    1  UNL1        0.0375
     35 C         -65.3875  -34.3624  -18.6521 C.ar    1  UNL1        0.0031
     36 C         -66.5949  -35.0720  -18.8926 C.ar    1  UNL1        0.0002
     37 C         -66.5342  -36.4018  -19.3741 C.ar    1  UNL1        0.0028
     38 C         -65.2777  -36.9680  -19.5956 C.ar    1  UNL1        0.0337
     39 C         -67.9081  -34.4257  -18.6414 C.ar    1  UNL1       -0.0000
     40 C         -69.0677  -34.8890  -19.2864 C.ar    1  UNL1       -0.0003
     41 C         -70.3035  -34.2816  -19.0490 C.ar    1  UNL1       -0.0043
     42 C         -70.4076  -33.1954  -18.1612 C.ar    1  UNL1       -0.0225
     43 C         -69.2483  -32.7326  -17.5170 C.ar    1  UNL1       -0.0043
     44 C         -68.0126  -33.3409  -17.7537 C.ar    1  UNL1       -0.0003
     45 C         -71.7429  -32.5261  -17.8943 C.3     1  UNL1        0.0224
     46 C         -71.8681  -32.1095  -16.4241 C.3     1  UNL1        0.0047
     47 C         -72.9081  -33.4307  -18.3127 C.3     1  UNL1        0.0047
@<TRIPOS>BOND
     1    29    30    1
     2    30    31   ar
     3    31    25    1
     4    25    26    2
     5    25    27   am
     6    27     1    1
     7     1     2   ar
     8     2     3   ar
     9     3     4   ar
    10     4     7    1
    11     7     8    1
    12     8     9    1
    13     9    10    1
    14    10    13    1
    15    13    14    1
    16    14    15    1
    17    15    16   ar
    18    16    17   ar
    19    17    18   ar
    20    18    19   ar
    21    19    21    1
    22    21    22    2
    23    21    23    1
    24    19    20   ar
    25    10    11    1
    26    11    12    1
    27     4     5   ar
    28     5     6   ar
    29    31    32   ar
    30    32    33   ar
    31    33    34   ar
    32    34    35   ar
    33    35    36   ar
    34    36    39    1
    35    39    40   ar
    36    40    41   ar
    37    41    42   ar
    38    42    45    1
    39    45    46    1
    40    45    47    1
    41    42    43   ar
    42    43    44   ar
    43    36    37   ar
    44    37    38   ar
    45    38    30   ar
    46     6     1   ar
    47    38    33   ar
    48    12     7    1
    49    44    39   ar
    50    20    15   ar
    51    27    28    1
    52    23    24    1
@<TRIPOS>MOLECULE
*****
 47 52 0 0 0
SMALL
GASTEIGER

@<TRIPOS>ATOM
      1 C         -62.9504  -42.5288  -22.3005 C.ar    1  UNL1        0.0702
      2 C         -62.7975  -43.7658  -21.6640 C.ar    1  UNL1        0.0191
      3 C         -62.2557  -44.8521  -22.3529 C.ar    1  UNL1        0.0356
      4 C         -61.8723  -44.7023  -23.6973 C.ar    1  UNL1        0.1318
      5 N         -62.0559  -43.4939  -24.3007 N.ar    1  UNL1       -0.2279
      6 C         -62.5832  -42.4235  -23.6509 C.ar    1  UNL1        0.1149
      7 N         -61.2983  -45.8000  -24.4452 N.pl3   1  UNL1       -0.2932
      8 C         -62.0343  -47.0607  -24.6104 C.3     1  UNL1        0.0923
      9 C         -62.2903  -47.3357  -26.0983 C.3     1  UNL1        0.0252
     10 C         -61.1018  -46.9354  -27.0217 C.3     1  UNL1        0.0472
     11 C         -59.8005  -46.7204  -26.2149 C.3     1  UNL1        0.0252
     12 C         -59.9880  -45.6674  -25.1062 C.3     1  UNL1        0.0923
     13 C         -61.4013  -45.7039  -27.9066 C.3     1  UNL1        0.2054
     14 O         -60.2582  -45.3228  -28.6776 O.3     1  UNL1       -0.4755
     15 C         -60.2650  -44.8564  -30.0055 C.ar    1  UNL1        0.1388
     16 C         -59.1072  -45.0470  -30.7673 C.ar    1  UNL1        0.0369
     17 C         -59.0470  -44.6095  -32.0912 C.ar    1  UNL1        0.0033
     18 C         -60.1436  -43.9674  -32.6686 C.ar    1  UNL1        0.0066
     19 C         -61.3164  -43.7561  -31.9247 C.ar    1  UNL1        0.0785
     20 C         -61.3784  -44.2214  -30.5986 C.ar    1  UNL1        0.0433
     21 C         -62.4718  -43.0644  -32.5438 C.2     1  UNL1        0.3381
     22 O         -63.3062  -42.4640  -31.8155 O.2     1  UNL1       -0.2451
     23 O         -62.6782  -43.0787  -33.9226 O.3     1  UNL1       -0.4771
     24 H         -62.0997  -43.6170  -34.5548 H       1  UNL1        0.2954
     25 C         -62.8096  -40.2660  -21.1511 C.2     1  UNL1        0.2839
     26 O         -61.5496  -40.2653  -21.1594 O.2     1  UNL1       -0.2665
     27 N         -63.5367  -41.4276  -21.5843 N.am    1  UNL1       -0.2766
     28 H         -64.5364  -41.5153  -21.2922 H       1  UNL1        0.1553
     29 C         -65.9872  -39.9414  -20.8965 C.3     1  UNL1        0.0345
     30 C         -64.9292  -38.9398  -20.5423 C.ar    1  UNL1        0.0202
     31 C         -63.5421  -39.0854  -20.6556 C.ar    1  UNL1        0.1946
     32 O         -62.9368  -37.9858  -20.2432 O.2     1  UNL1       -0.4492
     33 C         -63.8601  -37.1340  -19.8691 C.ar    1  UNL1        0.1452
     34 C         -63.6713  -35.8504  -19.3693 C.ar    1  UNL1        0.0375
     35 C         -64.8103  -35.1005  -19.0285 C.ar    1  UNL1        0.0031
     36 C         -66.1142  -35.6416  -19.1912 C.ar    1  UNL1        0.0002
     37 C         -66.2625  -36.9530  -19.7030 C.ar    1  UNL1        0.0028
     38 C         -65.1100  -37.6690  -20.0307 C.ar    1  UNL1        0.0337
     39 C         -67.3102  -34.8398  -18.8279 C.ar    1  UNL1       -0.0000
     40 C         -67.2135  -33.7964  -17.8912 C.ar    1  UNL1       -0.0003
     41 C         -68.3387  -33.0412  -17.5503 C.ar    1  UNL1       -0.0043
     42 C         -69.5874  -33.3132  -18.1382 C.ar    1  UNL1       -0.0225
     43 C         -69.6835  -34.3563  -19.0740 C.ar    1  UNL1       -0.0043
     44 C         -68.5579  -35.1108  -19.4157 C.ar    1  UNL1       -0.0003
     45 C         -70.8174  -32.5015  -17.7771 C.3     1  UNL1        0.0224
     46 C         -70.8301  -32.1521  -16.2842 C.3     1  UNL1        0.0047
     47 C         -72.1019  -33.2336  -18.1833 C.3     1  UNL1        0.0047
@<TRIPOS>BOND
     1    29    30    1
     2    30    31   ar
     3    31    25    1
     4    25    26    2
     5    25    27   am
     6    27     1    1
     7     1     2   ar
     8     2     3   ar
     9     3     4   ar
    10     4     7    1
    11     7     8    1
    12     8     9    1
    13     9    10    1
    14    10    13    1
    15    13    14    1
    16    14    15    1
    17    15    16   ar
    18    16    17   ar
    19    17    18   ar
    20    18    19   ar
    21    19    21    1
    22    21    22    2
    23    21    23    1
    24    19    20   ar
    25    10    11    1
    26    11    12    1
    27     4     5   ar
    28     5     6   ar
    29    31    32   ar
    30    32    33   ar
    31    33    34   ar
    32    34    35   ar
    33    35    36   ar
    34    36    39    1
    35    39    40   ar
    36    40    41   ar
    37    41    42   ar
    38    42    45    1
    39    45    46    1
    40    45    47    1
    41    42    43   ar
    42    43    44   ar
    43    36    37   ar
    44    37    38   ar
    45    38    30   ar
    46     6     1   ar
    47    38    33   ar
    48    12     7    1
    49    44    39   ar
    50    20    15   ar
    51    27    28    1
    52    23    24    1
@<TRIPOS>MOLECULE
*****
 47 52 0 0 0
SMALL
GASTEIGER

@<TRIPOS>ATOM
      1 C         -62.4917  -41.6732  -21.3613 C.ar    1  UNL1        0.0702
      2 C         -61.7386  -42.5759  -20.6019 C.ar    1  UNL1        0.0191
      3 C         -61.0916  -43.6485  -21.2175 C.ar    1  UNL1        0.0356
      4 C         -61.2079  -43.8266  -22.6074 C.ar    1  UNL1        0.1318
      5 N         -61.9685  -42.9477  -23.3195 N.ar    1  UNL1       -0.2279
      6 C         -62.6090  -41.8980  -22.7417 C.ar    1  UNL1        0.1149
      7 N         -60.5461  -44.9197  -23.2863 N.pl3   1  UNL1       -0.2932
      8 C         -59.1022  -45.1383  -23.1248 C.3     1  UNL1        0.0923
      9 C         -58.8393  -46.5200  -22.5109 C.3     1  UNL1        0.0252
     10 C         -59.7986  -47.6296  -23.0343 C.3     1  UNL1        0.0472
     11 C         -60.5311  -47.1887  -24.3225 C.3     1  UNL1        0.0252
     12 C         -61.3064  -45.8741  -24.1124 C.3     1  UNL1        0.0923
     13 C         -60.8120  -48.1141  -21.9725 C.3     1  UNL1        0.2054
     14 O         -60.5813  -49.4794  -21.6132 O.3     1  UNL1       -0.4755
     15 C         -60.8667  -50.6096  -22.4019 C.ar    1  UNL1        0.1388
     16 C         -59.7955  -51.2442  -23.0400 C.ar    1  UNL1        0.0369
     17 C         -60.0082  -52.3704  -23.8362 C.ar    1  UNL1        0.0033
     18 C         -61.2988  -52.8725  -24.0111 C.ar    1  UNL1        0.0066
     19 C         -62.3939  -52.2509  -23.3883 C.ar    1  UNL1        0.0785
     20 C         -62.1688  -51.1307  -22.5678 C.ar    1  UNL1        0.0433
     21 C         -63.7616  -52.7858  -23.5884 C.2     1  UNL1        0.3381
     22 O         -64.4440  -52.4069  -24.5771 O.2     1  UNL1       -0.2451
     23 O         -64.3310  -53.6885  -22.6912 O.3     1  UNL1       -0.4771
     24 H         -63.8747  -53.9628  -21.8306 H       1  UNL1        0.2954
     25 C         -62.7168  -39.2275  -20.7064 C.2     1  UNL1        0.2839
     26 O         -61.5442  -38.9514  -21.0756 O.2     1  UNL1       -0.2665
     27 N         -63.1752  -40.5897  -20.7071 N.am    1  UNL1       -0.2766
     28 H         -64.0149  -40.8229  -20.1301 H       1  UNL1        0.1553
     29 C         -65.9205  -39.2220  -20.7711 C.3     1  UNL1        0.0345
     30 C         -65.0092  -38.1477  -20.2578 C.ar    1  UNL1        0.0202
     31 C         -63.6102  -38.1538  -20.2319 C.ar    1  UNL1        0.1946
     32 O         -63.1627  -37.0286  -19.7033 O.2     1  UNL1       -0.4492
     33 C         -64.1996  -36.2925  -19.3859 C.ar    1  UNL1        0.1452
     34 C         -64.1917  -35.0293  -18.8050 C.ar    1  UNL1        0.0375
     35 C         -65.4286  -34.4129  -18.5485 C.ar    1  UNL1        0.0031
     36 C         -66.6488  -35.0645  -18.8744 C.ar    1  UNL1        0.0002
     37 C         -66.6125  -36.3508  -19.4643 C.ar    1  UNL1        0.0028
     38 C         -65.3670  -36.9330  -19.7047 C.ar    1  UNL1        0.0337
     39 C         -67.9495  -34.4033  -18.5989 C.ar    1  UNL1       -0.0000
     40 C         -69.1280  -34.8602  -19.2137 C.ar    1  UNL1       -0.0003
     41 C         -70.3521  -34.2387  -18.9534 C.ar    1  UNL1       -0.0043
     42 C         -70.4255  -33.1445  -18.0724 C.ar    1  UNL1       -0.0225
     43 C         -69.2474  -32.6880  -17.4585 C.ar    1  UNL1       -0.0043
     44 C         -68.0234  -33.3104  -17.7180 C.ar    1  UNL1       -0.0003
     45 C         -71.7479  -32.4599  -17.7810 C.3     1  UNL1        0.0224
     46 C         -71.8726  -32.1095  -16.2935 C.3     1  UNL1        0.0047
     47 C         -72.9295  -33.3190  -18.2465 C.3     1  UNL1        0.0047
@<TRIPOS>BOND
     1    29    30    1
     2    30    31   ar
     3    31    25    1
     4    25    26    2
     5    25    27   am
     6    27     1    1
     7     1     2   ar
     8     2     3   ar
     9     3     4   ar
    10     4     7    1
    11     7     8    1
    12     8     9    1
    13     9    10    1
    14    10    13    1
    15    13    14    1
    16    14    15    1
    17    15    16   ar
    18    16    17   ar
    19    17    18   ar
    20    18    19   ar
    21    19    21    1
    22    21    22    2
    23    21    23    1
    24    19    20   ar
    25    10    11    1
    26    11    12    1
    27     4     5   ar
    28     5     6   ar
    29    31    32   ar
    30    32    33   ar
    31    33    34   ar
    32    34    35   ar
    33    35    36   ar
    34    36    39    1
    35    39    40   ar
    36    40    41   ar
    37    41    42   ar
    38    42    45    1
    39    45    46    1
    40    45    47    1
    41    42    43   ar
    42    43    44   ar
    43    36    37   ar
    44    37    38   ar
    45    38    30   ar
    46     6     1   ar
    47    38    33   ar
    48    12     7    1
    49    44    39   ar
    50    20    15   ar
    51    27    28    1
    52    23    24    1
@<TRIPOS>MOLECULE
*****
 47 52 0 0 0
SMALL
GASTEIGER

@<TRIPOS>ATOM
      1 C         -62.1998  -41.5742  -20.4314 C.ar    1  UNL1        0.0702
      2 C         -60.8027  -41.5928  -20.5114 C.ar    1  UNL1        0.0191
      3 C         -60.1379  -42.7237  -20.9881 C.ar    1  UNL1        0.0356
      4 C         -60.8785  -43.8530  -21.3793 C.ar    1  UNL1        0.1318
      5 N         -62.2365  -43.8175  -21.2670 N.ar    1  UNL1       -0.2279
      6 C         -62.9048  -42.7291  -20.8038 C.ar    1  UNL1        0.1149
      7 N         -60.2294  -45.0423  -21.8875 N.pl3   1  UNL1       -0.2932
      8 C         -60.8141  -46.3708  -21.6602 C.3     1  UNL1        0.0923
      9 C         -61.1423  -47.0433  -23.0000 C.3     1  UNL1        0.0252
     10 C         -60.0831  -46.7758  -24.1100 C.3     1  UNL1        0.0472
     11 C         -58.7629  -46.2304  -23.5184 C.3     1  UNL1        0.0252
     12 C         -58.9974  -44.9523  -22.6909 C.3     1  UNL1        0.0923
     13 C         -60.5964  -45.8499  -25.2363 C.3     1  UNL1        0.2054
     14 O         -61.9971  -46.0296  -25.4641 O.3     1  UNL1       -0.4755
     15 C         -62.5900  -46.6071  -26.6025 C.ar    1  UNL1        0.1388
     16 C         -62.7874  -47.9921  -26.6007 C.ar    1  UNL1        0.0369
     17 C         -63.3709  -48.6287  -27.6971 C.ar    1  UNL1        0.0033
     18 C         -63.7580  -47.8875  -28.8147 C.ar    1  UNL1        0.0066
     19 C         -63.5650  -46.4964  -28.8467 C.ar    1  UNL1        0.0785
     20 C         -62.9984  -45.8584  -27.7282 C.ar    1  UNL1        0.0433
     21 C         -63.9702  -45.7196  -30.0422 C.2     1  UNL1        0.3381
     22 O         -63.1820  -44.8681  -30.5328 O.2     1  UNL1       -0.2451
     23 O         -65.2219  -45.8883  -30.6327 O.3     1  UNL1       -0.4771
     24 H         -65.9354  -46.4866  -30.2364 H       1  UNL1        0.2954
     25 C         -62.7313  -39.0886  -20.4574 C.2     1  UNL1        0.2839
     26 O         -61.8124  -38.8325  -21.2807 O.2     1  UNL1       -0.2665
     27 N         -62.8674  -40.4110  -19.9112 N.am    1  UNL1       -0.2766
     28 H         -63.4232  -40.5221  -19.0330 H       1  UNL1        0.1553
     29 C         -65.9344  -39.1526  -20.5140 C.3     1  UNL1        0.0345
     30 C         -65.0450  -38.0413  -20.0427 C.ar    1  UNL1        0.0202
     31 C         -63.6461  -38.0172  -20.0202 C.ar    1  UNL1        0.1946
     32 O         -63.2214  -36.8643  -19.5342 O.2     1  UNL1       -0.4492
     33 C         -64.2730  -36.1390  -19.2413 C.ar    1  UNL1        0.1452
     34 C         -64.2906  -34.8554  -18.7070 C.ar    1  UNL1        0.0375
     35 C         -65.5398  -34.2561  -18.4700 C.ar    1  UNL1        0.0031
     36 C         -66.7465  -34.9446  -18.7686 C.ar    1  UNL1        0.0002
     37 C         -66.6843  -36.2506  -19.3112 C.ar    1  UNL1        0.0028
     38 C         -65.4273  -36.8150  -19.5334 C.ar    1  UNL1        0.0337
     39 C         -68.0604  -34.3011  -18.5141 C.ar    1  UNL1       -0.0000
     40 C         -69.2304  -34.8062  -19.1069 C.ar    1  UNL1       -0.0003
     41 C         -70.4669  -34.2014  -18.8664 C.ar    1  UNL1       -0.0043
     42 C         -70.5613  -33.0761  -18.0276 C.ar    1  UNL1       -0.0225
     43 C         -69.3917  -32.5715  -17.4355 C.ar    1  UNL1       -0.0043
     44 C         -68.1553  -33.1772  -17.6753 C.ar    1  UNL1       -0.0003
     45 C         -71.8973  -32.4092  -17.7579 C.3     1  UNL1        0.0224
     46 C         -72.0742  -32.1105  -16.2645 C.3     1  UNL1        0.0047
     47 C         -73.0568  -33.2583  -18.2920 C.3     1  UNL1        0.0047
@<TRIPOS>BOND
     1    29    30    1
     2    30    31   ar
     3    31    25    1
     4    25    26    2
     5    25    27   am
     6    27     1    1
     7     1     2   ar
     8     2     3   ar
     9     3     4   ar
    10     4     7    1
    11     7     8    1
    12     8     9    1
    13     9    10    1
    14    10    13    1
    15    13    14    1
    16    14    15    1
    17    15    16   ar
    18    16    17   ar
    19    17    18   ar
    20    18    19   ar
    21    19    21    1
    22    21    22    2
    23    21    23    1
    24    19    20   ar
    25    10    11    1
    26    11    12    1
    27     4     5   ar
    28     5     6   ar
    29    31    32   ar
    30    32    33   ar
    31    33    34   ar
    32    34    35   ar
    33    35    36   ar
    34    36    39    1
    35    39    40   ar
    36    40    41   ar
    37    41    42   ar
    38    42    45    1
    39    45    46    1
    40    45    47    1
    41    42    43   ar
    42    43    44   ar
    43    36    37   ar
    44    37    38   ar
    45    38    30   ar
    46     6     1   ar
    47    38    33   ar
    48    12     7    1
    49    44    39   ar
    50    20    15   ar
    51    27    28    1
    52    23    24    1
@<TRIPOS>MOLECULE
*****
 47 52 0 0 0
SMALL
GASTEIGER

@<TRIPOS>ATOM
      1 C         -62.8398  -42.5701  -22.6289 C.ar    1  UNL1        0.0702
      2 C         -62.5885  -43.7852  -21.9815 C.ar    1  UNL1        0.0191
      3 C         -62.0245  -44.8539  -22.6801 C.ar    1  UNL1        0.0356
      4 C         -61.7181  -44.7091  -24.0446 C.ar    1  UNL1        0.1318
      5 N         -61.9967  -43.5235  -24.6568 N.ar    1  UNL1       -0.2279
      6 C         -62.5473  -42.4706  -23.9979 C.ar    1  UNL1        0.1149
      7 N         -61.1242  -45.7886  -24.8035 N.pl3   1  UNL1       -0.2932
      8 C         -61.0404  -47.1431  -24.2407 C.3     1  UNL1        0.0923
      9 C         -61.8220  -48.1318  -25.1164 C.3     1  UNL1        0.0252
     10 C         -61.6929  -47.8523  -26.6430 C.3     1  UNL1        0.0472
     11 C         -60.5132  -46.9015  -26.9507 C.3     1  UNL1        0.0252
     12 C         -60.6377  -45.5746  -26.1779 C.3     1  UNL1        0.0923
     13 C         -62.9974  -47.3227  -27.2812 C.3     1  UNL1        0.2054
     14 O         -62.7926  -46.9293  -28.6413 O.3     1  UNL1       -0.4755
     15 C         -63.3500  -45.8045  -29.2775 C.ar    1  UNL1        0.1388
     16 C         -64.6992  -45.5236  -29.0367 C.ar    1  UNL1        0.0369
     17 C         -65.3142  -44.4229  -29.6351 C.ar    1  UNL1        0.0033
     18 C         -64.5882  -43.5922  -30.4899 C.ar    1  UNL1        0.0066
     19 C         -63.2339  -43.8547  -30.7555 C.ar    1  UNL1        0.0785
     20 C         -62.6143  -44.9518  -30.1298 C.ar    1  UNL1        0.0433
     21 C         -62.4742  -42.9724  -31.6727 C.2     1  UNL1        0.3381
     22 O         -61.4285  -42.3989  -31.2671 O.2     1  UNL1       -0.2451
     23 O         -62.9006  -42.7367  -32.9790 O.3     1  UNL1       -0.4771
     24 H         -63.7777  -43.0912  -33.3384 H       1  UNL1        0.2954
     25 C         -62.7151  -40.4171  -21.2836 C.2     1  UNL1        0.2839
     26 O         -61.4670  -40.5040  -21.1341 O.2     1  UNL1       -0.2665
     27 N         -63.4475  -41.4884  -21.9011 N.am    1  UNL1       -0.2766
     28 H         -64.4803  -41.5279  -21.7448 H       1  UNL1        0.1553
     29 C         -65.8865  -40.0765  -20.9781 C.3     1  UNL1        0.0345
     30 C         -64.8185  -39.0767  -20.6501 C.ar    1  UNL1        0.0202
     31 C         -63.4341  -39.2292  -20.7856 C.ar    1  UNL1        0.1946
     32 O         -62.8173  -38.1289  -20.3924 O.2     1  UNL1       -0.4492
     33 C         -63.7305  -37.2702  -20.0099 C.ar    1  UNL1        0.1452
     34 C         -63.5278  -35.9833  -19.5238 C.ar    1  UNL1        0.0375
     35 C         -64.6577  -35.2257  -19.1701 C.ar    1  UNL1        0.0031
     36 C         -65.9665  -35.7624  -19.3063 C.ar    1  UNL1        0.0002
     37 C         -66.1289  -37.0773  -19.8047 C.ar    1  UNL1        0.0028
     38 C         -64.9852  -37.8010  -20.1460 C.ar    1  UNL1        0.0337
     39 C         -67.1527  -34.9525  -18.9295 C.ar    1  UNL1       -0.0000
     40 C         -67.0527  -33.9531  -17.9462 C.ar    1  UNL1       -0.0003
     41 C         -68.1687  -33.1902  -17.5926 C.ar    1  UNL1       -0.0043
     42 C         -69.4114  -33.4103  -18.2140 C.ar    1  UNL1       -0.0225
     43 C         -69.5109  -34.4094  -19.1964 C.ar    1  UNL1       -0.0043
     44 C         -68.3944  -35.1715  -19.5507 C.ar    1  UNL1       -0.0003
     45 C         -70.6315  -32.5896  -17.8395 C.3     1  UNL1        0.0224
     46 C         -70.5696  -32.1451  -16.3734 C.3     1  UNL1        0.0047
     47 C         -71.9256  -33.3594  -18.1286 C.3     1  UNL1        0.0047
@<TRIPOS>BOND
     1    29    30    1
     2    30    31   ar
     3    31    25    1
     4    25    26    2
     5    25    27   am
     6    27     1    1
     7     1     2   ar
     8     2     3   ar
     9     3     4   ar
    10     4     7    1
    11     7     8    1
    12     8     9    1
    13     9    10    1
    14    10    13    1
    15    13    14    1
    16    14    15    1
    17    15    16   ar
    18    16    17   ar
    19    17    18   ar
    20    18    19   ar
    21    19    21    1
    22    21    22    2
    23    21    23    1
    24    19    20   ar
    25    10    11    1
    26    11    12    1
    27     4     5   ar
    28     5     6   ar
    29    31    32   ar
    30    32    33   ar
    31    33    34   ar
    32    34    35   ar
    33    35    36   ar
    34    36    39    1
    35    39    40   ar
    36    40    41   ar
    37    41    42   ar
    38    42    45    1
    39    45    46    1
    40    45    47    1
    41    42    43   ar
    42    43    44   ar
    43    36    37   ar
    44    37    38   ar
    45    38    30   ar
    46     6     1   ar
    47    38    33   ar
    48    12     7    1
    49    44    39   ar
    50    20    15   ar
    51    27    28    1
    52    23    24    1
