@<TRIPOS>MOLECULE
*****
 41 45 0 0 0
SMALL
GASTEIGER

@<TRIPOS>ATOM
      1 C           9.6056   79.4644   27.8430 C.3     1  UNL1        0.2392
      2 O           8.6208   78.5204   28.2774 O.3     1  UNL1       -0.4694
      3 C           7.8249   77.8246   27.3633 C.ar    1  UNL1        0.1723
      4 C           6.6879   77.1340   27.7878 C.ar    1  UNL1        0.0398
      5 C           5.8857   76.4708   26.8535 C.ar    1  UNL1        0.0026
      6 C           6.2237   76.4841   25.4867 C.ar    1  UNL1        0.0233
      7 C           7.3731   77.1794   25.0701 C.ar    1  UNL1        0.0393
      8 C           8.1787   77.8289   26.0092 C.ar    1  UNL1        0.1725
      9 O           9.3438   78.4908   25.6129 O.3     1  UNL1       -0.4679
     10 C          10.3161   78.9261   26.5695 C.3     1  UNL1        0.2305
     11 C           5.3383   75.8016   24.4710 C.3     1  UNL1        0.2223
     12 O           4.3427   76.7154   24.0069 O.3     1  UNL1       -0.4715
     13 C           3.5635   76.4511   22.8756 C.ar    1  UNL1        0.1478
     14 C           2.4043   77.1966   22.6563 C.ar    1  UNL1        0.0746
     15 C           1.5926   76.9416   21.5374 C.ar    1  UNL1        0.1508
     16 C           1.9556   75.9228   20.6433 C.ar    1  UNL1        0.1026
     17 BR          0.8681   75.5964   19.0955 Br      1  UNL1       -0.0427
     18 C           3.1223   75.1664   20.8582 C.ar    1  UNL1        0.1535
     19 C           3.9493   75.4496   21.9675 C.ar    1  UNL1        0.1057
     20 C           5.2456   74.7624   22.2032 C.2     1  UNL1        0.2095
     21 O           5.6243   73.8208   21.4550 O.2     1  UNL1       -0.2884
     22 C           6.1667   75.2605   23.2908 C.3     1  UNL1        0.2169
     23 O           6.9949   74.2193   23.7438 O.3     1  UNL1       -0.3739
     24 H           7.7546   74.1569   23.1075 H       1  UNL1        0.2110
     25 O           0.4235   77.6771   21.2841 O.3     1  UNL1       -0.4707
     26 C           0.2275   79.0367   21.6589 C.3     1  UNL1        0.2525
     27 O           3.4619   74.1530   19.9590 O.3     1  UNL1       -0.4706
     28 C           4.2554   74.4193   18.8086 C.3     1  UNL1        0.2525
     29 C          11.2117   79.9652   25.9356 C.ar    1  UNL1        0.0241
     30 C          10.7844   81.2958   25.8197 C.ar    1  UNL1        0.0026
     31 C          11.6267   82.2635   25.2706 C.ar    1  UNL1        0.0398
     32 C          12.9210   81.9194   24.8378 C.ar    1  UNL1        0.1724
     33 C          13.3629   80.5929   24.9610 C.ar    1  UNL1        0.1722
     34 C          12.5028   79.6198   25.5059 C.ar    1  UNL1        0.0393
     35 O          13.7981   82.8662   24.2853 O.3     1  UNL1       -0.4684
     36 C          13.5484   84.2673   24.2409 C.3     1  UNL1        0.2526
     37 O          14.6646   80.2823   24.5366 O.3     1  UNL1       -0.4684
     38 C          15.2210   78.9715   24.5338 C.3     1  UNL1        0.2526
     39 C          10.5816   79.7291   28.9981 C.3     1  UNL1        0.1897
     40 C           9.5522   80.1786   31.0108 C.3     1  UNL1        0.1743
     41 O          10.0786   79.1613   30.1898 O.3     1  UNL1       -0.3471
@<TRIPOS>BOND
     1    40    41    1
     2    41    39    1
     3    39     1    1
     4     1     2    1
     5     2     3    1
     6     3     4   ar
     7     4     5   ar
     8     5     6   ar
     9     6    11    1
    10    11    12    1
    11    12    13    1
    12    13    14   ar
    13    14    15   ar
    14    15    25    1
    15    25    26    1
    16    15    16   ar
    17    16    17    1
    18    16    18   ar
    19    18    27    1
    20    27    28    1
    21    18    19   ar
    22    19    20    1
    23    20    21    2
    24    20    22    1
    25    22    23    1
    26     6     7   ar
    27     7     8   ar
    28     8     9    1
    29     9    10    1
    30    10    29    1
    31    29    30   ar
    32    30    31   ar
    33    31    32   ar
    34    32    35    1
    35    35    36    1
    36    32    33   ar
    37    33    37    1
    38    37    38    1
    39    33    34   ar
    40    10     1    1
    41    34    29   ar
    42     8     3   ar
    43    22    11    1
    44    19    13   ar
    45    23    24    1
@<TRIPOS>MOLECULE
*****
 41 45 0 0 0
SMALL
GASTEIGER

@<TRIPOS>ATOM
      1 C           9.9802   75.8029   27.8790 C.3     1  UNL1        0.2392
      2 O          10.1415   75.0222   26.6898 O.3     1  UNL1       -0.4694
      3 C           9.6080   75.4382   25.4669 C.ar    1  UNL1        0.1723
      4 C           9.5163   74.5535   24.3904 C.ar    1  UNL1        0.0398
      5 C           8.9493   74.9790   23.1847 C.ar    1  UNL1        0.0026
      6 C           8.4806   76.2992   23.0441 C.ar    1  UNL1        0.0233
      7 C           8.5811   77.1834   24.1332 C.ar    1  UNL1        0.0393
      8 C           9.1608   76.7574   25.3313 C.ar    1  UNL1        0.1725
      9 O           9.3012   77.6371   26.4077 O.3     1  UNL1       -0.4679
     10 C          10.1232   77.3119   27.5341 C.3     1  UNL1        0.2305
     11 C           7.8327   76.7500   21.7563 C.3     1  UNL1        0.2223
     12 O           6.6301   76.0105   21.5362 O.3     1  UNL1       -0.4715
     13 C           5.6873   76.3967   20.5775 C.ar    1  UNL1        0.1478
     14 C           4.7116   75.4842   20.1742 C.ar    1  UNL1        0.0746
     15 C           3.7619   75.8385   19.2002 C.ar    1  UNL1        0.1508
     16 C           3.8080   77.1199   18.6301 C.ar    1  UNL1        0.1026
     17 BR          2.4906   77.6183   17.3259 Br      1  UNL1       -0.0427
     18 C           4.7892   78.0449   19.0310 C.ar    1  UNL1        0.1535
     19 C           5.7203   77.6923   20.0328 C.ar    1  UNL1        0.1057
     20 C           6.7190   78.6480   20.5778 C.2     1  UNL1        0.2095
     21 O           6.8339   79.8082   20.0975 O.2     1  UNL1       -0.2884
     22 C           7.5395   78.2617   21.7850 C.3     1  UNL1        0.2169
     23 O           8.7534   78.9698   21.7970 O.3     1  UNL1       -0.3739
     24 H           8.5640   79.8610   22.1917 H       1  UNL1        0.2110
     25 O           2.7635   74.9466   18.7765 O.3     1  UNL1       -0.4707
     26 C           1.5160   74.7578   19.4366 C.3     1  UNL1        0.2525
     27 O           4.8207   79.3131   18.4463 O.3     1  UNL1       -0.4706
     28 C           5.5165   79.5496   17.2281 C.3     1  UNL1        0.2525
     29 C           9.7503   78.1995   28.6989 C.ar    1  UNL1        0.0241
     30 C          10.2909   79.4886   28.8112 C.ar    1  UNL1        0.0026
     31 C           9.9161   80.3229   29.8651 C.ar    1  UNL1        0.0398
     32 C           8.9808   79.8865   30.8220 C.ar    1  UNL1        0.1724
     33 C           8.4245   78.6027   30.7115 C.ar    1  UNL1        0.1722
     34 C           8.8163   77.7623   29.6513 C.ar    1  UNL1        0.0393
     35 O           8.5759   80.6993   31.8927 O.3     1  UNL1       -0.4684
     36 C           9.0549   82.0191   32.1293 C.3     1  UNL1        0.2526
     37 O           7.4815   78.2005   31.6709 O.3     1  UNL1       -0.4684
     38 C           6.4189   77.2855   31.4234 C.3     1  UNL1        0.2526
     39 C          11.0048   75.3345   28.9219 C.3     1  UNL1        0.1897
     40 C           9.1128   74.2188   29.6206 C.3     1  UNL1        0.1743
     41 O          10.5212   74.1853   29.5859 O.3     1  UNL1       -0.3471
@<TRIPOS>BOND
     1    40    41    1
     2    41    39    1
     3    39     1    1
     4     1     2    1
     5     2     3    1
     6     3     4   ar
     7     4     5   ar
     8     5     6   ar
     9     6    11    1
    10    11    12    1
    11    12    13    1
    12    13    14   ar
    13    14    15   ar
    14    15    25    1
    15    25    26    1
    16    15    16   ar
    17    16    17    1
    18    16    18   ar
    19    18    27    1
    20    27    28    1
    21    18    19   ar
    22    19    20    1
    23    20    21    2
    24    20    22    1
    25    22    23    1
    26     6     7   ar
    27     7     8   ar
    28     8     9    1
    29     9    10    1
    30    10    29    1
    31    29    30   ar
    32    30    31   ar
    33    31    32   ar
    34    32    35    1
    35    35    36    1
    36    32    33   ar
    37    33    37    1
    38    37    38    1
    39    33    34   ar
    40    10     1    1
    41    34    29   ar
    42     8     3   ar
    43    22    11    1
    44    19    13   ar
    45    23    24    1
@<TRIPOS>MOLECULE
*****
 41 45 0 0 0
SMALL
GASTEIGER

@<TRIPOS>ATOM
      1 C           7.3488   74.7018   29.0248 C.3     1  UNL1        0.2392
      2 O           7.0329   73.6842   28.0686 O.3     1  UNL1       -0.4694
      3 C           6.8870   73.9801   26.7105 C.ar    1  UNL1        0.1723
      4 C           6.3042   73.0587   25.8380 C.ar    1  UNL1        0.0398
      5 C           6.1370   73.3859   24.4884 C.ar    1  UNL1        0.0026
      6 C           6.5642   74.6353   23.9996 C.ar    1  UNL1        0.0233
      7 C           7.1534   75.5547   24.8861 C.ar    1  UNL1        0.0393
      8 C           7.3306   75.2176   26.2307 C.ar    1  UNL1        0.1725
      9 O           7.9493   76.1071   27.1130 O.3     1  UNL1       -0.4679
     10 C           8.3820   75.6886   28.4121 C.3     1  UNL1        0.2305
     11 C           6.3497   75.0065   22.5513 C.3     1  UNL1        0.2223
     12 O           4.9501   75.0609   22.2690 O.3     1  UNL1       -0.4715
     13 C           4.4522   75.6394   21.0966 C.ar    1  UNL1        0.1478
     14 C           3.1353   75.3806   20.7143 C.ar    1  UNL1        0.0746
     15 C           2.6133   75.9342   19.5323 C.ar    1  UNL1        0.1508
     16 C           3.4329   76.7465   18.7339 C.ar    1  UNL1        0.1026
     17 BR          2.7116   77.5326   17.1380 Br      1  UNL1       -0.0427
     18 C           4.7618   77.0112   19.1124 C.ar    1  UNL1        0.1535
     19 C           5.2692   76.4771   20.3175 C.ar    1  UNL1        0.1057
     20 C           6.6267   76.7946   20.8317 C.2     1  UNL1        0.2095
     21 O           7.4263   77.4980   20.1567 O.2     1  UNL1       -0.2884
     22 C           7.0200   76.3530   22.2209 C.3     1  UNL1        0.2169
     23 O           8.4154   76.2116   22.3113 O.3     1  UNL1       -0.3739
     24 H           8.7873   77.1171   22.4770 H       1  UNL1        0.2110
     25 O           1.2911   75.6988   19.1221 O.3     1  UNL1       -0.4707
     26 C           0.6264   74.4434   19.2200 C.3     1  UNL1        0.2525
     27 O           5.5621   77.8178   18.3000 O.3     1  UNL1       -0.4706
     28 C           5.4952   79.2371   18.3704 C.3     1  UNL1        0.2525
     29 C           8.5945   76.9040   29.2847 C.ar    1  UNL1        0.0241
     30 C           9.7872   77.6370   29.2034 C.ar    1  UNL1        0.0026
     31 C           9.9674   78.7822   29.9802 C.ar    1  UNL1        0.0398
     32 C           8.9494   79.2240   30.8459 C.ar    1  UNL1        0.1724
     33 C           7.7470   78.5044   30.9253 C.ar    1  UNL1        0.1722
     34 C           7.5770   77.3433   30.1464 C.ar    1  UNL1        0.0393
     35 O           9.0925   80.3738   31.6386 O.3     1  UNL1       -0.4684
     36 C           9.1650   81.7011   31.1284 C.3     1  UNL1        0.2526
     37 O           6.7428   78.9779   31.7847 O.3     1  UNL1       -0.4684
     38 C           5.3914   78.5295   31.7707 C.3     1  UNL1        0.2526
     39 C           7.8583   74.0335   30.3095 C.3     1  UNL1        0.1897
     40 C           9.5916   72.8503   31.2626 C.3     1  UNL1        0.1743
     41 O           9.1165   73.4366   30.0724 O.3     1  UNL1       -0.3471
@<TRIPOS>BOND
     1    40    41    1
     2    41    39    1
     3    39     1    1
     4     1     2    1
     5     2     3    1
     6     3     4   ar
     7     4     5   ar
     8     5     6   ar
     9     6    11    1
    10    11    12    1
    11    12    13    1
    12    13    14   ar
    13    14    15   ar
    14    15    25    1
    15    25    26    1
    16    15    16   ar
    17    16    17    1
    18    16    18   ar
    19    18    27    1
    20    27    28    1
    21    18    19   ar
    22    19    20    1
    23    20    21    2
    24    20    22    1
    25    22    23    1
    26     6     7   ar
    27     7     8   ar
    28     8     9    1
    29     9    10    1
    30    10    29    1
    31    29    30   ar
    32    30    31   ar
    33    31    32   ar
    34    32    35    1
    35    35    36    1
    36    32    33   ar
    37    33    37    1
    38    37    38    1
    39    33    34   ar
    40    10     1    1
    41    34    29   ar
    42     8     3   ar
    43    22    11    1
    44    19    13   ar
    45    23    24    1
@<TRIPOS>MOLECULE
*****
 41 45 0 0 0
SMALL
GASTEIGER

@<TRIPOS>ATOM
      1 C           6.7158   79.0866   19.9066 C.3     1  UNL1        0.2392
      2 O           7.9531   79.4778   20.5113 O.3     1  UNL1       -0.4694
      3 C           8.3211   79.0208   21.7797 C.ar    1  UNL1        0.1723
      4 C           9.3711   79.6211   22.4777 C.ar    1  UNL1        0.0398
      5 C           9.7033   79.1711   23.7597 C.ar    1  UNL1        0.0026
      6 C           8.9934   78.1068   24.3478 C.ar    1  UNL1        0.0233
      7 C           7.9401   77.5067   23.6348 C.ar    1  UNL1        0.0393
      8 C           7.6210   77.9510   22.3488 C.ar    1  UNL1        0.1725
      9 O           6.6021   77.3379   21.6151 O.3     1  UNL1       -0.4679
     10 C           6.4367   77.5888   20.2152 C.3     1  UNL1        0.2305
     11 C           9.3245   77.6446   25.7471 C.3     1  UNL1        0.2223
     12 O           8.3846   76.6519   26.1627 O.3     1  UNL1       -0.4715
     13 C           8.5996   75.8539   27.2915 C.ar    1  UNL1        0.1478
     14 C           7.5297   75.1450   27.8394 C.ar    1  UNL1        0.0746
     15 C           7.7121   74.3488   28.9834 C.ar    1  UNL1        0.1508
     16 C           8.9822   74.2782   29.5757 C.ar    1  UNL1        0.1026
     17 BR          9.2420   73.1635   31.1169 Br      1  UNL1       -0.0427
     18 C          10.0654   74.9906   29.0295 C.ar    1  UNL1        0.1535
     19 C           9.8814   75.7634   27.8617 C.ar    1  UNL1        0.1057
     20 C          10.9977   76.4603   27.1717 C.2     1  UNL1        0.2095
     21 O          12.1605   76.4603   27.6592 O.2     1  UNL1       -0.2884
     22 C          10.7606   77.0933   25.8216 C.3     1  UNL1        0.2169
     23 O          11.6719   78.1415   25.6073 O.3     1  UNL1       -0.3739
     24 H          12.5152   77.7294   25.2832 H       1  UNL1        0.2110
     25 O           6.6585   73.6182   29.5562 O.3     1  UNL1       -0.4707
     26 C           5.3196   74.0885   29.6736 C.3     1  UNL1        0.2525
     27 O          11.3200   74.9109   29.6384 O.3     1  UNL1       -0.4706
     28 C          12.2642   73.9158   29.2610 C.3     1  UNL1        0.2525
     29 C           5.0476   77.1701   19.7922 C.ar    1  UNL1        0.0241
     30 C           4.8585   76.4063   18.6315 C.ar    1  UNL1        0.0026
     31 C           3.5800   75.9860   18.2624 C.ar    1  UNL1        0.0398
     32 C           2.4651   76.3121   19.0571 C.ar    1  UNL1        0.1724
     33 C           2.6453   77.0656   20.2275 C.ar    1  UNL1        0.1722
     34 C           3.9373   77.4957   20.5874 C.ar    1  UNL1        0.0393
     35 O           1.1651   75.9028   18.7207 O.3     1  UNL1       -0.4684
     36 C           0.6033   74.6400   19.0628 C.3     1  UNL1        0.2526
     37 O           1.5174   77.3617   21.0094 O.3     1  UNL1       -0.4684
     38 C           1.4991   78.3080   22.0732 C.3     1  UNL1        0.2526
     39 C           6.7865   79.3774   18.4009 C.3     1  UNL1        0.1897
     40 C           8.9128   79.2855   17.5162 C.3     1  UNL1        0.1743
     41 O           7.9498   80.1247   18.1115 O.3     1  UNL1       -0.3471
@<TRIPOS>BOND
     1    40    41    1
     2    41    39    1
     3    39     1    1
     4     1     2    1
     5     2     3    1
     6     3     4   ar
     7     4     5   ar
     8     5     6   ar
     9     6    11    1
    10    11    12    1
    11    12    13    1
    12    13    14   ar
    13    14    15   ar
    14    15    25    1
    15    25    26    1
    16    15    16   ar
    17    16    17    1
    18    16    18   ar
    19    18    27    1
    20    27    28    1
    21    18    19   ar
    22    19    20    1
    23    20    21    2
    24    20    22    1
    25    22    23    1
    26     6     7   ar
    27     7     8   ar
    28     8     9    1
    29     9    10    1
    30    10    29    1
    31    29    30   ar
    32    30    31   ar
    33    31    32   ar
    34    32    35    1
    35    35    36    1
    36    32    33   ar
    37    33    37    1
    38    37    38    1
    39    33    34   ar
    40    10     1    1
    41    34    29   ar
    42     8     3   ar
    43    22    11    1
    44    19    13   ar
    45    23    24    1
@<TRIPOS>MOLECULE
*****
 41 45 0 0 0
SMALL
GASTEIGER

@<TRIPOS>ATOM
      1 C           7.6642   75.2289   28.6561 C.3     1  UNL1        0.2392
      2 O           7.2416   74.1570   27.8062 O.3     1  UNL1       -0.4694
      3 C           6.9895   74.3608   26.4468 C.ar    1  UNL1        0.1723
      4 C           6.3107   73.3995   25.6950 C.ar    1  UNL1        0.0398
      5 C           6.0389   73.6357   24.3435 C.ar    1  UNL1        0.0026
      6 C           6.4565   74.8327   23.7310 C.ar    1  UNL1        0.0233
      7 C           7.1427   75.7927   24.4962 C.ar    1  UNL1        0.0393
      8 C           7.4238   75.5460   25.8427 C.ar    1  UNL1        0.1725
      9 O           8.1383   76.4750   26.6036 O.3     1  UNL1       -0.4679
     10 C           8.6679   76.1355   27.8899 C.3     1  UNL1        0.2305
     11 C           6.1304   75.1073   22.2820 C.3     1  UNL1        0.2223
     12 O           4.7131   75.1273   22.1015 O.3     1  UNL1       -0.4715
     13 C           4.1213   75.6233   20.9349 C.ar    1  UNL1        0.1478
     14 C           2.7843   75.3254   20.6685 C.ar    1  UNL1        0.0746
     15 C           2.1681   75.7956   19.4958 C.ar    1  UNL1        0.1508
     16 C           2.9138   76.5642   18.5889 C.ar    1  UNL1        0.1026
     17 BR          2.0648   77.2374   17.0043 Br      1  UNL1       -0.0427
     18 C           4.2623   76.8680   18.8502 C.ar    1  UNL1        0.1535
     19 C           4.8653   76.4184   20.0457 C.ar    1  UNL1        0.1057
     20 C           6.2515   76.7840   20.4366 C.2     1  UNL1        0.2095
     21 O           6.9880   77.4515   19.6609 O.2     1  UNL1       -0.2884
     22 C           6.7527   76.4374   21.8180 C.3     1  UNL1        0.2169
     23 O           8.1531   76.3181   21.8134 O.3     1  UNL1       -0.3739
     24 H           8.5215   77.2366   21.8933 H       1  UNL1        0.2110
     25 O           0.8234   75.5192   19.2006 O.3     1  UNL1       -0.4707
     26 C           0.2693   74.2108   19.1080 C.3     1  UNL1        0.2525
     27 O           4.9878   77.6296   17.9312 O.3     1  UNL1       -0.4706
     28 C           4.9261   79.0509   17.9352 C.3     1  UNL1        0.2525
     29 C           8.9857   77.4020   28.6506 C.ar    1  UNL1        0.0241
     30 C           8.8335   77.4510   30.0437 C.ar    1  UNL1        0.0026
     31 C           9.1646   78.6075   30.7508 C.ar    1  UNL1        0.0398
     32 C           9.6681   79.7358   30.0766 C.ar    1  UNL1        0.1724
     33 C           9.8360   79.6927   28.6838 C.ar    1  UNL1        0.1722
     34 C           9.4889   78.5256   27.9759 C.ar    1  UNL1        0.0393
     35 O          10.0168   80.9147   30.7545 O.3     1  UNL1       -0.4684
     36 C           9.0952   81.7469   31.4513 C.3     1  UNL1        0.2526
     37 O          10.3559   80.8270   28.0401 O.3     1  UNL1       -0.4684
     38 C          10.6097   80.9156   26.6418 C.3     1  UNL1        0.2526
     39 C           8.2624   74.6369   29.9399 C.3     1  UNL1        0.1897
     40 C           6.1647   75.1433   30.7499 C.3     1  UNL1        0.1743
     41 O           7.2253   74.2168   30.8022 O.3     1  UNL1       -0.3471
@<TRIPOS>BOND
     1    40    41    1
     2    41    39    1
     3    39     1    1
     4     1     2    1
     5     2     3    1
     6     3     4   ar
     7     4     5   ar
     8     5     6   ar
     9     6    11    1
    10    11    12    1
    11    12    13    1
    12    13    14   ar
    13    14    15   ar
    14    15    25    1
    15    25    26    1
    16    15    16   ar
    17    16    17    1
    18    16    18   ar
    19    18    27    1
    20    27    28    1
    21    18    19   ar
    22    19    20    1
    23    20    21    2
    24    20    22    1
    25    22    23    1
    26     6     7   ar
    27     7     8   ar
    28     8     9    1
    29     9    10    1
    30    10    29    1
    31    29    30   ar
    32    30    31   ar
    33    31    32   ar
    34    32    35    1
    35    35    36    1
    36    32    33   ar
    37    33    37    1
    38    37    38    1
    39    33    34   ar
    40    10     1    1
    41    34    29   ar
    42     8     3   ar
    43    22    11    1
    44    19    13   ar
    45    23    24    1
@<TRIPOS>MOLECULE
*****
 41 45 0 0 0
SMALL
GASTEIGER

@<TRIPOS>ATOM
      1 C          10.1702   76.0903   27.4878 C.3     1  UNL1        0.2392
      2 O          10.1237   75.3046   26.2919 O.3     1  UNL1       -0.4694
      3 C           9.0689   75.4228   25.3827 C.ar    1  UNL1        0.1723
      4 C           8.8789   74.4675   24.3820 C.ar    1  UNL1        0.0398
      5 C           7.7983   74.5855   23.5018 C.ar    1  UNL1        0.0026
      6 C           6.9060   75.6693   23.6096 C.ar    1  UNL1        0.0233
      7 C           7.1086   76.6279   24.6186 C.ar    1  UNL1        0.0393
      8 C           8.1975   76.5129   25.4869 C.ar    1  UNL1        0.1725
      9 O           8.4315   77.4791   26.4688 O.3     1  UNL1       -0.4679
     10 C           9.6711   77.5307   27.1836 C.3     1  UNL1        0.2305
     11 C           5.7164   75.7783   22.6855 C.3     1  UNL1        0.2223
     12 O           5.9603   76.7848   21.7010 O.3     1  UNL1       -0.4715
     13 C           5.1607   76.9155   20.5606 C.ar    1  UNL1        0.1478
     14 C           5.2282   78.0909   19.8114 C.ar    1  UNL1        0.0746
     15 C           4.4239   78.2574   18.6705 C.ar    1  UNL1        0.1508
     16 C           3.5446   77.2305   18.2943 C.ar    1  UNL1        0.1026
     17 BR          2.4713   77.4408   16.7167 Br      1  UNL1       -0.0427
     18 C           3.4704   76.0431   19.0451 C.ar    1  UNL1        0.1535
     19 C           4.3044   75.8705   20.1719 C.ar    1  UNL1        0.1057
     20 C           4.3541   74.6070   20.9523 C.2     1  UNL1        0.2095
     21 O           3.5759   73.6512   20.6866 O.2     1  UNL1       -0.2884
     22 C           5.4140   74.4265   22.0123 C.3     1  UNL1        0.2169
     23 O           4.9799   73.5101   22.9855 O.3     1  UNL1       -0.3739
     24 H           5.1608   72.6017   22.6278 H       1  UNL1        0.2110
     25 O           4.4718   79.4245   17.8912 O.3     1  UNL1       -0.4707
     26 C           5.6625   80.1426   17.5845 C.3     1  UNL1        0.2525
     27 O           2.5839   75.0361   18.6563 O.3     1  UNL1       -0.4706
     28 C           1.2101   75.0768   19.0237 C.3     1  UNL1        0.2525
     29 C           9.4897   78.3475   28.4421 C.ar    1  UNL1        0.0241
     30 C          10.1024   79.6025   28.5689 C.ar    1  UNL1        0.0026
     31 C           9.9027   80.3742   29.7143 C.ar    1  UNL1        0.0398
     32 C           9.0733   79.9088   30.7518 C.ar    1  UNL1        0.1724
     33 C           8.4454   78.6595   30.6292 C.ar    1  UNL1        0.1722
     34 C           8.6609   77.8816   29.4750 C.ar    1  UNL1        0.0393
     35 O           8.8448   80.6589   31.9163 O.3     1  UNL1       -0.4684
     36 C           9.0440   82.0648   32.0218 C.3     1  UNL1        0.2526
     37 O           7.6104   78.2284   31.6723 O.3     1  UNL1       -0.4684
     38 C           6.4801   77.3792   31.5023 C.3     1  UNL1        0.2526
     39 C          11.6015   76.0646   28.0422 C.3     1  UNL1        0.1897
     40 C          10.5583   74.4620   29.3291 C.3     1  UNL1        0.1743
     41 O          11.7956   74.8971   28.8134 O.3     1  UNL1       -0.3471
@<TRIPOS>BOND
     1    40    41    1
     2    41    39    1
     3    39     1    1
     4     1     2    1
     5     2     3    1
     6     3     4   ar
     7     4     5   ar
     8     5     6   ar
     9     6    11    1
    10    11    12    1
    11    12    13    1
    12    13    14   ar
    13    14    15   ar
    14    15    25    1
    15    25    26    1
    16    15    16   ar
    17    16    17    1
    18    16    18   ar
    19    18    27    1
    20    27    28    1
    21    18    19   ar
    22    19    20    1
    23    20    21    2
    24    20    22    1
    25    22    23    1
    26     6     7   ar
    27     7     8   ar
    28     8     9    1
    29     9    10    1
    30    10    29    1
    31    29    30   ar
    32    30    31   ar
    33    31    32   ar
    34    32    35    1
    35    35    36    1
    36    32    33   ar
    37    33    37    1
    38    37    38    1
    39    33    34   ar
    40    10     1    1
    41    34    29   ar
    42     8     3   ar
    43    22    11    1
    44    19    13   ar
    45    23    24    1
@<TRIPOS>MOLECULE
*****
 41 45 0 0 0
SMALL
GASTEIGER

@<TRIPOS>ATOM
      1 C           7.6091   79.3563   20.0799 C.3     1  UNL1        0.2392
      2 O           8.7203   79.7354   20.8993 O.3     1  UNL1       -0.4694
      3 C           8.8289   79.3053   22.2245 C.ar    1  UNL1        0.1723
      4 C           9.7444   79.9003   23.0951 C.ar    1  UNL1        0.0398
      5 C           9.8155   79.4784   24.4267 C.ar    1  UNL1        0.0026
      6 C           8.9778   78.4476   24.8937 C.ar    1  UNL1        0.0233
      7 C           8.0619   77.8524   24.0077 C.ar    1  UNL1        0.0393
      8 C           8.0042   78.2682   22.6748 C.ar    1  UNL1        0.1725
      9 O           7.1256   77.6587   21.7753 O.3     1  UNL1       -0.4679
     10 C           7.2349   77.8745   20.3641 C.3     1  UNL1        0.2305
     11 C           9.0253   78.0167   26.3406 C.3     1  UNL1        0.2223
     12 O           7.7262   78.1372   26.9232 O.3     1  UNL1       -0.4715
     13 C           7.4104   77.5582   28.1569 C.ar    1  UNL1        0.1478
     14 C           6.2591   77.9705   28.8291 C.ar    1  UNL1        0.0746
     15 C           5.9256   77.4188   30.0782 C.ar    1  UNL1        0.1508
     16 C           6.7672   76.4515   30.6486 C.ar    1  UNL1        0.1026
     17 BR          6.2954   75.6707   32.3376 Br      1  UNL1       -0.0427
     18 C           7.9300   76.0315   29.9773 C.ar    1  UNL1        0.1535
     19 C           8.2416   76.5675   28.7083 C.ar    1  UNL1        0.1057
     20 C           9.3952   76.1001   27.8967 C.2     1  UNL1        0.2095
     21 O          10.2072   75.2513   28.3548 O.2     1  UNL1       -0.2884
     22 C           9.5434   76.5722   26.4702 C.3     1  UNL1        0.2169
     23 O          10.8923   76.5259   26.0784 O.3     1  UNL1       -0.3739
     24 H          11.0817   75.5904   25.8049 H       1  UNL1        0.2110
     25 O           4.7716   77.8068   30.7780 O.3     1  UNL1       -0.4707
     26 C           3.4753   77.2572   30.5658 C.3     1  UNL1        0.2525
     27 O           8.7569   75.0718   30.5658 O.3     1  UNL1       -0.4706
     28 C           8.6058   73.6870   30.2768 C.3     1  UNL1        0.2525
     29 C           5.9396   77.4766   19.6949 C.ar    1  UNL1        0.0241
     30 C           5.2892   78.3618   18.8233 C.ar    1  UNL1        0.0026
     31 C           4.1143   77.9796   18.1746 C.ar    1  UNL1        0.0398
     32 C           3.5736   76.6959   18.3766 C.ar    1  UNL1        0.1724
     33 C           4.2238   75.7979   19.2373 C.ar    1  UNL1        0.1722
     34 C           5.4031   76.1951   19.8970 C.ar    1  UNL1        0.0393
     35 O           2.3968   76.2742   17.7377 O.3     1  UNL1       -0.4684
     36 C           1.2234   75.8372   18.4156 C.3     1  UNL1        0.2526
     37 O           3.6709   74.5185   19.4065 O.3     1  UNL1       -0.4684
     38 C           3.8707   73.6987   20.5535 C.3     1  UNL1        0.2526
     39 C           7.9713   79.6036   18.6087 C.3     1  UNL1        0.1897
     40 C           9.6186   79.3648   17.0144 C.3     1  UNL1        0.1743
     41 O           9.2108   78.9946   18.3116 O.3     1  UNL1       -0.3471
@<TRIPOS>BOND
     1    40    41    1
     2    41    39    1
     3    39     1    1
     4     1     2    1
     5     2     3    1
     6     3     4   ar
     7     4     5   ar
     8     5     6   ar
     9     6    11    1
    10    11    12    1
    11    12    13    1
    12    13    14   ar
    13    14    15   ar
    14    15    25    1
    15    25    26    1
    16    15    16   ar
    17    16    17    1
    18    16    18   ar
    19    18    27    1
    20    27    28    1
    21    18    19   ar
    22    19    20    1
    23    20    21    2
    24    20    22    1
    25    22    23    1
    26     6     7   ar
    27     7     8   ar
    28     8     9    1
    29     9    10    1
    30    10    29    1
    31    29    30   ar
    32    30    31   ar
    33    31    32   ar
    34    32    35    1
    35    35    36    1
    36    32    33   ar
    37    33    37    1
    38    37    38    1
    39    33    34   ar
    40    10     1    1
    41    34    29   ar
    42     8     3   ar
    43    22    11    1
    44    19    13   ar
    45    23    24    1
@<TRIPOS>MOLECULE
*****
 41 45 0 0 0
SMALL
GASTEIGER

@<TRIPOS>ATOM
      1 C           6.0065   76.5924   29.1501 C.3     1  UNL1        0.2392
      2 O           4.6808   76.9130   28.7150 O.3     1  UNL1       -0.4694
      3 C           4.3596   76.9974   27.3575 C.ar    1  UNL1        0.1723
      4 C           3.1621   77.5838   26.9426 C.ar    1  UNL1        0.0398
      5 C           2.8732   77.6886   25.5781 C.ar    1  UNL1        0.0026
      6 C           3.7772   77.1950   24.6181 C.ar    1  UNL1        0.0233
      7 C           4.9788   76.6028   25.0467 C.ar    1  UNL1        0.0393
      8 C           5.2564   76.4882   26.4115 C.ar    1  UNL1        0.1725
      9 O           6.4287   75.8676   26.8509 O.3     1  UNL1       -0.4679
     10 C           6.6083   75.4994   28.2228 C.3     1  UNL1        0.2305
     11 C           3.4858   77.3418   23.1434 C.3     1  UNL1        0.2223
     12 O           4.6131   77.9213   22.4838 O.3     1  UNL1       -0.4715
     13 C           4.7363   77.9234   21.0903 C.ar    1  UNL1        0.1478
     14 C           5.6664   78.7724   20.4891 C.ar    1  UNL1        0.0746
     15 C           5.8003   78.8086   19.0902 C.ar    1  UNL1        0.1508
     16 C           4.9828   77.9855   18.3006 C.ar    1  UNL1        0.1026
     17 BR          5.1883   78.0068   16.3921 Br      1  UNL1       -0.0427
     18 C           4.0423   77.1276   18.8994 C.ar    1  UNL1        0.1535
     19 C           3.9357   77.0739   20.3068 C.ar    1  UNL1        0.1057
     20 C           3.0387   76.1219   21.0118 C.2     1  UNL1        0.2095
     21 O           2.2588   75.3695   20.3674 O.2     1  UNL1       -0.2884
     22 C           3.1309   75.9825   22.5123 C.3     1  UNL1        0.2169
     23 O           1.9070   75.5326   23.0368 O.3     1  UNL1       -0.3739
     24 H           1.8926   74.5456   22.9304 H       1  UNL1        0.2110
     25 O           6.7302   79.6466   18.4539 O.3     1  UNL1       -0.4707
     26 C           8.1437   79.5177   18.5675 C.3     1  UNL1        0.2525
     27 O           3.2346   76.3211   18.0944 O.3     1  UNL1       -0.4706
     28 C           2.0073   76.8022   17.5593 C.3     1  UNL1        0.2525
     29 C           8.0778   75.2713   28.4917 C.ar    1  UNL1        0.0241
     30 C           8.4927   74.2260   29.3294 C.ar    1  UNL1        0.0026
     31 C           9.8509   73.9905   29.5462 C.ar    1  UNL1        0.0398
     32 C          10.8226   74.7907   28.9166 C.ar    1  UNL1        0.1724
     33 C          10.4179   75.8316   28.0664 C.ar    1  UNL1        0.1722
     34 C           9.0450   76.0701   27.8616 C.ar    1  UNL1        0.0393
     35 O          12.1977   74.5807   29.1065 O.3     1  UNL1       -0.4684
     36 C          12.7705   73.9926   30.2698 C.3     1  UNL1        0.2526
     37 O          11.4093   76.6028   27.4389 O.3     1  UNL1       -0.4684
     38 C          11.1484   77.6637   26.5257 C.3     1  UNL1        0.2526
     39 C           5.9534   76.1568   30.6212 C.3     1  UNL1        0.1897
     40 C           7.1108   78.1023   31.0551 C.3     1  UNL1        0.1743
     41 O           6.0319   77.2909   31.4597 O.3     1  UNL1       -0.3471
@<TRIPOS>BOND
     1    40    41    1
     2    41    39    1
     3    39     1    1
     4     1     2    1
     5     2     3    1
     6     3     4   ar
     7     4     5   ar
     8     5     6   ar
     9     6    11    1
    10    11    12    1
    11    12    13    1
    12    13    14   ar
    13    14    15   ar
    14    15    25    1
    15    25    26    1
    16    15    16   ar
    17    16    17    1
    18    16    18   ar
    19    18    27    1
    20    27    28    1
    21    18    19   ar
    22    19    20    1
    23    20    21    2
    24    20    22    1
    25    22    23    1
    26     6     7   ar
    27     7     8   ar
    28     8     9    1
    29     9    10    1
    30    10    29    1
    31    29    30   ar
    32    30    31   ar
    33    31    32   ar
    34    32    35    1
    35    35    36    1
    36    32    33   ar
    37    33    37    1
    38    37    38    1
    39    33    34   ar
    40    10     1    1
    41    34    29   ar
    42     8     3   ar
    43    22    11    1
    44    19    13   ar
    45    23    24    1
@<TRIPOS>MOLECULE
*****
 41 45 0 0 0
SMALL
GASTEIGER

@<TRIPOS>ATOM
      1 C          13.8081   79.8225   25.3267 C.3     1  UNL1        0.2392
      2 O          13.3086   78.5793   24.8221 O.3     1  UNL1       -0.4694
      3 C          11.9568   78.4096   24.5104 C.ar    1  UNL1        0.1723
      4 C          11.4280   77.1347   24.2984 C.ar    1  UNL1        0.0398
      5 C          10.0658   76.9826   24.0197 C.ar    1  UNL1        0.0026
      6 C           9.2245   78.1087   23.9391 C.ar    1  UNL1        0.0233
      7 C           9.7679   79.3886   24.1506 C.ar    1  UNL1        0.0393
      8 C          11.1322   79.5363   24.4152 C.ar    1  UNL1        0.1725
      9 O          11.6913   80.8050   24.5892 O.3     1  UNL1       -0.4679
     10 C          13.1097   81.0007   24.5915 C.3     1  UNL1        0.2305
     11 C           7.7461   77.9445   23.6769 C.3     1  UNL1        0.2223
     12 O           7.5436   77.4300   22.3594 O.3     1  UNL1       -0.4715
     13 C           6.3077   76.9239   21.9430 C.ar    1  UNL1        0.1478
     14 C           6.0687   76.7434   20.5800 C.ar    1  UNL1        0.0746
     15 C           4.8302   76.2529   20.1312 C.ar    1  UNL1        0.1508
     16 C           3.8303   75.9518   21.0686 C.ar    1  UNL1        0.1026
     17 BR          2.1508   75.2482   20.4608 Br      1  UNL1       -0.0427
     18 C           4.0635   76.1320   22.4442 C.ar    1  UNL1        0.1535
     19 C           5.3213   76.5953   22.8893 C.ar    1  UNL1        0.1057
     20 C           5.6740   76.7141   24.3279 C.2     1  UNL1        0.2095
     21 O           4.8187   76.4835   25.2251 O.2     1  UNL1       -0.2884
     22 C           7.0988   77.0186   24.7236 C.3     1  UNL1        0.2169
     23 O           7.1328   77.6447   25.9814 O.3     1  UNL1       -0.3739
     24 H           7.0807   76.9252   26.6637 H       1  UNL1        0.2110
     25 O           4.5594   76.0539   18.7678 O.3     1  UNL1       -0.4707
     26 C           4.2001   77.0873   17.8565 C.3     1  UNL1        0.2525
     27 O           3.0523   75.8316   23.3598 O.3     1  UNL1       -0.4706
     28 C           2.1752   76.8384   23.8509 C.3     1  UNL1        0.2525
     29 C          13.4298   82.3355   25.2236 C.ar    1  UNL1        0.0241
     30 C          13.6677   82.4297   26.6024 C.ar    1  UNL1        0.0026
     31 C          14.0024   83.6552   27.1799 C.ar    1  UNL1        0.0398
     32 C          14.1183   84.8103   26.3842 C.ar    1  UNL1        0.1724
     33 C          13.8944   84.7242   25.0013 C.ar    1  UNL1        0.1722
     34 C          13.5460   83.4860   24.4276 C.ar    1  UNL1        0.0393
     35 O          14.4580   86.0590   26.9287 O.3     1  UNL1       -0.4684
     36 C          14.3518   86.3928   28.3088 C.3     1  UNL1        0.2526
     37 O          14.0334   85.8892   24.2302 O.3     1  UNL1       -0.4684
     38 C          12.9809   86.4948   23.4864 C.3     1  UNL1        0.2526
     39 C          15.3345   79.8455   25.1649 C.3     1  UNL1        0.1897
     40 C          15.9574   78.5879   23.3365 C.3     1  UNL1        0.1743
     41 O          15.6701   79.8897   23.7934 O.3     1  UNL1       -0.3471
@<TRIPOS>BOND
     1    40    41    1
     2    41    39    1
     3    39     1    1
     4     1     2    1
     5     2     3    1
     6     3     4   ar
     7     4     5   ar
     8     5     6   ar
     9     6    11    1
    10    11    12    1
    11    12    13    1
    12    13    14   ar
    13    14    15   ar
    14    15    25    1
    15    25    26    1
    16    15    16   ar
    17    16    17    1
    18    16    18   ar
    19    18    27    1
    20    27    28    1
    21    18    19   ar
    22    19    20    1
    23    20    21    2
    24    20    22    1
    25    22    23    1
    26     6     7   ar
    27     7     8   ar
    28     8     9    1
    29     9    10    1
    30    10    29    1
    31    29    30   ar
    32    30    31   ar
    33    31    32   ar
    34    32    35    1
    35    35    36    1
    36    32    33   ar
    37    33    37    1
    38    37    38    1
    39    33    34   ar
    40    10     1    1
    41    34    29   ar
    42     8     3   ar
    43    22    11    1
    44    19    13   ar
    45    23    24    1
