@<TRIPOS>MOLECULE
*****
 51 56 0 0 0
SMALL
GASTEIGER

@<TRIPOS>ATOM
      1 C         -29.3370   50.5988  -11.6358 C.2     1  UNL1        0.2483
      2 O         -30.1878   51.5268  -11.5549 O.2     1  UNL1       -0.2701
      3 N         -29.7277   49.3137  -12.1501 N.am    1  UNL1       -0.2945
      4 H         -28.9887   48.5998  -12.3381 H       1  UNL1        0.1501
      5 C         -25.2787   51.3519  -10.3947 C.ar    1  UNL1        0.0502
      6 C         -26.2564   50.9456   -9.4705 C.ar    1  UNL1        0.0148
      7 C         -27.5682   50.7023   -9.8840 C.ar    1  UNL1        0.0080
      8 C         -27.9383   50.8682  -11.2287 C.ar    1  UNL1        0.0808
      9 C         -26.9568   51.2574  -12.1611 C.ar    1  UNL1        0.1457
     10 F         -27.2454   51.3623  -13.4823 F       1  UNL1       -0.2040
     11 C         -25.6439   51.4980  -11.7442 C.ar    1  UNL1        0.0443
     12 N         -21.1877   51.9024   -9.2044 N.pl3   1  UNL1       -0.3040
     13 C         -22.2305   51.8706   -8.1686 C.3     1  UNL1        0.1122
     14 C         -23.4630   51.1054   -8.6605 C.3     1  UNL1        0.1122
     15 N         -23.9195   51.5989   -9.9693 N.pl3   1  UNL1       -0.3040
     16 C         -23.0214   52.4150  -10.7993 C.3     1  UNL1        0.1122
     17 C         -21.5658   51.9708  -10.6248 C.3     1  UNL1        0.1122
     18 C         -17.4238   51.8262   -9.4389 C.ar    1  UNL1        0.1438
     19 C         -18.7866   51.7689   -9.7928 C.ar    1  UNL1        0.0513
     20 C         -19.7925   51.9586   -8.8303 C.ar    1  UNL1        0.0510
     21 C         -19.4194   52.2113   -7.5012 C.ar    1  UNL1        0.0147
     22 C         -18.0734   52.2705   -7.1393 C.ar    1  UNL1        0.0082
     23 C         -17.0636   52.0789   -8.0986 C.ar    1  UNL1        0.1054
     24 C         -15.6035   52.1435   -7.7093 C.3     1  UNL1        0.4214
     25 F         -14.8193   52.0952   -8.8477 F       1  UNL1       -0.1657
     26 F         -15.2929   51.0654   -6.9003 F       1  UNL1       -0.1657
     27 F         -15.3042   53.3068   -7.0210 F       1  UNL1       -0.1657
     28 C         -16.5965   51.6796  -11.8007 C.3     1  UNL1        0.2525
     29 O         -16.4063   51.6369  -10.3900 O.3     1  UNL1       -0.4714
     30 C         -31.1336   48.9258  -12.3222 C.3     1  UNL1        0.1535
     31 C         -31.3972   48.5495  -13.7572 C.2     1  UNL1        0.2443
     32 O         -31.5826   47.3392  -14.0614 O.2     1  UNL1       -0.2730
     33 N         -31.5311   49.5762  -14.7534 N.am    1  UNL1       -0.2825
     34 H         -31.7034   50.5539  -14.4260 H       1  UNL1        0.1549
     35 C         -31.5554   49.3259  -16.1691 C.ar    1  UNL1        0.0535
     36 C         -31.5751   48.0189  -16.6854 C.ar    1  UNL1        0.0353
     37 C         -31.5729   47.8247  -18.0691 C.ar    1  UNL1        0.1002
     38 N         -31.5378   48.8932  -18.9085 N.ar    1  UNL1       -0.2422
     39 C         -31.4998   50.1674  -18.4372 C.ar    1  UNL1        0.1002
     40 C         -31.4994   50.4060  -17.0608 C.ar    1  UNL1        0.0353
     41 C         -31.4835   47.7480  -11.3979 C.3     1  UNL1        0.0569
     42 C         -30.2570   46.9767  -11.0038 C.ar    1  UNL1       -0.0017
     43 C         -29.6253   45.9851  -11.7484 C.ar    1  UNL1        0.0681
     44 N         -28.5005   45.5692  -11.1231 N.ar    1  UNL1       -0.3523
     45 C         -28.4138   46.2935   -9.9939 C.ar    1  UNL1        0.0563
     46 C         -27.4105   46.2352   -9.0277 C.ar    1  UNL1        0.0170
     47 C         -27.5089   47.1029   -7.9245 C.ar    1  UNL1        0.0015
     48 C         -28.5943   48.0005   -7.8144 C.ar    1  UNL1        0.0001
     49 C         -29.5914   48.0384   -8.8059 C.ar    1  UNL1        0.0012
     50 C         -29.4676   47.1645   -9.8862 C.ar    1  UNL1        0.0131
     51 H         -27.8310   44.8419  -11.4595 H       1  UNL1        0.1660
@<TRIPOS>BOND
     1    28    29    1
     2    29    18    1
     3    18    19   ar
     4    19    20   ar
     5    20    12    1
     6    12    13    1
     7    13    14    1
     8    14    15    1
     9    15     5    1
    10     5     6   ar
    11     6     7   ar
    12     7     8   ar
    13     8     1    1
    14     1     2    2
    15     1     3   am
    16     3    30    1
    17    30    41    1
    18    41    42    1
    19    42    43   ar
    20    43    44   ar
    21    44    45   ar
    22    45    46   ar
    23    46    47   ar
    24    47    48   ar
    25    48    49   ar
    26    49    50   ar
    27    30    31    1
    28    31    32    2
    29    31    33   am
    30    33    35    1
    31    35    36   ar
    32    36    37   ar
    33    37    38   ar
    34    38    39   ar
    35    39    40   ar
    36     8     9   ar
    37     9    10    1
    38     9    11   ar
    39    15    16    1
    40    16    17    1
    41    20    21   ar
    42    21    22   ar
    43    22    23   ar
    44    23    24    1
    45    24    25    1
    46    24    26    1
    47    24    27    1
    48    23    18   ar
    49    17    12    1
    50    11     5   ar
    51    50    42   ar
    52    40    35   ar
    53    50    45   ar
    54     3     4    1
    55    44    51    1
    56    33    34    1
@<TRIPOS>MOLECULE
*****
 51 56 0 0 0
SMALL
GASTEIGER

@<TRIPOS>ATOM
      1 C         -28.5763   46.4324   -1.4759 C.2     1  UNL1        0.2483
      2 O         -28.1163   45.3064   -1.1411 O.2     1  UNL1       -0.2701
      3 N         -29.6384   47.0271   -0.7099 N.am    1  UNL1       -0.2945
      4 H         -29.9165   48.0132   -0.9139 H       1  UNL1        0.1501
      5 C         -26.8458   48.5311   -4.8193 C.ar    1  UNL1        0.0502
      6 C         -27.3493   49.2277   -3.7074 C.ar    1  UNL1        0.0148
      7 C         -27.9062   48.5374   -2.6284 C.ar    1  UNL1        0.0080
      8 C         -27.9829   47.1350   -2.6374 C.ar    1  UNL1        0.0808
      9 C         -27.4626   46.4325   -3.7419 C.ar    1  UNL1        0.1457
     10 F         -27.4473   45.0765   -3.7680 F       1  UNL1       -0.2040
     11 C         -26.9037   47.1267   -4.8195 C.ar    1  UNL1        0.0443
     12 N         -24.9400   50.6526   -8.0323 N.pl3   1  UNL1       -0.3040
     13 C         -26.0564   51.2932   -7.3220 C.3     1  UNL1        0.1122
     14 C         -26.2086   50.7139   -5.9122 C.3     1  UNL1        0.1122
     15 N         -26.2644   49.2438   -5.9344 N.pl3   1  UNL1       -0.3040
     16 C         -25.8105   48.5106   -7.1251 C.3     1  UNL1        0.1122
     17 C         -24.6367   49.2326   -7.7941 C.3     1  UNL1        0.1122
     18 C         -22.1131   52.4302   -9.7863 C.ar    1  UNL1        0.1438
     19 C         -22.8477   51.7185   -8.8170 C.ar    1  UNL1        0.0513
     20 C         -24.1964   51.3870   -9.0310 C.ar    1  UNL1        0.0510
     21 C         -24.8065   51.7741  -10.2341 C.ar    1  UNL1        0.0147
     22 C         -24.0889   52.4787  -11.2009 C.ar    1  UNL1        0.0082
     23 C         -22.7401   52.8148  -10.9900 C.ar    1  UNL1        0.1054
     24 C         -21.9595   53.5778  -12.0368 C.3     1  UNL1        0.4214
     25 F         -20.8436   52.8477  -12.4043 F       1  UNL1       -0.1657
     26 F         -21.5532   54.7930  -11.5158 F       1  UNL1       -0.1657
     27 F         -22.7166   53.8197  -13.1704 F       1  UNL1       -0.1657
     28 C         -20.0613   52.6118   -8.3576 C.3     1  UNL1        0.2525
     29 O         -20.7641   52.7706   -9.5859 O.3     1  UNL1       -0.4714
     30 C         -30.4206   46.2706    0.2762 C.3     1  UNL1        0.1535
     31 C         -30.9531   47.1969    1.3387 C.2     1  UNL1        0.2443
     32 O         -31.5462   48.2582    1.0017 O.2     1  UNL1       -0.2730
     33 N         -30.8683   46.8219    2.7231 N.am    1  UNL1       -0.2825
     34 H         -30.6830   45.8175    2.9459 H       1  UNL1        0.1549
     35 C         -31.1333   47.7166    3.8171 C.ar    1  UNL1        0.0535
     36 C         -31.2093   49.1074    3.6289 C.ar    1  UNL1        0.0353
     37 C         -31.4441   49.9392    4.7268 C.ar    1  UNL1        0.1002
     38 N         -31.5839   49.4067    5.9695 N.ar    1  UNL1       -0.2422
     39 C         -31.4969   48.0673    6.1836 C.ar    1  UNL1        0.1002
     40 C         -31.2619   47.2002    5.1139 C.ar    1  UNL1        0.0353
     41 C         -31.5835   45.5350   -0.4097 C.3     1  UNL1        0.0569
     42 C         -31.3338   45.3648   -1.8804 C.ar    1  UNL1       -0.0017
     43 C         -31.1117   44.1659   -2.5513 C.ar    1  UNL1        0.0681
     44 N         -31.0101   44.3813   -3.8826 N.ar    1  UNL1       -0.3523
     45 C         -31.1719   45.7043   -4.0582 C.ar    1  UNL1        0.0563
     46 C         -31.1669   46.4033   -5.2645 C.ar    1  UNL1        0.0170
     47 C         -31.3745   47.7942   -5.2191 C.ar    1  UNL1        0.0015
     48 C         -31.5821   48.4471   -3.9836 C.ar    1  UNL1        0.0001
     49 C         -31.5836   47.7155   -2.7822 C.ar    1  UNL1        0.0012
     50 C         -31.3727   46.3386   -2.8591 C.ar    1  UNL1        0.0131
     51 H         -30.8512   43.6611   -4.6218 H       1  UNL1        0.1660
@<TRIPOS>BOND
     1    28    29    1
     2    29    18    1
     3    18    19   ar
     4    19    20   ar
     5    20    12    1
     6    12    13    1
     7    13    14    1
     8    14    15    1
     9    15     5    1
    10     5     6   ar
    11     6     7   ar
    12     7     8   ar
    13     8     1    1
    14     1     2    2
    15     1     3   am
    16     3    30    1
    17    30    41    1
    18    41    42    1
    19    42    43   ar
    20    43    44   ar
    21    44    45   ar
    22    45    46   ar
    23    46    47   ar
    24    47    48   ar
    25    48    49   ar
    26    49    50   ar
    27    30    31    1
    28    31    32    2
    29    31    33   am
    30    33    35    1
    31    35    36   ar
    32    36    37   ar
    33    37    38   ar
    34    38    39   ar
    35    39    40   ar
    36     8     9   ar
    37     9    10    1
    38     9    11   ar
    39    15    16    1
    40    16    17    1
    41    20    21   ar
    42    21    22   ar
    43    22    23   ar
    44    23    24    1
    45    24    25    1
    46    24    26    1
    47    24    27    1
    48    23    18   ar
    49    17    12    1
    50    11     5   ar
    51    50    42   ar
    52    40    35   ar
    53    50    45   ar
    54     3     4    1
    55    44    51    1
    56    33    34    1
