@<TRIPOS>MOLECULE
*****
 38 42 0 0 0
SMALL
GASTEIGER

@<TRIPOS>ATOM
      1 C          49.5894   11.2382  -21.6710 C.2     1  UNL1        0.2491
      2 O          50.7102   10.8821  -22.1255 O.2     1  UNL1       -0.2699
      3 N          48.4472   11.3155  -22.5475 N.am    1  UNL1       -0.2680
      4 C          47.1049   11.0115  -22.0398 C.3     1  UNL1        0.1412
      5 C          46.3438   12.3068  -21.7660 C.3     1  UNL1        0.2268
      6 O          46.6511   13.3109  -22.7319 O.3     1  UNL1       -0.4739
      7 C          46.6157   13.0668  -24.1066 C.ar    1  UNL1        0.1362
      8 C          45.6731   13.7527  -24.8774 C.ar    1  UNL1        0.0366
      9 C          45.5758   13.5231  -26.2496 C.ar    1  UNL1        0.0031
     10 C          46.4356   12.6106  -26.8804 C.ar    1  UNL1        0.0001
     11 C          47.4022   11.9410  -26.1097 C.ar    1  UNL1        0.0004
     12 C          47.5027   12.1524  -24.7232 C.ar    1  UNL1        0.0317
     13 C          48.6669   11.5064  -23.9895 C.3     1  UNL1        0.1236
     14 C          46.3369   12.3676  -28.3420 C.ar    1  UNL1        0.0045
     15 C          46.5347   11.0614  -28.8706 C.ar    1  UNL1        0.0383
     16 C          46.4435   10.8209  -30.2549 C.ar    1  UNL1        0.1526
     17 O          46.6359    9.5380  -30.7629 O.3     1  UNL1       -0.5039
     18 C          46.1543   11.9045  -31.0845 C.ar    1  UNL1        0.1320
     19 N          46.0232   11.9114  -32.4240 N.ar    1  UNL1       -0.2210
     20 C          45.7484   13.2143  -32.6956 C.ar    1  UNL1        0.1751
     21 N          45.7060   13.9985  -31.5922 N.ar    1  UNL1       -0.3348
     22 C          45.9633   13.1558  -30.5850 C.ar    1  UNL1        0.0787
     23 C          46.0440   13.4359  -29.2240 C.ar    1  UNL1        0.0187
     24 H          46.5735    9.3456  -31.7557 H       1  UNL1        0.2923
     25 H          45.5159   15.0240  -31.5425 H       1  UNL1        0.1675
     26 C          49.8206   12.8330  -19.7225 C.ar    1  UNL1       -0.0165
     27 C          49.6627   13.0800  -18.3477 C.ar    1  UNL1        0.0142
     28 C          49.1842   12.0826  -17.4899 C.ar    1  UNL1        0.1054
     29 C          48.8550   10.8252  -18.0055 C.ar    1  UNL1        0.0185
     30 C          49.0059   10.5635  -19.3677 C.ar    1  UNL1        0.0055
     31 C          49.4743   11.5590  -20.2369 C.ar    1  UNL1        0.0497
     32 S          48.9762   12.4206  -15.7749 S.O2    1  UNL1        0.0104
     33 C          50.5724   12.6088  -15.0144 C.3     1  UNL1        0.1816
     34 O          48.1822   13.6840  -15.5940 O.2     1  UNL1       -0.1686
     35 O          48.2360   11.2881  -15.1202 O.2     1  UNL1       -0.1686
     36 C          50.4137   13.9257  -20.5891 C.3     1  UNL1        0.0265
     37 C          49.5759   15.0866  -22.6934 C.3     1  UNL1        0.0004
     38 C          49.3313   14.8205  -21.2092 C.3     1  UNL1        0.0047
@<TRIPOS>BOND
     1    37    38    1
     2    38    36    1
     3    36    26    1
     4    26    27   ar
     5    27    28   ar
     6    28    32    1
     7    32    33    1
     8    32    34    2
     9    32    35    2
    10    28    29   ar
    11    29    30   ar
    12    30    31   ar
    13    31     1    1
    14     1     2    2
    15     1     3   am
    16     3     4    1
    17     4     5    1
    18     5     6    1
    19     6     7    1
    20     7     8   ar
    21     8     9   ar
    22     9    10   ar
    23    10    14    1
    24    14    15   ar
    25    15    16   ar
    26    16    17    1
    27    16    18   ar
    28    18    19   ar
    29    19    20   ar
    30    20    21   ar
    31    21    22   ar
    32    22    23   ar
    33    10    11   ar
    34    11    12   ar
    35    12    13    1
    36    31    26   ar
    37    13     3    1
    38    12     7   ar
    39    23    14   ar
    40    22    18   ar
    41    17    24    1
    42    21    25    1
@<TRIPOS>MOLECULE
*****
 38 42 0 0 0
SMALL
GASTEIGER

@<TRIPOS>ATOM
      1 C          48.5634   10.1642  -20.7854 C.2     1  UNL1        0.2491
      2 O          48.1185    8.9844  -20.7811 O.2     1  UNL1       -0.2699
      3 N          49.0463   10.7484  -22.0119 N.am    1  UNL1       -0.2680
      4 C          48.8887   12.1861  -22.2572 C.3     1  UNL1        0.1412
      5 C          50.2062   12.9099  -21.9883 C.3     1  UNL1        0.2268
      6 O          51.3282   12.1244  -22.3880 O.3     1  UNL1       -0.4739
      7 C          51.4120   11.5186  -23.6436 C.ar    1  UNL1        0.1362
      8 C          52.4164   11.9423  -24.5181 C.ar    1  UNL1        0.0366
      9 C          52.5250   11.3912  -25.7947 C.ar    1  UNL1        0.0031
     10 C          51.6360   10.3895  -26.2145 C.ar    1  UNL1        0.0001
     11 C          50.6429    9.9437  -25.3249 C.ar    1  UNL1        0.0004
     12 C          50.5131   10.4997  -24.0399 C.ar    1  UNL1        0.0317
     13 C          49.5143    9.8613  -23.0881 C.3     1  UNL1        0.1236
     14 C          51.7522    9.7980  -27.5716 C.ar    1  UNL1        0.0045
     15 C          52.8745   10.0960  -28.3942 C.ar    1  UNL1        0.0383
     16 C          52.9937    9.5404  -29.6824 C.ar    1  UNL1        0.1526
     17 O          54.0975    9.8357  -30.4794 O.3     1  UNL1       -0.5039
     18 C          51.9764    8.6923  -30.1204 C.ar    1  UNL1        0.1320
     19 N          51.8783    8.0567  -31.3027 N.ar    1  UNL1       -0.2210
     20 C          50.7041    7.3821  -31.1885 C.ar    1  UNL1        0.1751
     21 N          50.0843    7.5747  -29.9998 N.ar    1  UNL1       -0.3348
     22 C          50.9010    8.4028  -29.3383 C.ar    1  UNL1        0.0787
     23 C          50.7454    8.9302  -28.0596 C.ar    1  UNL1        0.0187
     24 H          54.2009    9.4449  -31.4084 H       1  UNL1        0.2923
     25 H          49.1779    7.1686  -29.6772 H       1  UNL1        0.1675
     26 C          47.4175   11.6090  -19.0555 C.ar    1  UNL1       -0.0165
     27 C          47.4830   12.2958  -17.8306 C.ar    1  UNL1        0.0142
     28 C          48.6672   12.3212  -17.0847 C.ar    1  UNL1        0.1054
     29 C          49.7996   11.6527  -17.5602 C.ar    1  UNL1        0.0185
     30 C          49.7516   10.9664  -18.7741 C.ar    1  UNL1        0.0055
     31 C          48.5672   10.9260  -19.5235 C.ar    1  UNL1        0.0497
     32 S          48.7203   13.1713  -15.5442 S.O2    1  UNL1        0.0104
     33 C          47.8150   14.6955  -15.6817 C.3     1  UNL1        0.1816
     34 O          48.1082   12.3197  -14.4673 O.2     1  UNL1       -0.1686
     35 O          50.1475   13.4640  -15.1746 O.2     1  UNL1       -0.1686
     36 C          46.1320   11.6794  -19.8550 C.3     1  UNL1        0.0265
     37 C          43.6221   11.7124  -19.4343 C.3     1  UNL1        0.0004
     38 C          44.9811   12.2898  -19.0429 C.3     1  UNL1        0.0047
@<TRIPOS>BOND
     1    37    38    1
     2    38    36    1
     3    36    26    1
     4    26    27   ar
     5    27    28   ar
     6    28    32    1
     7    32    33    1
     8    32    34    2
     9    32    35    2
    10    28    29   ar
    11    29    30   ar
    12    30    31   ar
    13    31     1    1
    14     1     2    2
    15     1     3   am
    16     3     4    1
    17     4     5    1
    18     5     6    1
    19     6     7    1
    20     7     8   ar
    21     8     9   ar
    22     9    10   ar
    23    10    14    1
    24    14    15   ar
    25    15    16   ar
    26    16    17    1
    27    16    18   ar
    28    18    19   ar
    29    19    20   ar
    30    20    21   ar
    31    21    22   ar
    32    22    23   ar
    33    10    11   ar
    34    11    12   ar
    35    12    13    1
    36    31    26   ar
    37    13     3    1
    38    12     7   ar
    39    23    14   ar
    40    22    18   ar
    41    17    24    1
    42    21    25    1
@<TRIPOS>MOLECULE
*****
 38 42 0 0 0
SMALL
GASTEIGER

@<TRIPOS>ATOM
      1 C          46.0229   11.7658  -26.1214 C.2     1  UNL1        0.2491
      2 O          44.9632   11.3320  -25.5937 O.2     1  UNL1       -0.2699
      3 N          47.2294   11.8670  -25.3384 N.am    1  UNL1       -0.2680
      4 C          48.5378   11.6562  -25.9675 C.3     1  UNL1        0.1412
      5 C          49.2082   13.0004  -26.2427 C.3     1  UNL1        0.2268
      6 O          48.9337   13.9457  -25.2099 O.3     1  UNL1       -0.4739
      7 C          49.0963   13.6467  -23.8553 C.ar    1  UNL1        0.1362
      8 C          50.0652   14.3490  -23.1334 C.ar    1  UNL1        0.0366
      9 C          50.2885   14.0680  -21.7857 C.ar    1  UNL1        0.0031
     10 C          49.5309   13.0855  -21.1294 C.ar    1  UNL1        0.0001
     11 C          48.5373   12.3982  -21.8485 C.ar    1  UNL1        0.0004
     12 C          48.3105   12.6616  -23.2110 C.ar    1  UNL1        0.0317
     13 C          47.1223   11.9858  -23.8760 C.3     1  UNL1        0.1236
     14 C          49.7637   12.7874  -19.6934 C.ar    1  UNL1        0.0045
     15 C          48.7382   12.1953  -18.9045 C.ar    1  UNL1        0.0383
     16 C          48.9491   11.9091  -17.5422 C.ar    1  UNL1        0.1526
     17 O          47.9400   11.3267  -16.7785 O.3     1  UNL1       -0.5039
     18 C          50.1935   12.2262  -16.9972 C.ar    1  UNL1        0.1320
     19 N          50.6143   12.0470  -15.7314 N.ar    1  UNL1       -0.2210
     20 C          51.8846   12.5291  -15.7625 C.ar    1  UNL1        0.1751
     21 N          52.2570   12.9915  -16.9798 N.ar    1  UNL1       -0.3348
     22 C          51.1786   12.7918  -17.7466 C.ar    1  UNL1        0.0787
     23 C          51.0113   13.0900  -19.0958 C.ar    1  UNL1        0.0187
     24 H          48.0735   11.1128  -15.7972 H       1  UNL1        0.2923
     25 H          53.1749   13.4071  -17.2534 H       1  UNL1        0.1675
     26 C          45.9070   13.5049  -27.9531 C.ar    1  UNL1       -0.0165
     27 C          45.9169   13.8049  -29.3265 C.ar    1  UNL1        0.0142
     28 C          46.0041   12.7864  -30.2827 C.ar    1  UNL1        0.1054
     29 C          46.0862   11.4532  -29.8689 C.ar    1  UNL1        0.0185
     30 C          46.0775   11.1382  -28.5097 C.ar    1  UNL1        0.0055
     31 C          46.0012   12.1518  -27.5438 C.ar    1  UNL1        0.0497
     32 S          46.0344   13.1869  -31.9966 S.O2    1  UNL1        0.0104
     33 C          44.5416   12.6007  -32.7644 C.3     1  UNL1        0.1816
     34 O          46.1379   14.6761  -32.1733 O.2     1  UNL1       -0.1686
     35 O          47.2243   12.5402  -32.6483 O.2     1  UNL1       -0.1686
     36 C          45.7349   14.6425  -26.9667 C.3     1  UNL1        0.0265
     37 C          47.4196   16.5323  -27.2282 C.3     1  UNL1        0.0004
     38 C          46.0349   16.0071  -27.6028 C.3     1  UNL1        0.0047
@<TRIPOS>BOND
     1    37    38    1
     2    38    36    1
     3    36    26    1
     4    26    27   ar
     5    27    28   ar
     6    28    32    1
     7    32    33    1
     8    32    34    2
     9    32    35    2
    10    28    29   ar
    11    29    30   ar
    12    30    31   ar
    13    31     1    1
    14     1     2    2
    15     1     3   am
    16     3     4    1
    17     4     5    1
    18     5     6    1
    19     6     7    1
    20     7     8   ar
    21     8     9   ar
    22     9    10   ar
    23    10    14    1
    24    14    15   ar
    25    15    16   ar
    26    16    17    1
    27    16    18   ar
    28    18    19   ar
    29    19    20   ar
    30    20    21   ar
    31    21    22   ar
    32    22    23   ar
    33    10    11   ar
    34    11    12   ar
    35    12    13    1
    36    31    26   ar
    37    13     3    1
    38    12     7   ar
    39    23    14   ar
    40    22    18   ar
    41    17    24    1
    42    21    25    1
@<TRIPOS>MOLECULE
*****
 38 42 0 0 0
SMALL
GASTEIGER

@<TRIPOS>ATOM
      1 C          49.6235   11.8957  -21.6154 C.2     1  UNL1        0.2491
      2 O          50.8001   11.8337  -22.0641 O.2     1  UNL1       -0.2699
      3 N          48.5023   11.7161  -22.5040 N.am    1  UNL1       -0.2680
      4 C          47.2706   11.0829  -22.0201 C.3     1  UNL1        0.1412
      5 C          46.2162   12.1475  -21.7258 C.3     1  UNL1        0.2268
      6 O          46.2768   13.2206  -22.6642 O.3     1  UNL1       -0.4739
      7 C          46.3105   13.0104  -24.0445 C.ar    1  UNL1        0.1362
      8 C          45.2346   13.4668  -24.8108 C.ar    1  UNL1        0.0366
      9 C          45.2047   13.2556  -26.1890 C.ar    1  UNL1        0.0031
     10 C          46.2643   12.5952  -26.8301 C.ar    1  UNL1        0.0001
     11 C          47.3595   12.1605  -26.0633 C.ar    1  UNL1        0.0004
     12 C          47.3969   12.3544  -24.6712 C.ar    1  UNL1        0.0317
     13 C          48.6783   11.9914  -23.9383 C.3     1  UNL1        0.1236
     14 C          46.2369   12.3730  -28.2981 C.ar    1  UNL1        0.0045
     15 C          46.4691   11.0760  -28.8354 C.ar    1  UNL1        0.0383
     16 C          46.4455   10.8552  -30.2257 C.ar    1  UNL1        0.1526
     17 O          46.6712    9.5812  -30.7424 O.3     1  UNL1       -0.5039
     18 C          46.1880   11.9489  -31.0526 C.ar    1  UNL1        0.1320
     19 N          46.1205   11.9746  -32.3965 N.ar    1  UNL1       -0.2210
     20 C          45.8494   13.2794  -32.6622 C.ar    1  UNL1        0.1751
     21 N          45.7489   14.0471  -31.5510 N.ar    1  UNL1       -0.3348
     22 C          45.9643   13.1915  -30.5449 C.ar    1  UNL1        0.0787
     23 C          45.9782   13.4521  -29.1777 C.ar    1  UNL1        0.0187
     24 H          46.6574    9.4029  -31.7396 H       1  UNL1        0.2923
     25 H          45.5491   15.0705  -31.4957 H       1  UNL1        0.1675
     26 C          49.6552   11.1379  -19.2034 C.ar    1  UNL1       -0.0165
     27 C          49.4705   11.4480  -17.8447 C.ar    1  UNL1        0.0142
     28 C          49.0515   12.7242  -17.4507 C.ar    1  UNL1        0.1054
     29 C          48.8167   13.7056  -18.4187 C.ar    1  UNL1        0.0185
     30 C          48.9952   13.4143  -19.7714 C.ar    1  UNL1        0.0055
     31 C          49.4248   12.1423  -20.1757 C.ar    1  UNL1        0.0497
     32 S          48.8455   13.0956  -15.7423 S.O2    1  UNL1        0.0104
     33 C          47.8777   14.5777  -15.5749 C.3     1  UNL1        0.1816
     34 O          48.1458   11.9589  -15.0513 O.2     1  UNL1       -0.1686
     35 O          50.1898   13.2959  -15.1005 O.2     1  UNL1       -0.1686
     36 C          50.0366    9.7190  -19.5748 C.3     1  UNL1        0.0265
     37 C          49.4353    8.5439  -21.7510 C.3     1  UNL1        0.0004
     38 C          48.9373    9.0210  -20.3879 C.3     1  UNL1        0.0047
@<TRIPOS>BOND
     1    37    38    1
     2    38    36    1
     3    36    26    1
     4    26    27   ar
     5    27    28   ar
     6    28    32    1
     7    32    33    1
     8    32    34    2
     9    32    35    2
    10    28    29   ar
    11    29    30   ar
    12    30    31   ar
    13    31     1    1
    14     1     2    2
    15     1     3   am
    16     3     4    1
    17     4     5    1
    18     5     6    1
    19     6     7    1
    20     7     8   ar
    21     8     9   ar
    22     9    10   ar
    23    10    14    1
    24    14    15   ar
    25    15    16   ar
    26    16    17    1
    27    16    18   ar
    28    18    19   ar
    29    19    20   ar
    30    20    21   ar
    31    21    22   ar
    32    22    23   ar
    33    10    11   ar
    34    11    12   ar
    35    12    13    1
    36    31    26   ar
    37    13     3    1
    38    12     7   ar
    39    23    14   ar
    40    22    18   ar
    41    17    24    1
    42    21    25    1
@<TRIPOS>MOLECULE
*****
 38 42 0 0 0
SMALL
GASTEIGER

@<TRIPOS>ATOM
      1 C          48.3259    9.8338  -20.9393 C.2     1  UNL1        0.2491
      2 O          47.7964    8.6911  -20.8802 O.2     1  UNL1       -0.2699
      3 N          48.7823   10.3525  -22.2048 N.am    1  UNL1       -0.2680
      4 C          48.7175   11.7922  -22.4794 C.3     1  UNL1        0.1412
      5 C          50.0975   12.4211  -22.3002 C.3     1  UNL1        0.2268
      6 O          51.1351   11.5451  -22.7380 O.3     1  UNL1       -0.4739
      7 C          51.1049   10.9066  -23.9798 C.ar    1  UNL1        0.1362
      8 C          52.0881   11.2343  -24.9175 C.ar    1  UNL1        0.0366
      9 C          52.0855   10.6480  -26.1829 C.ar    1  UNL1        0.0031
     10 C          51.1035    9.7065  -26.5282 C.ar    1  UNL1        0.0001
     11 C          50.1307    9.3563  -25.5755 C.ar    1  UNL1        0.0004
     12 C          50.1130    9.9493  -24.3007 C.ar    1  UNL1        0.0317
     13 C          49.1239    9.4090  -23.2805 C.3     1  UNL1        0.1236
     14 C          51.1012    9.0777  -27.8735 C.ar    1  UNL1        0.0045
     15 C          49.8949    8.5654  -28.4277 C.ar    1  UNL1        0.0383
     16 C          49.8824    7.9672  -29.7022 C.ar    1  UNL1        0.1526
     17 O          48.6959    7.4709  -30.2377 O.3     1  UNL1       -0.5039
     18 C          51.0896    7.8951  -30.3974 C.ar    1  UNL1        0.1320
     19 N          51.3146    7.3696  -31.6159 N.ar    1  UNL1       -0.2210
     20 C          52.6479    7.5663  -31.7901 C.ar    1  UNL1        0.1751
     21 N          53.2442    8.1830  -30.7421 N.ar    1  UNL1       -0.3348
     22 C          52.2464    8.3838  -29.8733 C.ar    1  UNL1        0.0787
     23 C          52.3019    8.9828  -28.6180 C.ar    1  UNL1        0.0187
     24 H          48.6672    7.0380  -31.1532 H       1  UNL1        0.2923
     25 H          54.2507    8.4410  -30.6392 H       1  UNL1        0.1675
     26 C          47.3865   11.3993  -19.1901 C.ar    1  UNL1       -0.0165
     27 C          47.5694   12.1066  -17.9890 C.ar    1  UNL1        0.0142
     28 C          48.7914   12.0595  -17.3078 C.ar    1  UNL1        0.1054
     29 C          49.8435   11.2971  -17.8247 C.ar    1  UNL1        0.0185
     30 C          49.6785   10.5893  -19.0157 C.ar    1  UNL1        0.0055
     31 C          48.4551   10.6213  -19.7000 C.ar    1  UNL1        0.0497
     32 S          48.9914   12.9377  -15.7953 S.O2    1  UNL1        0.0104
     33 C          50.7107   12.9451  -15.3422 C.3     1  UNL1        0.1816
     34 O          48.5090   14.3522  -15.9561 O.2     1  UNL1       -0.1686
     35 O          48.1873   12.2741  -14.7127 O.2     1  UNL1       -0.1686
     36 C          46.0678   11.5483  -19.9221 C.3     1  UNL1        0.0265
     37 C          43.5862   11.7672  -19.4010 C.3     1  UNL1        0.0004
     38 C          45.0004   12.2288  -19.0537 C.3     1  UNL1        0.0047
@<TRIPOS>BOND
     1    37    38    1
     2    38    36    1
     3    36    26    1
     4    26    27   ar
     5    27    28   ar
     6    28    32    1
     7    32    33    1
     8    32    34    2
     9    32    35    2
    10    28    29   ar
    11    29    30   ar
    12    30    31   ar
    13    31     1    1
    14     1     2    2
    15     1     3   am
    16     3     4    1
    17     4     5    1
    18     5     6    1
    19     6     7    1
    20     7     8   ar
    21     8     9   ar
    22     9    10   ar
    23    10    14    1
    24    14    15   ar
    25    15    16   ar
    26    16    17    1
    27    16    18   ar
    28    18    19   ar
    29    19    20   ar
    30    20    21   ar
    31    21    22   ar
    32    22    23   ar
    33    10    11   ar
    34    11    12   ar
    35    12    13    1
    36    31    26   ar
    37    13     3    1
    38    12     7   ar
    39    23    14   ar
    40    22    18   ar
    41    17    24    1
    42    21    25    1
@<TRIPOS>MOLECULE
*****
 38 42 0 0 0
SMALL
GASTEIGER

@<TRIPOS>ATOM
      1 C          49.4353   13.7001  -20.5011 C.2     1  UNL1        0.2491
      2 O          50.1680   14.6757  -20.8187 O.2     1  UNL1       -0.2699
      3 N          48.7423   12.9558  -21.5232 N.am    1  UNL1       -0.2680
      4 C          48.5091   11.5168  -21.3588 C.3     1  UNL1        0.1412
      5 C          47.0693   11.2680  -20.9150 C.3     1  UNL1        0.2268
      6 O          46.1643   12.1840  -21.5293 O.3     1  UNL1       -0.4739
      7 C          46.1605   12.4281  -22.9045 C.ar    1  UNL1        0.1362
      8 C          45.0281   12.0653  -23.6388 C.ar    1  UNL1        0.0366
      9 C          44.9850   12.2596  -25.0192 C.ar    1  UNL1        0.0031
     10 C          46.0736   12.8384  -25.6899 C.ar    1  UNL1        0.0001
     11 C          47.2019   13.2286  -24.9473 C.ar    1  UNL1        0.0004
     12 C          47.2646   13.0265  -23.5573 C.ar    1  UNL1        0.0317
     13 C          48.4516   13.6102  -22.8082 C.3     1  UNL1        0.1236
     14 C          46.0285   13.0503  -27.1590 C.ar    1  UNL1        0.0045
     15 C          45.9005   14.3624  -27.6945 C.ar    1  UNL1        0.0383
     16 C          45.8566   14.5736  -29.0859 C.ar    1  UNL1        0.1526
     17 O          45.7339   15.8622  -29.6010 O.3     1  UNL1       -0.5039
     18 C          45.9421   13.4552  -29.9154 C.ar    1  UNL1        0.1320
     19 N          45.9186   13.4169  -31.2605 N.ar    1  UNL1       -0.2210
     20 C          46.0319   12.0895  -31.5286 C.ar    1  UNL1        0.1751
     21 N          46.1228   11.3201  -30.4177 N.ar    1  UNL1       -0.3348
     22 C          46.0654   12.1980  -29.4094 C.ar    1  UNL1        0.0787
     23 C          46.1133   11.9460  -28.0414 C.ar    1  UNL1        0.0187
     24 H          45.7014   16.0338  -30.5989 H       1  UNL1        0.2923
     25 H          46.2162   10.2815  -30.3641 H       1  UNL1        0.1675
     26 C          50.3280   12.6157  -18.3986 C.ar    1  UNL1       -0.0165
     27 C          50.1601   12.3237  -17.0338 C.ar    1  UNL1        0.0142
     28 C          49.0051   12.7234  -16.3514 C.ar    1  UNL1        0.1054
     29 C          48.0061   13.4254  -17.0330 C.ar    1  UNL1        0.0185
     30 C          48.1570   13.7232  -18.3877 C.ar    1  UNL1        0.0055
     31 C          49.3148   13.3366  -19.0776 C.ar    1  UNL1        0.0497
     32 S          48.8251   12.3637  -14.6377 S.O2    1  UNL1        0.0104
     33 C          50.3988   11.8736  -13.9708 C.3     1  UNL1        0.1816
     34 O          48.3279   13.5802  -13.9080 O.2     1  UNL1       -0.1686
     35 O          47.8310   11.2515  -14.4539 O.2     1  UNL1       -0.1686
     36 C          51.5640   12.0923  -19.1023 C.3     1  UNL1        0.0265
     37 C          53.2602   13.4905  -20.3853 C.3     1  UNL1        0.0004
     38 C          52.7392   13.0758  -19.0105 C.3     1  UNL1        0.0047
@<TRIPOS>BOND
     1    37    38    1
     2    38    36    1
     3    36    26    1
     4    26    27   ar
     5    27    28   ar
     6    28    32    1
     7    32    33    1
     8    32    34    2
     9    32    35    2
    10    28    29   ar
    11    29    30   ar
    12    30    31   ar
    13    31     1    1
    14     1     2    2
    15     1     3   am
    16     3     4    1
    17     4     5    1
    18     5     6    1
    19     6     7    1
    20     7     8   ar
    21     8     9   ar
    22     9    10   ar
    23    10    14    1
    24    14    15   ar
    25    15    16   ar
    26    16    17    1
    27    16    18   ar
    28    18    19   ar
    29    19    20   ar
    30    20    21   ar
    31    21    22   ar
    32    22    23   ar
    33    10    11   ar
    34    11    12   ar
    35    12    13    1
    36    31    26   ar
    37    13     3    1
    38    12     7   ar
    39    23    14   ar
    40    22    18   ar
    41    17    24    1
    42    21    25    1
