@<TRIPOS>MOLECULE
*****
 25 28 0 0 0
SMALL
GASTEIGER

@<TRIPOS>ATOM
      1 C          47.0661   15.9407  -26.0400 C.3     1  UNL1        0.1420
      2 O          46.3975   17.1007  -25.6057 O.3     1  UNL1       -0.3753
      3 C          48.5277   16.2902  -26.4424 C.3     1  UNL1        0.0395
      4 C          49.4241   15.1257  -25.9704 C.3     1  UNL1        0.0036
      5 C          48.4348   14.0787  -25.4817 C.3     1  UNL1        0.0036
      6 C          48.8780   12.9963  -24.4966 C.3     1  UNL1        0.0052
      7 C          50.1903   12.2759  -24.8383 C.3     1  UNL1        0.0152
      8 C          50.4826   11.1097  -23.8380 C.3     1  UNL1        0.0747
      9 I          51.0612    9.3417  -24.9084 I       1  UNL1       -0.0705
     10 C          49.3429   10.7563  -22.8750 C.ar    1  UNL1       -0.0137
     11 C          49.6367   10.0324  -21.7081 C.ar    1  UNL1        0.0328
     12 C          48.6313    9.7382  -20.7799 C.ar    1  UNL1        0.1334
     13 O          48.9226    9.0205  -19.6220 O.3     1  UNL1       -0.5055
     14 C          47.3248   10.1735  -21.0088 C.ar    1  UNL1        0.0363
     15 C          47.0094   10.8897  -22.1655 C.ar    1  UNL1       -0.0015
     16 C          48.0051   11.1666  -23.1213 C.ar    1  UNL1       -0.0255
     17 C          47.7598   11.9261  -24.4054 C.3     1  UNL1        0.0221
     18 C          46.3140   12.4271  -24.7678 C.3     1  UNL1        0.0045
     19 C          46.0315   13.9401  -24.5909 C.3     1  UNL1        0.0035
     20 C          47.2479   14.8839  -24.9040 C.3     1  UNL1        0.0333
     21 C          47.6095   15.6308  -23.5716 C.3     1  UNL1        0.0033
     22 H          45.4916   16.8260  -25.3037 H       1  UNL1        0.2114
     23 H          49.8606    8.6918  -19.4241 H       1  UNL1        0.2922
     24 C          45.7779   14.9404  -28.1803 C.1     1  UNL1       -0.0119
     25 C          46.3553   15.3873  -27.2208 C.1     1  UNL1       -0.0526
@<TRIPOS>BOND
     1    24    25    3
     2     1    25    1
     3     1     2    1
     4     1     3    1
     5     3     4    1
     6     4     5    1
     7     5     6    1
     8     6     7    1
     9     7     8    1
    10     8     9    1
    11     8    10    1
    12    10    11   ar
    13    11    12   ar
    14    12    13    1
    15    12    14   ar
    16    14    15   ar
    17    15    16   ar
    18    16    17    1
    19    17    18    1
    20    18    19    1
    21    19    20    1
    22    20    21    1
    23    20     1    1
    24    20     5    1
    25    17     6    1
    26    16    10   ar
    27     2    22    1
    28    13    23    1
@<TRIPOS>MOLECULE
*****
 25 28 0 0 0
SMALL
GASTEIGER

@<TRIPOS>ATOM
      1 C          49.6913   11.3112  -22.2797 C.3     1  UNL1        0.1420
      2 O          50.4814   11.2510  -21.1164 O.3     1  UNL1       -0.3753
      3 C          48.1859   11.1941  -21.9051 C.3     1  UNL1        0.0395
      4 C          47.4078   12.1569  -22.8270 C.3     1  UNL1        0.0036
      5 C          48.4594   12.6516  -23.8086 C.3     1  UNL1        0.0036
      6 C          48.2529   13.9634  -24.5670 C.3     1  UNL1        0.0052
      7 C          46.8771   14.1488  -25.2230 C.3     1  UNL1        0.0152
      8 C          46.8180   15.4607  -26.0726 C.3     1  UNL1        0.0747
      9 I          45.9347   15.0647  -27.9881 I       1  UNL1       -0.0705
     10 C          48.1561   16.1797  -26.2820 C.ar    1  UNL1       -0.0137
     11 C          48.1508   17.5311  -26.6636 C.ar    1  UNL1        0.0328
     12 C          49.3518   18.2344  -26.8120 C.ar    1  UNL1        0.1334
     13 O          49.3467   19.5752  -27.1902 O.3     1  UNL1       -0.5055
     14 C          50.5677   17.5922  -26.5715 C.ar    1  UNL1        0.0363
     15 C          50.5963   16.2472  -26.1968 C.ar    1  UNL1       -0.0015
     16 C          49.3971   15.5203  -26.0729 C.ar    1  UNL1       -0.0255
     17 C          49.3265   14.0617  -25.6813 C.3     1  UNL1        0.0221
     18 C          50.6446   13.2440  -25.4236 C.3     1  UNL1        0.0045
     19 C          51.0057   12.9432  -23.9474 C.3     1  UNL1        0.0035
     20 C          49.7768   12.6944  -23.0006 C.3     1  UNL1        0.0333
     21 C          49.7902   13.8296  -21.9166 C.3     1  UNL1        0.0033
     22 H          51.4263   11.3880  -21.3916 H       1  UNL1        0.2114
     23 H          48.4819   20.0719  -27.3700 H       1  UNL1        0.2922
     24 C          50.3592    9.2652  -23.8950 C.1     1  UNL1       -0.0119
     25 C          50.0598   10.1827  -23.1723 C.1     1  UNL1       -0.0526
@<TRIPOS>BOND
     1    24    25    3
     2     1    25    1
     3     1     2    1
     4     1     3    1
     5     3     4    1
     6     4     5    1
     7     5     6    1
     8     6     7    1
     9     7     8    1
    10     8     9    1
    11     8    10    1
    12    10    11   ar
    13    11    12   ar
    14    12    13    1
    15    12    14   ar
    16    14    15   ar
    17    15    16   ar
    18    16    17    1
    19    17    18    1
    20    18    19    1
    21    19    20    1
    22    20    21    1
    23    20     1    1
    24    20     5    1
    25    17     6    1
    26    16    10   ar
    27     2    22    1
    28    13    23    1
@<TRIPOS>MOLECULE
*****
 25 28 0 0 0
SMALL
GASTEIGER

@<TRIPOS>ATOM
      1 C          50.4916   13.2384  -22.8554 C.3     1  UNL1        0.1420
      2 O          51.6127   12.4384  -22.5645 O.3     1  UNL1       -0.3753
      3 C          50.9403   14.7046  -23.1189 C.3     1  UNL1        0.0395
      4 C          50.0718   15.2495  -24.2727 C.3     1  UNL1        0.0036
      5 C          49.0450   14.1517  -24.5062 C.3     1  UNL1        0.0036
      6 C          48.3155   14.0475  -25.8462 C.3     1  UNL1        0.0052
      7 C          47.7324   15.3575  -26.3954 C.3     1  UNL1        0.0152
      8 C          46.9045   15.1153  -27.7000 C.3     1  UNL1        0.0747
      9 I          45.0309   16.1568  -27.5936 I       1  UNL1       -0.0705
     10 C          46.6372   13.6481  -28.0568 C.ar    1  UNL1       -0.0137
     11 C          46.2744   13.3225  -29.3737 C.ar    1  UNL1        0.0328
     12 C          46.0749   11.9889  -29.7489 C.ar    1  UNL1        0.1334
     13 O          45.7153   11.6657  -31.0554 O.3     1  UNL1       -0.5055
     14 C          46.2450   10.9698  -28.8102 C.ar    1  UNL1        0.0363
     15 C          46.5999   11.2716  -27.4936 C.ar    1  UNL1       -0.0015
     16 C          46.7745   12.6106  -27.0958 C.ar    1  UNL1       -0.0255
     17 C          47.1497   13.0367  -25.6945 C.3     1  UNL1        0.0221
     18 C          47.3296   11.9633  -24.5596 C.3     1  UNL1        0.0045
     19 C          48.7815   11.6251  -24.1382 C.3     1  UNL1        0.0035
     20 C          49.7859   12.8324  -24.1885 C.3     1  UNL1        0.0333
     21 C          50.8828   12.4779  -25.2539 C.3     1  UNL1        0.0033
     22 H          51.2919   11.5037  -22.4616 H       1  UNL1        0.2114
     23 H          45.5860   12.3806  -31.7618 H       1  UNL1        0.2922
     24 C          48.8138   13.1934  -20.7521 C.1     1  UNL1       -0.0119
     25 C          49.5666   13.2139  -21.6937 C.1     1  UNL1       -0.0526
@<TRIPOS>BOND
     1    24    25    3
     2     1    25    1
     3     1     2    1
     4     1     3    1
     5     3     4    1
     6     4     5    1
     7     5     6    1
     8     6     7    1
     9     7     8    1
    10     8     9    1
    11     8    10    1
    12    10    11   ar
    13    11    12   ar
    14    12    13    1
    15    12    14   ar
    16    14    15   ar
    17    15    16   ar
    18    16    17    1
    19    17    18    1
    20    18    19    1
    21    19    20    1
    22    20    21    1
    23    20     1    1
    24    20     5    1
    25    17     6    1
    26    16    10   ar
    27     2    22    1
    28    13    23    1
@<TRIPOS>MOLECULE
*****
 25 28 0 0 0
SMALL
GASTEIGER

@<TRIPOS>ATOM
      1 C          49.3917   11.3697  -20.2888 C.3     1  UNL1        0.1420
      2 O          49.9817   10.0953  -20.1926 O.3     1  UNL1       -0.3753
      3 C          50.4558   12.4693  -20.0080 C.3     1  UNL1        0.0395
      4 C          50.1765   13.6362  -20.9790 C.3     1  UNL1        0.0036
      5 C          48.8679   13.2471  -21.6499 C.3     1  UNL1        0.0036
      6 C          48.4832   13.8492  -23.0020 C.3     1  UNL1        0.0052
      7 C          48.6374   15.3719  -23.1258 C.3     1  UNL1        0.0152
      8 C          48.1006   15.8938  -24.4990 C.3     1  UNL1        0.0747
      9 I          46.8585   17.6188  -24.2027 I       1  UNL1       -0.0705
     10 C          47.3356   14.8711  -25.3476 C.ar    1  UNL1       -0.0137
     11 C          47.1768   15.1092  -26.7224 C.ar    1  UNL1        0.0328
     12 C          46.5311   14.1726  -27.5379 C.ar    1  UNL1        0.1334
     13 O          46.3738   14.4085  -28.9018 O.3     1  UNL1       -0.5055
     14 C          46.0462   12.9862  -26.9846 C.ar    1  UNL1        0.0363
     15 C          46.1882   12.7318  -25.6188 C.ar    1  UNL1       -0.0015
     16 C          46.8091   13.6786  -24.7823 C.ar    1  UNL1       -0.0255
     17 C          47.0016   13.4976  -23.2936 C.3     1  UNL1        0.0221
     18 C          46.4586   12.2095  -22.5736 C.3     1  UNL1        0.0045
     19 C          47.5027   11.1374  -22.1731 C.3     1  UNL1        0.0035
     20 C          48.9009   11.7036  -21.7337 C.3     1  UNL1        0.0333
     21 C          49.9600   11.1719  -22.7631 C.3     1  UNL1        0.0033
     22 H          49.2873    9.4274  -20.4355 H       1  UNL1        0.2114
     23 H          46.7160   15.2579  -29.3357 H       1  UNL1        0.2922
     24 C          47.4230   11.5642  -18.4648 C.1     1  UNL1       -0.0119
     25 C          48.3050   11.4757  -19.2821 C.1     1  UNL1       -0.0526
@<TRIPOS>BOND
     1    24    25    3
     2     1    25    1
     3     1     2    1
     4     1     3    1
     5     3     4    1
     6     4     5    1
     7     5     6    1
     8     6     7    1
     9     7     8    1
    10     8     9    1
    11     8    10    1
    12    10    11   ar
    13    11    12   ar
    14    12    13    1
    15    12    14   ar
    16    14    15   ar
    17    15    16   ar
    18    16    17    1
    19    17    18    1
    20    18    19    1
    21    19    20    1
    22    20    21    1
    23    20     1    1
    24    20     5    1
    25    17     6    1
    26    16    10   ar
    27     2    22    1
    28    13    23    1
@<TRIPOS>MOLECULE
*****
 25 28 0 0 0
SMALL
GASTEIGER

@<TRIPOS>ATOM
      1 C          47.2337   17.3677  -25.5256 C.3     1  UNL1        0.1420
      2 O          46.1935   17.4654  -26.4689 O.3     1  UNL1       -0.3753
      3 C          46.7594   17.9263  -24.1533 C.3     1  UNL1        0.0395
      4 C          47.3584   17.0192  -23.0574 C.3     1  UNL1        0.0036
      5 C          48.2915   16.0919  -23.8212 C.3     1  UNL1        0.0036
      6 C          48.7039   14.7461  -23.2235 C.3     1  UNL1        0.0052
      7 C          49.1700   14.7771  -21.7607 C.3     1  UNL1        0.0152
      8 C          49.6842   13.3764  -21.2920 C.3     1  UNL1        0.0747
      9 I          51.5498   13.5815  -20.2510 I       1  UNL1       -0.0705
     10 C          49.8440   12.3222  -22.3940 C.ar    1  UNL1       -0.0137
     11 C          49.9009   10.9656  -22.0359 C.ar    1  UNL1        0.0328
     12 C          49.9925    9.9725  -23.0180 C.ar    1  UNL1        0.1334
     13 O          50.0485    8.6266  -22.6630 O.3     1  UNL1       -0.5055
     14 C          50.0198   10.3296  -24.3673 C.ar    1  UNL1        0.0363
     15 C          49.9703   11.6731  -24.7454 C.ar    1  UNL1       -0.0015
     16 C          49.9080   12.6831  -23.7668 C.ar    1  UNL1       -0.0255
     17 C          49.8593   14.1621  -24.0767 C.3     1  UNL1        0.0221
     18 C          49.9199   14.6637  -25.5657 C.3     1  UNL1        0.0045
     19 C          48.5928   15.1587  -26.1933 C.3     1  UNL1        0.0035
     20 C          47.6201   15.8898  -25.1992 C.3     1  UNL1        0.0333
     21 C          46.3091   15.0304  -25.1181 C.3     1  UNL1        0.0033
     22 H          46.5153   17.0465  -27.3105 H       1  UNL1        0.2114
     23 H          50.0284    8.3330  -21.6933 H       1  UNL1        0.2922
     24 C          49.3325   18.8142  -26.3883 C.1     1  UNL1       -0.0119
     25 C          48.3929   18.1652  -26.0012 C.1     1  UNL1       -0.0526
@<TRIPOS>BOND
     1    24    25    3
     2     1    25    1
     3     1     2    1
     4     1     3    1
     5     3     4    1
     6     4     5    1
     7     5     6    1
     8     6     7    1
     9     7     8    1
    10     8     9    1
    11     8    10    1
    12    10    11   ar
    13    11    12   ar
    14    12    13    1
    15    12    14   ar
    16    14    15   ar
    17    15    16   ar
    18    16    17    1
    19    17    18    1
    20    18    19    1
    21    19    20    1
    22    20    21    1
    23    20     1    1
    24    20     5    1
    25    17     6    1
    26    16    10   ar
    27     2    22    1
    28    13    23    1
@<TRIPOS>MOLECULE
*****
 25 28 0 0 0
SMALL
GASTEIGER

@<TRIPOS>ATOM
      1 C          47.5652   11.7528  -18.5649 C.3     1  UNL1        0.1420
      2 O          47.6017   10.9127  -17.4361 O.3     1  UNL1       -0.3753
      3 C          48.2463   13.1124  -18.2364 C.3     1  UNL1        0.0395
      4 C          49.0401   13.5419  -19.4885 C.3     1  UNL1        0.0036
      5 C          48.6445   12.5168  -20.5405 C.3     1  UNL1        0.0036
      6 C          49.5432   12.2660  -21.7522 C.3     1  UNL1        0.0052
      7 C          50.0447   13.5185  -22.4853 C.3     1  UNL1        0.0152
      8 C          50.8475   13.1464  -23.7750 C.3     1  UNL1        0.0747
      9 I          50.1994   14.3543  -25.4264 I       1  UNL1       -0.0705
     10 C          50.7964   11.6709  -24.1891 C.ar    1  UNL1       -0.0137
     11 C          51.7791   11.1733  -25.0601 C.ar    1  UNL1        0.0328
     12 C          51.7957    9.8202  -25.4174 C.ar    1  UNL1        0.1334
     13 O          52.7707    9.3263  -26.2812 O.3     1  UNL1       -0.5055
     14 C          50.8329    8.9525  -24.8989 C.ar    1  UNL1        0.0363
     15 C          49.8430    9.4272  -24.0358 C.ar    1  UNL1       -0.0015
     16 C          49.7972   10.7915  -23.6919 C.ar    1  UNL1       -0.0255
     17 C          48.7617   11.4001  -22.7736 C.3     1  UNL1        0.0221
     18 C          47.6162   10.5094  -22.1677 C.3     1  UNL1        0.0045
     19 C          47.7501   10.1147  -20.6756 C.3     1  UNL1        0.0035
     20 C          48.4122   11.2042  -19.7573 C.3     1  UNL1        0.0333
     21 C          49.7410   10.5883  -19.1926 C.3     1  UNL1        0.0033
     22 H          47.2123   10.0386  -17.7036 H       1  UNL1        0.2114
     23 H          53.4854    9.9283  -26.6734 H       1  UNL1        0.2922
     24 C          44.9986   12.1913  -19.2442 C.1     1  UNL1       -0.0119
     25 C          46.1489   11.9961  -18.9399 C.1     1  UNL1       -0.0526
@<TRIPOS>BOND
     1    24    25    3
     2     1    25    1
     3     1     2    1
     4     1     3    1
     5     3     4    1
     6     4     5    1
     7     5     6    1
     8     6     7    1
     9     7     8    1
    10     8     9    1
    11     8    10    1
    12    10    11   ar
    13    11    12   ar
    14    12    13    1
    15    12    14   ar
    16    14    15   ar
    17    15    16   ar
    18    16    17    1
    19    17    18    1
    20    18    19    1
    21    19    20    1
    22    20    21    1
    23    20     1    1
    24    20     5    1
    25    17     6    1
    26    16    10   ar
    27     2    22    1
    28    13    23    1
@<TRIPOS>MOLECULE
*****
 25 28 0 0 0
SMALL
GASTEIGER

@<TRIPOS>ATOM
      1 C          49.6703   11.4807  -19.1487 C.3     1  UNL1        0.1420
      2 O          50.0413   10.1813  -18.7545 O.3     1  UNL1       -0.3753
      3 C          50.9395   12.3609  -19.3352 C.3     1  UNL1        0.0395
      4 C          50.6959   13.2616  -20.5649 C.3     1  UNL1        0.0036
      5 C          49.2421   12.9989  -20.9273 C.3     1  UNL1        0.0036
      6 C          48.7324   13.2902  -22.3393 C.3     1  UNL1        0.0052
      7 C          49.1202   14.6564  -22.9232 C.3     1  UNL1        0.0152
      8 C          48.4455   14.8994  -24.3131 C.3     1  UNL1        0.0747
      9 I          47.5892   16.8660  -24.3883 I       1  UNL1       -0.0705
     10 C          47.3787   13.8775  -24.7238 C.ar    1  UNL1       -0.0137
     11 C          47.0216   13.7722  -26.0778 C.ar    1  UNL1        0.0328
     12 C          46.0910   12.8144  -26.4970 C.ar    1  UNL1        0.1334
     13 O          45.7369   12.7096  -27.8402 O.3     1  UNL1       -0.5055
     14 C          45.5164   11.9488  -25.5646 C.ar    1  UNL1        0.0363
     15 C          45.8528   12.0400  -24.2123 C.ar    1  UNL1       -0.0015
     16 C          46.7649   13.0182  -23.7732 C.ar    1  UNL1       -0.0255
     17 C          47.1846   13.2000  -22.3321 C.3     1  UNL1        0.0221
     18 C          46.5658   12.2953  -21.2047 C.3     1  UNL1        0.0045
     19 C          47.4656   11.1692  -20.6368 C.3     1  UNL1        0.0035
     20 C          48.9954   11.5182  -20.5569 C.3     1  UNL1        0.0333
     21 C          49.7483   10.5193  -21.5053 C.3     1  UNL1        0.0033
     22 H          49.2110    9.6378  -18.7039 H       1  UNL1        0.2114
     23 H          46.1367   13.3205  -28.5430 H       1  UNL1        0.2922
     24 C          48.1174   12.5630  -17.2360 C.1     1  UNL1       -0.0119
     25 C          48.8138   12.0792  -18.0932 C.1     1  UNL1       -0.0526
@<TRIPOS>BOND
     1    24    25    3
     2     1    25    1
     3     1     2    1
     4     1     3    1
     5     3     4    1
     6     4     5    1
     7     5     6    1
     8     6     7    1
     9     7     8    1
    10     8     9    1
    11     8    10    1
    12    10    11   ar
    13    11    12   ar
    14    12    13    1
    15    12    14   ar
    16    14    15   ar
    17    15    16   ar
    18    16    17    1
    19    17    18    1
    20    18    19    1
    21    19    20    1
    22    20    21    1
    23    20     1    1
    24    20     5    1
    25    17     6    1
    26    16    10   ar
    27     2    22    1
    28    13    23    1
@<TRIPOS>MOLECULE
*****
 25 28 0 0 0
SMALL
GASTEIGER

@<TRIPOS>ATOM
      1 C          47.9217   11.5308  -22.4424 C.3     1  UNL1        0.1420
      2 O          48.0605   10.1436  -22.6365 O.3     1  UNL1       -0.3753
      3 C          49.2835   12.1442  -22.0070 C.3     1  UNL1        0.0395
      4 C          49.4145   13.5134  -22.7075 C.3     1  UNL1        0.0036
      5 C          48.0595   13.7160  -23.3685 C.3     1  UNL1        0.0036
      6 C          47.9110   14.6767  -24.5491 C.3     1  UNL1        0.0052
      7 C          48.5570   16.0587  -24.3738 C.3     1  UNL1        0.0152
      8 C          48.2387   16.9988  -25.5825 C.3     1  UNL1        0.0747
      9 I          47.6263   18.9314  -24.8779 I       1  UNL1       -0.0705
     10 C          47.1921   16.4777  -26.5746 C.ar    1  UNL1       -0.0137
     11 C          47.1381   17.0340  -27.8628 C.ar    1  UNL1        0.0328
     12 C          46.2320   16.5470  -28.8120 C.ar    1  UNL1        0.1334
     13 O          46.1785   17.0986  -30.0901 O.3     1  UNL1       -0.5055
     14 C          45.3781   15.4933  -28.4813 C.ar    1  UNL1        0.0363
     15 C          45.4110   14.9292  -27.2042 C.ar    1  UNL1       -0.0015
     16 C          46.2968   15.4292  -26.2310 C.ar    1  UNL1       -0.0255
     17 C          46.3999   14.8911  -24.8219 C.3     1  UNL1        0.0221
     18 C          45.4556   13.7277  -24.3453 C.3     1  UNL1        0.0045
     19 C          46.0857   12.3174  -24.2265 C.3     1  UNL1        0.0035
     20 C          47.5864   12.2975  -23.7615 C.3     1  UNL1        0.0333
     21 C          48.4262   11.6780  -24.9340 C.3     1  UNL1        0.0033
     22 H          47.1889    9.8015  -22.9690 H       1  UNL1        0.2114
     23 H          46.7856   17.8625  -30.3635 H       1  UNL1        0.2922
     24 C          46.1022   11.9668  -20.5084 C.1     1  UNL1       -0.0119
     25 C          46.9166   11.7708  -21.3757 C.1     1  UNL1       -0.0526
@<TRIPOS>BOND
     1    24    25    3
     2     1    25    1
     3     1     2    1
     4     1     3    1
     5     3     4    1
     6     4     5    1
     7     5     6    1
     8     6     7    1
     9     7     8    1
    10     8     9    1
    11     8    10    1
    12    10    11   ar
    13    11    12   ar
    14    12    13    1
    15    12    14   ar
    16    14    15   ar
    17    15    16   ar
    18    16    17    1
    19    17    18    1
    20    18    19    1
    21    19    20    1
    22    20    21    1
    23    20     1    1
    24    20     5    1
    25    17     6    1
    26    16    10   ar
    27     2    22    1
    28    13    23    1
@<TRIPOS>MOLECULE
*****
 25 28 0 0 0
SMALL
GASTEIGER

@<TRIPOS>ATOM
      1 C          46.8956   15.3398  -25.3312 C.3     1  UNL1        0.1420
      2 O          45.6522   15.1286  -25.9561 O.3     1  UNL1       -0.3753
      3 C          46.8049   16.5580  -24.3678 C.3     1  UNL1        0.0395
      4 C          47.6368   16.2139  -23.1140 C.3     1  UNL1        0.0036
      5 C          48.3154   14.9014  -23.4755 C.3     1  UNL1        0.0036
      6 C          48.8266   13.9673  -22.3778 C.3     1  UNL1        0.0052
      7 C          49.6519   14.6294  -21.2650 C.3     1  UNL1        0.0152
      8 C          50.2268   13.5699  -20.2685 C.3     1  UNL1        0.0747
      9 I          52.3019   13.9616  -19.8851 I       1  UNL1       -0.0705
     10 C          50.0680   12.1040  -20.6896 C.ar    1  UNL1       -0.0137
     11 C          50.1739   11.0997  -19.7139 C.ar    1  UNL1        0.0328
     12 C          49.9817    9.7550  -20.0515 C.ar    1  UNL1        0.1334
     13 O          50.0864    8.7585  -19.0836 O.3     1  UNL1       -0.5055
     14 C          49.6738    9.4059  -21.3676 C.ar    1  UNL1        0.0363
     15 C          49.5694   10.3881  -22.3549 C.ar    1  UNL1       -0.0015
     16 C          49.7896   11.7411  -22.0348 C.ar    1  UNL1       -0.0255
     17 C          49.7074   12.8729  -23.0339 C.3     1  UNL1        0.0221
     18 C          49.4002   12.5756  -24.5470 C.3     1  UNL1        0.0045
     19 C          47.9722   12.9037  -25.0501 C.3     1  UNL1        0.0035
     20 C          47.3083   14.1647  -24.3884 C.3     1  UNL1        0.0333
     21 C          46.0366   13.6663  -23.6150 C.3     1  UNL1        0.0033
     22 H          45.7354   14.3110  -26.5146 H       1  UNL1        0.2114
     23 H          50.3061    8.9777  -18.1190 H       1  UNL1        0.2922
     24 C          48.7471   15.8454  -27.2173 C.1     1  UNL1       -0.0119
     25 C          47.9180   15.6176  -26.3721 C.1     1  UNL1       -0.0526
@<TRIPOS>BOND
     1    24    25    3
     2     1    25    1
     3     1     2    1
     4     1     3    1
     5     3     4    1
     6     4     5    1
     7     5     6    1
     8     6     7    1
     9     7     8    1
    10     8     9    1
    11     8    10    1
    12    10    11   ar
    13    11    12   ar
    14    12    13    1
    15    12    14   ar
    16    14    15   ar
    17    15    16   ar
    18    16    17    1
    19    17    18    1
    20    18    19    1
    21    19    20    1
    22    20    21    1
    23    20     1    1
    24    20     5    1
    25    17     6    1
    26    16    10   ar
    27     2    22    1
    28    13    23    1
