@<TRIPOS>MOLECULE
*****
 36 39 0 0 0
SMALL
GASTEIGER

@<TRIPOS>ATOM
      1 C         -22.7665   -7.9222  -12.7291 C.2     1  UNL1       -0.0397
      2 C         -22.3004   -9.1581  -12.3847 C.2     1  UNL1       -0.0076
      3 C         -21.3577   -9.3510  -11.2405 C.ar    1  UNL1       -0.0015
      4 C         -20.2501  -10.1970  -11.4023 C.ar    1  UNL1        0.0030
      5 C         -19.3332  -10.3774  -10.3691 C.ar    1  UNL1        0.0400
      6 C         -19.4990   -9.7113   -9.1434 C.ar    1  UNL1        0.1718
      7 C         -20.6101   -8.8676   -8.9614 C.ar    1  UNL1        0.1636
      8 O         -20.7856   -8.1929   -7.7508 O.3     1  UNL1       -0.5031
      9 C         -21.5526   -8.6980   -9.9988 C.ar    1  UNL1        0.0145
     10 C         -22.7674   -7.8204   -9.7988 C.3     1  UNL1        0.0299
     11 C         -22.6586   -6.5117  -10.5957 C.3     1  UNL1        0.0091
     12 C         -22.1908   -6.6888  -12.0523 C.3     1  UNL1        0.0227
     13 H         -20.1364   -8.2822   -6.9785 H       1  UNL1        0.2923
     14 C         -22.7187  -10.3740  -13.1142 C.ar    1  UNL1        0.0056
     15 C         -22.1329  -10.6759  -14.3448 C.ar    1  UNL1        0.0402
     16 C         -22.4929  -11.8440  -15.0368 C.ar    1  UNL1        0.1754
     17 C         -23.4738  -12.7008  -14.5079 C.ar    1  UNL1        0.2061
     18 C         -24.0936  -12.3825  -13.2703 C.ar    1  UNL1        0.1754
     19 C         -23.7042  -11.2135  -12.5880 C.ar    1  UNL1        0.0402
     20 O         -21.8873  -12.1978  -16.2534 O.3     1  UNL1       -0.4683
     21 C         -22.3941  -11.8515  -17.5382 C.3     1  UNL1        0.2526
     22 O         -23.7773  -13.8518  -15.2602 O.3     1  UNL1       -0.4654
     23 C         -23.1425  -15.1216  -15.1616 C.3     1  UNL1        0.2528
     24 O         -25.0769  -13.2308  -12.7376 O.3     1  UNL1       -0.4683
     25 C         -26.2170  -13.7055  -13.4467 C.3     1  UNL1        0.2526
     26 O         -18.5840   -9.8640   -8.0891 O.3     1  UNL1       -0.4684
     27 C         -17.6958  -10.9673   -7.9421 C.3     1  UNL1        0.2526
     28 C         -23.7365   -7.7019  -13.8862 C.3     1  UNL1        0.0514
     29 C         -26.0735   -6.6977  -14.1168 C.ar    1  UNL1        0.1350
     30 C         -27.3977   -6.5767  -13.6472 C.ar    1  UNL1        0.0366
     31 C         -27.8391   -7.3409  -12.5657 C.ar    1  UNL1        0.0031
     32 C         -26.9761   -8.2452  -11.9503 C.ar    1  UNL1       -0.0001
     33 C         -25.6619   -8.3731  -12.4003 C.ar    1  UNL1       -0.0010
     34 C         -25.1861   -7.5788  -13.4606 C.ar    1  UNL1        0.0158
     35 C         -26.3093   -4.8654  -15.8042 C.3     1  UNL1        0.2525
     36 O         -25.6183   -5.9692  -15.2266 O.3     1  UNL1       -0.4717
@<TRIPOS>BOND
     1    35    36    1
     2    36    29    1
     3    29    30   ar
     4    30    31   ar
     5    31    32   ar
     6    32    33   ar
     7    33    34   ar
     8    34    28    1
     9    28     1    1
    10     1     2    2
    11     2    14    1
    12    14    15   ar
    13    15    16   ar
    14    16    20    1
    15    20    21    1
    16    16    17   ar
    17    17    22    1
    18    22    23    1
    19    17    18   ar
    20    18    24    1
    21    24    25    1
    22    18    19   ar
    23     2     3    1
    24     3     4   ar
    25     4     5   ar
    26     5     6   ar
    27     6    26    1
    28    26    27    1
    29     6     7   ar
    30     7     8    1
    31     7     9   ar
    32     9    10    1
    33    10    11    1
    34    11    12    1
    35    34    29   ar
    36    12     1    1
    37    19    14   ar
    38     9     3   ar
    39     8    13    1
@<TRIPOS>MOLECULE
*****
 36 39 0 0 0
SMALL
GASTEIGER

@<TRIPOS>ATOM
      1 C         -22.8214   -7.9549  -12.7466 C.2     1  UNL1       -0.0397
      2 C         -22.3158   -9.1755  -12.4031 C.2     1  UNL1       -0.0076
      3 C         -21.3837   -9.3419  -11.2461 C.ar    1  UNL1       -0.0015
      4 C         -20.2437  -10.1460  -11.3967 C.ar    1  UNL1        0.0030
      5 C         -19.3363  -10.3002  -10.3510 C.ar    1  UNL1        0.0400
      6 C         -19.5442   -9.6490   -9.1238 C.ar    1  UNL1        0.1718
      7 C         -20.6878   -8.8474   -8.9531 C.ar    1  UNL1        0.1636
      8 O         -20.9056   -8.1879   -7.7409 O.3     1  UNL1       -0.5031
      9 C         -21.6205   -8.7050  -10.0034 C.ar    1  UNL1        0.0145
     10 C         -22.8692   -7.8733   -9.8161 C.3     1  UNL1        0.0299
     11 C         -22.7964   -6.5561  -10.6029 C.3     1  UNL1        0.0091
     12 C         -22.3010   -6.7061  -12.0535 C.3     1  UNL1        0.0227
     13 H         -20.2650   -8.2589   -6.9597 H       1  UNL1        0.2923
     14 C         -22.6789  -10.4007  -13.1465 C.ar    1  UNL1        0.0056
     15 C         -23.6346  -11.2703  -12.6183 C.ar    1  UNL1        0.0402
     16 C         -24.0172  -12.4218  -13.3256 C.ar    1  UNL1        0.1754
     17 C         -23.4121  -12.7237  -14.5580 C.ar    1  UNL1        0.2061
     18 C         -22.4181  -11.8571  -15.0853 C.ar    1  UNL1        0.1754
     19 C         -22.0629  -10.7005  -14.3645 C.ar    1  UNL1        0.0402
     20 O         -25.0092  -13.2901  -12.8418 O.3     1  UNL1       -0.4683
     21 C         -26.2324  -13.5726  -13.5138 C.3     1  UNL1        0.2526
     22 O         -23.8514  -13.8942  -15.2058 O.3     1  UNL1       -0.4654
     23 C         -23.1728  -15.1443  -15.2514 C.3     1  UNL1        0.2528
     24 O         -21.8062  -12.1538  -16.3133 O.3     1  UNL1       -0.4683
     25 C         -22.3883  -11.9230  -17.5924 C.3     1  UNL1        0.2526
     26 O         -18.6399   -9.7756   -8.0568 O.3     1  UNL1       -0.4684
     27 C         -17.7572  -10.8775   -7.8710 C.3     1  UNL1        0.2526
     28 C         -23.7817   -7.7619  -13.9167 C.3     1  UNL1        0.0514
     29 C         -26.0946   -6.6997  -14.1283 C.ar    1  UNL1        0.1350
     30 C         -27.4234   -6.5765  -13.6725 C.ar    1  UNL1        0.0366
     31 C         -27.8966   -7.3871  -12.6393 C.ar    1  UNL1        0.0031
     32 C         -27.0612   -8.3398  -12.0598 C.ar    1  UNL1       -0.0001
     33 C         -25.7430   -8.4706  -12.4966 C.ar    1  UNL1       -0.0010
     34 C         -25.2350   -7.6318  -13.5065 C.ar    1  UNL1        0.0158
     35 C         -26.3210   -4.8493  -15.7971 C.3     1  UNL1        0.2525
     36 O         -25.6078   -5.9235  -15.1914 O.3     1  UNL1       -0.4717
@<TRIPOS>BOND
     1    35    36    1
     2    36    29    1
     3    29    30   ar
     4    30    31   ar
     5    31    32   ar
     6    32    33   ar
     7    33    34   ar
     8    34    28    1
     9    28     1    1
    10     1     2    2
    11     2    14    1
    12    14    15   ar
    13    15    16   ar
    14    16    20    1
    15    20    21    1
    16    16    17   ar
    17    17    22    1
    18    22    23    1
    19    17    18   ar
    20    18    24    1
    21    24    25    1
    22    18    19   ar
    23     2     3    1
    24     3     4   ar
    25     4     5   ar
    26     5     6   ar
    27     6    26    1
    28    26    27    1
    29     6     7   ar
    30     7     8    1
    31     7     9   ar
    32     9    10    1
    33    10    11    1
    34    11    12    1
    35    34    29   ar
    36    12     1    1
    37    19    14   ar
    38     9     3   ar
    39     8    13    1
@<TRIPOS>MOLECULE
*****
 36 39 0 0 0
SMALL
GASTEIGER

@<TRIPOS>ATOM
      1 C         -24.4570  -10.1126  -13.1899 C.2     1  UNL1       -0.0397
      2 C         -24.0732   -8.8075  -13.0768 C.2     1  UNL1       -0.0076
      3 C         -23.0113   -8.3819  -12.1142 C.ar    1  UNL1       -0.0015
      4 C         -23.2171   -7.2351  -11.3323 C.ar    1  UNL1        0.0030
      5 C         -22.2639   -6.8251  -10.4028 C.ar    1  UNL1        0.0400
      6 C         -21.0770   -7.5559  -10.2279 C.ar    1  UNL1        0.1718
      7 C         -20.8508   -8.7023  -11.0116 C.ar    1  UNL1        0.1636
      8 O         -19.6784   -9.4436  -10.8450 O.3     1  UNL1       -0.5031
      9 C         -21.8049   -9.1096  -11.9691 C.ar    1  UNL1        0.0145
     10 C         -21.5534  -10.3204  -12.8391 C.3     1  UNL1        0.0299
     11 C         -22.4453  -11.5039  -12.4349 C.3     1  UNL1        0.0091
     12 C         -23.9236  -11.1388  -12.2035 C.3     1  UNL1        0.0227
     13 H         -18.9658   -9.1914  -10.1709 H       1  UNL1        0.2923
     14 C         -24.6749   -7.7483  -13.9145 C.ar    1  UNL1        0.0056
     15 C         -24.0467   -7.3675  -15.1015 C.ar    1  UNL1        0.0402
     16 C         -24.6204   -6.3870  -15.9275 C.ar    1  UNL1        0.1754
     17 C         -25.8174   -5.7573  -15.5445 C.ar    1  UNL1        0.2061
     18 C         -26.4447   -6.1208  -14.3232 C.ar    1  UNL1        0.1754
     19 C         -25.8578   -7.1177  -13.5200 C.ar    1  UNL1        0.0402
     20 O         -24.0362   -6.0168  -17.1497 O.3     1  UNL1       -0.4683
     21 C         -24.5442   -6.3788  -18.4297 C.3     1  UNL1        0.2526
     22 O         -26.3295   -4.7869  -16.4271 O.3     1  UNL1       -0.4654
     23 C         -26.3541   -3.3794  -16.2189 C.3     1  UNL1        0.2528
     24 O         -27.6379   -5.4936  -13.9317 O.3     1  UNL1       -0.4683
     25 C         -28.9249   -5.7778  -14.4713 C.3     1  UNL1        0.2526
     26 O         -20.1046   -7.1736   -9.2895 O.3     1  UNL1       -0.4684
     27 C         -19.8907   -7.8182   -8.0379 C.3     1  UNL1        0.2526
     28 C         -25.5310  -10.5720  -14.1717 C.3     1  UNL1        0.0514
     29 C         -24.4522  -12.0212  -15.9770 C.ar    1  UNL1        0.1350
     30 C         -24.2626  -13.2868  -16.5693 C.ar    1  UNL1        0.0366
     31 C         -24.8255  -14.4288  -15.9971 C.ar    1  UNL1        0.0031
     32 C         -25.5677  -14.3288  -14.8222 C.ar    1  UNL1       -0.0001
     33 C         -25.7679  -13.0833  -14.2268 C.ar    1  UNL1       -0.0010
     34 C         -25.2456  -11.9152  -14.8135 C.ar    1  UNL1        0.0158
     35 C         -22.4597  -10.6537  -16.6250 C.3     1  UNL1        0.2525
     36 O         -23.8640  -10.8645  -16.5115 O.3     1  UNL1       -0.4717
@<TRIPOS>BOND
     1    35    36    1
     2    36    29    1
     3    29    30   ar
     4    30    31   ar
     5    31    32   ar
     6    32    33   ar
     7    33    34   ar
     8    34    28    1
     9    28     1    1
    10     1     2    2
    11     2    14    1
    12    14    15   ar
    13    15    16   ar
    14    16    20    1
    15    20    21    1
    16    16    17   ar
    17    17    22    1
    18    22    23    1
    19    17    18   ar
    20    18    24    1
    21    24    25    1
    22    18    19   ar
    23     2     3    1
    24     3     4   ar
    25     4     5   ar
    26     5     6   ar
    27     6    26    1
    28    26    27    1
    29     6     7   ar
    30     7     8    1
    31     7     9   ar
    32     9    10    1
    33    10    11    1
    34    11    12    1
    35    34    29   ar
    36    12     1    1
    37    19    14   ar
    38     9     3   ar
    39     8    13    1
@<TRIPOS>MOLECULE
*****
 36 39 0 0 0
SMALL
GASTEIGER

@<TRIPOS>ATOM
      1 C         -24.4818  -10.0859  -13.2115 C.2     1  UNL1       -0.0397
      2 C         -24.1084   -8.7767  -13.1123 C.2     1  UNL1       -0.0076
      3 C         -23.0480   -8.3329  -12.1564 C.ar    1  UNL1       -0.0015
      4 C         -23.2614   -7.1800  -11.3856 C.ar    1  UNL1        0.0030
      5 C         -22.3097   -6.7529  -10.4623 C.ar    1  UNL1        0.0400
      6 C         -21.1165   -7.4722  -10.2827 C.ar    1  UNL1        0.1718
      7 C         -20.8826   -8.6245  -11.0553 C.ar    1  UNL1        0.1636
      8 O         -19.7039   -9.3546  -10.8838 O.3     1  UNL1       -0.5031
      9 C         -21.8354   -9.0492  -12.0066 C.ar    1  UNL1        0.0145
     10 C         -21.5759  -10.2666  -12.8650 C.3     1  UNL1        0.0299
     11 C         -22.4573  -11.4532  -12.4470 C.3     1  UNL1        0.0091
     12 C         -23.9380  -11.0978  -12.2160 C.3     1  UNL1        0.0227
     13 H         -18.9920   -9.0899  -10.2139 H       1  UNL1        0.2923
     14 C         -24.7205   -7.7309  -13.9593 C.ar    1  UNL1        0.0056
     15 C         -25.9166   -7.1323  -13.5598 C.ar    1  UNL1        0.0402
     16 C         -26.4958   -6.1135  -14.3341 C.ar    1  UNL1        0.1754
     17 C         -25.8894   -5.7138  -15.5376 C.ar    1  UNL1        0.2061
     18 C         -24.6879   -6.3404  -15.9628 C.ar    1  UNL1        0.1754
     19 C         -24.1185   -7.3487  -15.1611 C.ar    1  UNL1        0.0402
     20 O         -27.6730   -5.4608  -13.9341 O.3     1  UNL1       -0.4683
     21 C         -28.9714   -5.7566  -14.4385 C.3     1  UNL1        0.2526
     22 O         -26.5302   -4.6854  -16.2550 O.3     1  UNL1       -0.4654
     23 C         -26.2760   -3.2894  -16.1463 C.3     1  UNL1        0.2528
     24 O         -24.0785   -5.9497  -17.1654 O.3     1  UNL1       -0.4683
     25 C         -24.6539   -6.1017  -18.4593 C.3     1  UNL1        0.2526
     26 O         -20.1453   -7.0726   -9.3503 O.3     1  UNL1       -0.4684
     27 C         -19.9170   -7.7089   -8.0970 C.3     1  UNL1        0.2526
     28 C         -25.5541  -10.5639  -14.1863 C.3     1  UNL1        0.0514
     29 C         -24.4711  -12.0288  -15.9763 C.ar    1  UNL1        0.1350
     30 C         -24.2746  -13.3007  -16.5528 C.ar    1  UNL1        0.0366
     31 C         -24.8276  -14.4391  -15.9640 C.ar    1  UNL1        0.0031
     32 C         -25.5666  -14.3289  -14.7880 C.ar    1  UNL1       -0.0001
     33 C         -25.7736  -13.0773  -14.2081 C.ar    1  UNL1       -0.0010
     34 C         -25.2614  -11.9133  -14.8116 C.ar    1  UNL1        0.0158
     35 C         -22.4902  -10.6527  -16.6416 C.3     1  UNL1        0.2525
     36 O         -23.8927  -10.8751  -16.5277 O.3     1  UNL1       -0.4717
@<TRIPOS>BOND
     1    35    36    1
     2    36    29    1
     3    29    30   ar
     4    30    31   ar
     5    31    32   ar
     6    32    33   ar
     7    33    34   ar
     8    34    28    1
     9    28     1    1
    10     1     2    2
    11     2    14    1
    12    14    15   ar
    13    15    16   ar
    14    16    20    1
    15    20    21    1
    16    16    17   ar
    17    17    22    1
    18    22    23    1
    19    17    18   ar
    20    18    24    1
    21    24    25    1
    22    18    19   ar
    23     2     3    1
    24     3     4   ar
    25     4     5   ar
    26     5     6   ar
    27     6    26    1
    28    26    27    1
    29     6     7   ar
    30     7     8    1
    31     7     9   ar
    32     9    10    1
    33    10    11    1
    34    11    12    1
    35    34    29   ar
    36    12     1    1
    37    19    14   ar
    38     9     3   ar
    39     8    13    1
@<TRIPOS>MOLECULE
*****
 36 39 0 0 0
SMALL
GASTEIGER

@<TRIPOS>ATOM
      1 C         -26.2027   -7.4719  -12.7035 C.2     1  UNL1       -0.0397
      2 C         -25.0110   -8.1373  -12.7261 C.2     1  UNL1       -0.0076
      3 C         -24.1040   -8.1639  -11.5379 C.ar    1  UNL1       -0.0015
      4 C         -22.7285   -7.9577  -11.7231 C.ar    1  UNL1        0.0030
      5 C         -21.8565   -7.9450  -10.6368 C.ar    1  UNL1        0.0400
      6 C         -22.3396   -8.1355   -9.3315 C.ar    1  UNL1        0.1718
      7 C         -23.7147   -8.3540   -9.1298 C.ar    1  UNL1        0.1636
      8 O         -24.2118   -8.5386   -7.8373 O.3     1  UNL1       -0.5031
      9 C         -24.5990   -8.3881  -10.2300 C.ar    1  UNL1        0.0145
     10 C         -26.0726   -8.6567  -10.0246 C.3     1  UNL1        0.0299
     11 C         -26.9156   -7.3920  -10.2462 C.3     1  UNL1        0.0091
     12 C         -26.5485   -6.5942  -11.5115 C.3     1  UNL1        0.0227
     13 H         -23.6171   -8.5218   -7.0177 H       1  UNL1        0.2923
     14 C         -24.5634   -8.8828  -13.9216 C.ar    1  UNL1        0.0056
     15 C         -23.6432   -8.2991  -14.7941 C.ar    1  UNL1        0.0402
     16 C         -23.1805   -9.0048  -15.9169 C.ar    1  UNL1        0.1754
     17 C         -23.6697  -10.2945  -16.1876 C.ar    1  UNL1        0.2061
     18 C         -24.6280  -10.8809  -15.3188 C.ar    1  UNL1        0.1754
     19 C         -25.0647  -10.1591  -14.1909 C.ar    1  UNL1        0.0402
     20 O         -22.2204   -8.4620  -16.7861 O.3     1  UNL1       -0.4683
     21 C         -20.8875   -8.1302  -16.4108 C.3     1  UNL1        0.2526
     22 O         -23.1555  -10.9365  -17.3305 O.3     1  UNL1       -0.4654
     23 C         -22.1943  -11.9857  -17.3540 C.3     1  UNL1        0.2528
     24 O         -25.1244  -12.1667  -15.5846 O.3     1  UNL1       -0.4683
     25 C         -25.2581  -13.2059  -14.6201 C.3     1  UNL1        0.2526
     26 O         -21.4859   -8.1147   -8.2166 O.3     1  UNL1       -0.4684
     27 C         -20.0650   -8.1803   -8.2843 C.3     1  UNL1        0.2526
     28 C         -27.1493   -7.4388  -13.8999 C.3     1  UNL1        0.0514
     29 C         -28.3684   -5.4766  -14.9891 C.ar    1  UNL1        0.1350
     30 C         -28.3256   -4.2774  -15.7299 C.ar    1  UNL1        0.0366
     31 C         -27.1023   -3.7104  -16.0911 C.ar    1  UNL1        0.0031
     32 C         -25.9092   -4.3185  -15.7063 C.ar    1  UNL1       -0.0001
     33 C         -25.9350   -5.5074  -14.9773 C.ar    1  UNL1       -0.0010
     34 C         -27.1586   -6.1174  -14.6423 C.ar    1  UNL1        0.0158
     35 C         -30.8689   -5.5547  -14.9558 C.3     1  UNL1        0.2525
     36 O         -29.5849   -6.0447  -14.5807 O.3     1  UNL1       -0.4717
@<TRIPOS>BOND
     1    35    36    1
     2    36    29    1
     3    29    30   ar
     4    30    31   ar
     5    31    32   ar
     6    32    33   ar
     7    33    34   ar
     8    34    28    1
     9    28     1    1
    10     1     2    2
    11     2    14    1
    12    14    15   ar
    13    15    16   ar
    14    16    20    1
    15    20    21    1
    16    16    17   ar
    17    17    22    1
    18    22    23    1
    19    17    18   ar
    20    18    24    1
    21    24    25    1
    22    18    19   ar
    23     2     3    1
    24     3     4   ar
    25     4     5   ar
    26     5     6   ar
    27     6    26    1
    28    26    27    1
    29     6     7   ar
    30     7     8    1
    31     7     9   ar
    32     9    10    1
    33    10    11    1
    34    11    12    1
    35    34    29   ar
    36    12     1    1
    37    19    14   ar
    38     9     3   ar
    39     8    13    1
@<TRIPOS>MOLECULE
*****
 36 39 0 0 0
SMALL
GASTEIGER

@<TRIPOS>ATOM
      1 C         -22.7256   -9.1608  -14.4546 C.2     1  UNL1       -0.0397
      2 C         -23.0172  -10.1884  -13.6047 C.2     1  UNL1       -0.0076
      3 C         -23.3574  -11.5535  -14.1108 C.ar    1  UNL1       -0.0015
      4 C         -24.4399  -12.2428  -13.5437 C.ar    1  UNL1        0.0030
      5 C         -24.8059  -13.5036  -14.0098 C.ar    1  UNL1        0.0400
      6 C         -24.0981  -14.1087  -15.0616 C.ar    1  UNL1        0.1718
      7 C         -23.0035  -13.4352  -15.6340 C.ar    1  UNL1        0.1636
      8 O         -22.2934  -14.0207  -16.6851 O.3     1  UNL1       -0.5031
      9 C         -22.6166  -12.1663  -15.1509 C.ar    1  UNL1        0.0145
     10 C         -21.4204  -11.4515  -15.7375 C.3     1  UNL1        0.0299
     11 C         -21.8430  -10.2501  -16.5963 C.3     1  UNL1        0.0091
     12 C         -22.9131   -9.3498  -15.9512 C.3     1  UNL1        0.0227
     13 H         -22.5337  -14.9280  -17.0657 H       1  UNL1        0.2923
     14 C         -22.9936  -10.0097  -12.1373 C.ar    1  UNL1        0.0056
     15 C         -24.1858   -9.7676  -11.4527 C.ar    1  UNL1        0.0402
     16 C         -24.1881   -9.6285  -10.0550 C.ar    1  UNL1        0.1754
     17 C         -22.9803   -9.6987   -9.3393 C.ar    1  UNL1        0.2061
     18 C         -21.7612   -9.9158  -10.0348 C.ar    1  UNL1        0.1754
     19 C         -21.7871  -10.0675  -11.4348 C.ar    1  UNL1        0.0402
     20 O         -25.3772   -9.4310   -9.3345 O.3     1  UNL1       -0.4683
     21 C         -26.4782   -8.6522   -9.7917 C.3     1  UNL1        0.2526
     22 O         -23.0666   -9.5517   -7.9415 O.3     1  UNL1       -0.4654
     23 C         -22.3686   -8.6024   -7.1435 C.3     1  UNL1        0.2528
     24 O         -20.5505   -9.9830   -9.3276 O.3     1  UNL1       -0.4683
     25 C         -19.3345   -9.3603   -9.7297 C.3     1  UNL1        0.2526
     26 O         -24.4524  -15.3728  -15.5605 O.3     1  UNL1       -0.4684
     27 C         -25.2553  -15.5903  -16.7163 C.3     1  UNL1        0.2526
     28 C         -22.3661   -7.7622  -13.9614 C.3     1  UNL1        0.0514
     29 C         -23.3882   -6.2481  -12.1766 C.ar    1  UNL1        0.1350
     30 C         -24.5163   -5.6040  -11.6277 C.ar    1  UNL1        0.0366
     31 C         -25.7564   -5.6815  -12.2639 C.ar    1  UNL1        0.0031
     32 C         -25.8857   -6.3845  -13.4599 C.ar    1  UNL1       -0.0001
     33 C         -24.7802   -7.0307  -14.0130 C.ar    1  UNL1       -0.0010
     34 C         -23.5321   -7.0010  -13.3627 C.ar    1  UNL1        0.0158
     35 C         -21.9018   -6.0785  -10.1712 C.3     1  UNL1        0.2525
     36 O         -22.1232   -6.1520  -11.5765 O.3     1  UNL1       -0.4717
@<TRIPOS>BOND
     1    35    36    1
     2    36    29    1
     3    29    30   ar
     4    30    31   ar
     5    31    32   ar
     6    32    33   ar
     7    33    34   ar
     8    34    28    1
     9    28     1    1
    10     1     2    2
    11     2    14    1
    12    14    15   ar
    13    15    16   ar
    14    16    20    1
    15    20    21    1
    16    16    17   ar
    17    17    22    1
    18    22    23    1
    19    17    18   ar
    20    18    24    1
    21    24    25    1
    22    18    19   ar
    23     2     3    1
    24     3     4   ar
    25     4     5   ar
    26     5     6   ar
    27     6    26    1
    28    26    27    1
    29     6     7   ar
    30     7     8    1
    31     7     9   ar
    32     9    10    1
    33    10    11    1
    34    11    12    1
    35    34    29   ar
    36    12     1    1
    37    19    14   ar
    38     9     3   ar
    39     8    13    1
@<TRIPOS>MOLECULE
*****
 36 39 0 0 0
SMALL
GASTEIGER

@<TRIPOS>ATOM
      1 C         -24.3424   -9.1318  -11.6831 C.2     1  UNL1       -0.0397
      2 C         -25.1179   -9.2691  -12.7980 C.2     1  UNL1       -0.0076
      3 C         -26.0404   -8.1835  -13.2515 C.ar    1  UNL1       -0.0015
      4 C         -27.3419   -8.5169  -13.6560 C.ar    1  UNL1        0.0030
      5 C         -28.2397   -7.5295  -14.0556 C.ar    1  UNL1        0.0400
      6 C         -27.8588   -6.1773  -14.0580 C.ar    1  UNL1        0.1718
      7 C         -26.5540   -5.8273  -13.6652 C.ar    1  UNL1        0.1636
      8 O         -26.1619   -4.4864  -13.6558 O.3     1  UNL1       -0.5031
      9 C         -25.6346   -6.8268  -13.2791 C.ar    1  UNL1        0.0145
     10 C         -24.2202   -6.4619  -12.8889 C.3     1  UNL1        0.0299
     11 C         -23.9918   -6.6145  -11.3776 C.3     1  UNL1        0.0091
     12 C         -24.5364   -7.9250  -10.7793 C.3     1  UNL1        0.0227
     13 H         -26.7858   -3.7348  -13.9234 H       1  UNL1        0.2923
     14 C         -25.0720  -10.4924  -13.6269 C.ar    1  UNL1        0.0056
     15 C         -25.6118  -11.6811  -13.1326 C.ar    1  UNL1        0.0402
     16 C         -25.6077  -12.8453  -13.9184 C.ar    1  UNL1        0.1754
     17 C         -25.0270  -12.8280  -15.1984 C.ar    1  UNL1        0.2061
     18 C         -24.4504  -11.6283  -15.6938 C.ar    1  UNL1        0.1754
     19 C         -24.4808  -10.4701  -14.8929 C.ar    1  UNL1        0.0402
     20 O         -26.1849  -14.0432  -13.4666 O.3     1  UNL1       -0.4683
     21 C         -26.3388  -14.3986  -12.0963 C.3     1  UNL1        0.2526
     22 O         -25.0646  -14.0342  -15.9240 O.3     1  UNL1       -0.4654
     23 C         -24.1079  -15.0864  -15.8709 C.3     1  UNL1        0.2528
     24 O         -23.8649  -11.6039  -16.9693 O.3     1  UNL1       -0.4683
     25 C         -22.4716  -11.7402  -17.2308 C.3     1  UNL1        0.2526
     26 O         -28.7466   -5.1596  -14.4433 O.3     1  UNL1       -0.4684
     27 C         -29.9556   -5.3713  -15.1654 C.3     1  UNL1        0.2526
     28 C         -23.3865  -10.2215  -11.2065 C.3     1  UNL1        0.0514
     29 C         -21.0897   -9.3234  -11.8708 C.ar    1  UNL1        0.1350
     30 C         -19.7902   -8.9159  -11.5052 C.ar    1  UNL1        0.0366
     31 C         -19.4127   -8.8715  -10.1621 C.ar    1  UNL1        0.0031
     32 C         -20.3261   -9.2145   -9.1675 C.ar    1  UNL1       -0.0001
     33 C         -21.6139   -9.6240   -9.5134 C.ar    1  UNL1       -0.0010
     34 C         -21.9985   -9.7177  -10.8643 C.ar    1  UNL1        0.0158
     35 C         -21.3610   -8.2441  -14.1117 C.3     1  UNL1        0.2525
     36 O         -21.5049   -9.3387  -13.2114 O.3     1  UNL1       -0.4717
@<TRIPOS>BOND
     1    35    36    1
     2    36    29    1
     3    29    30   ar
     4    30    31   ar
     5    31    32   ar
     6    32    33   ar
     7    33    34   ar
     8    34    28    1
     9    28     1    1
    10     1     2    2
    11     2    14    1
    12    14    15   ar
    13    15    16   ar
    14    16    20    1
    15    20    21    1
    16    16    17   ar
    17    17    22    1
    18    22    23    1
    19    17    18   ar
    20    18    24    1
    21    24    25    1
    22    18    19   ar
    23     2     3    1
    24     3     4   ar
    25     4     5   ar
    26     5     6   ar
    27     6    26    1
    28    26    27    1
    29     6     7   ar
    30     7     8    1
    31     7     9   ar
    32     9    10    1
    33    10    11    1
    34    11    12    1
    35    34    29   ar
    36    12     1    1
    37    19    14   ar
    38     9     3   ar
    39     8    13    1
@<TRIPOS>MOLECULE
*****
 36 39 0 0 0
SMALL
GASTEIGER

@<TRIPOS>ATOM
      1 C         -22.6472   -9.2527  -14.4345 C.2     1  UNL1       -0.0397
      2 C         -23.0022  -10.2732  -13.6004 C.2     1  UNL1       -0.0076
      3 C         -23.3499  -11.6300  -14.1233 C.ar    1  UNL1       -0.0015
      4 C         -24.4736  -12.2939  -13.6083 C.ar    1  UNL1        0.0030
      5 C         -24.8466  -13.5458  -14.0924 C.ar    1  UNL1        0.0400
      6 C         -24.1046  -14.1673  -15.1105 C.ar    1  UNL1        0.1718
      7 C         -22.9690  -13.5195  -15.6304 C.ar    1  UNL1        0.1636
      8 O         -22.2243  -14.1214  -16.6477 O.3     1  UNL1       -0.5031
      9 C         -22.5757  -12.2599  -15.1282 C.ar    1  UNL1        0.0145
     10 C         -21.3370  -11.5732  -15.6575 C.3     1  UNL1        0.0299
     11 C         -21.6909  -10.3623  -16.5338 C.3     1  UNL1        0.0091
     12 C         -22.7688   -9.4372  -15.9385 C.3     1  UNL1        0.0227
     13 H         -22.4675  -15.0228  -17.0401 H       1  UNL1        0.2923
     14 C         -23.0432  -10.0951  -12.1333 C.ar    1  UNL1        0.0056
     15 C         -21.8541  -10.1157  -11.4025 C.ar    1  UNL1        0.0402
     16 C         -21.8695   -9.9147  -10.0125 C.ar    1  UNL1        0.1754
     17 C         -23.0908   -9.7253   -9.3428 C.ar    1  UNL1        0.2061
     18 C         -24.3058   -9.7328  -10.0783 C.ar    1  UNL1        0.1754
     19 C         -24.2626   -9.9208  -11.4734 C.ar    1  UNL1        0.0402
     20 O         -20.6857   -9.8836   -9.2577 O.3     1  UNL1       -0.4683
     21 C         -19.4052   -9.5418   -9.7782 C.3     1  UNL1        0.2526
     22 O         -23.0220   -9.5286   -7.9501 O.3     1  UNL1       -0.4654
     23 C         -22.4035   -8.4381   -7.2768 C.3     1  UNL1        0.2528
     24 O         -25.5297   -9.5485   -9.4162 O.3     1  UNL1       -0.4683
     25 C         -26.5286   -8.6064   -9.7941 C.3     1  UNL1        0.2526
     26 O         -24.4645  -15.4228  -15.6269 O.3     1  UNL1       -0.4684
     27 C         -25.2643  -15.6208  -16.7883 C.3     1  UNL1        0.2526
     28 C         -22.2788   -7.8628  -13.9236 C.3     1  UNL1        0.0514
     29 C         -23.3043   -6.3326  -12.1544 C.ar    1  UNL1        0.1350
     30 C         -24.4326   -5.6802  -11.6161 C.ar    1  UNL1        0.0366
     31 C         -25.6695   -5.7567  -12.2586 C.ar    1  UNL1        0.0031
     32 C         -25.7952   -6.4670  -13.4506 C.ar    1  UNL1       -0.0001
     33 C         -24.6894   -7.1215  -13.9933 C.ar    1  UNL1       -0.0010
     34 C         -23.4448   -7.0927  -13.3364 C.ar    1  UNL1        0.0158
     35 C         -21.8292   -5.9080  -10.1786 C.3     1  UNL1        0.2525
     36 O         -22.0422   -6.2380  -11.5480 O.3     1  UNL1       -0.4717
@<TRIPOS>BOND
     1    35    36    1
     2    36    29    1
     3    29    30   ar
     4    30    31   ar
     5    31    32   ar
     6    32    33   ar
     7    33    34   ar
     8    34    28    1
     9    28     1    1
    10     1     2    2
    11     2    14    1
    12    14    15   ar
    13    15    16   ar
    14    16    20    1
    15    20    21    1
    16    16    17   ar
    17    17    22    1
    18    22    23    1
    19    17    18   ar
    20    18    24    1
    21    24    25    1
    22    18    19   ar
    23     2     3    1
    24     3     4   ar
    25     4     5   ar
    26     5     6   ar
    27     6    26    1
    28    26    27    1
    29     6     7   ar
    30     7     8    1
    31     7     9   ar
    32     9    10    1
    33    10    11    1
    34    11    12    1
    35    34    29   ar
    36    12     1    1
    37    19    14   ar
    38     9     3   ar
    39     8    13    1
@<TRIPOS>MOLECULE
*****
 36 39 0 0 0
SMALL
GASTEIGER

@<TRIPOS>ATOM
      1 C         -24.3610   -9.1250  -11.7261 C.2     1  UNL1       -0.0397
      2 C         -25.1521   -9.2634  -12.8299 C.2     1  UNL1       -0.0076
      3 C         -26.0722   -8.1737  -13.2781 C.ar    1  UNL1       -0.0015
      4 C         -27.3815   -8.4997  -13.6634 C.ar    1  UNL1        0.0030
      5 C         -28.2769   -7.5080  -14.0576 C.ar    1  UNL1        0.0400
      6 C         -27.8860   -6.1589  -14.0736 C.ar    1  UNL1        0.1718
      7 C         -26.5734   -5.8164  -13.7003 C.ar    1  UNL1        0.1636
      8 O         -26.1712   -4.4785  -13.7046 O.3     1  UNL1       -0.5031
      9 C         -25.6566   -6.8204  -13.3198 C.ar    1  UNL1        0.0145
     10 C         -24.2345   -6.4638  -12.9505 C.3     1  UNL1        0.0299
     11 C         -23.9874   -6.6086  -11.4414 C.3     1  UNL1        0.0091
     12 C         -24.5340   -7.9111  -10.8276 C.3     1  UNL1        0.0227
     13 H         -26.7928   -3.7238  -13.9688 H       1  UNL1        0.2923
     14 C         -25.1263  -10.4923  -13.6514 C.ar    1  UNL1        0.0056
     15 C         -24.5418  -10.4627  -14.9187 C.ar    1  UNL1        0.0402
     16 C         -24.4777  -11.6280  -15.7002 C.ar    1  UNL1        0.1754
     17 C         -25.0347  -12.8269  -15.2223 C.ar    1  UNL1        0.2061
     18 C         -25.6565  -12.8547  -13.9456 C.ar    1  UNL1        0.1754
     19 C         -25.6942  -11.6767  -13.1745 C.ar    1  UNL1        0.0402
     20 O         -23.8546  -11.6398  -16.9586 O.3     1  UNL1       -0.4683
     21 C         -22.4452  -11.6342  -17.1617 C.3     1  UNL1        0.2526
     22 O         -24.9283  -13.9508  -16.0638 O.3     1  UNL1       -0.4654
     23 C         -24.0846  -15.0800  -15.8686 C.3     1  UNL1        0.2528
     24 O         -26.2187  -14.0469  -13.4631 O.3     1  UNL1       -0.4683
     25 C         -26.3315  -14.3983  -12.0877 C.3     1  UNL1        0.2526
     26 O         -28.7710   -5.1369  -14.4539 O.3     1  UNL1       -0.4684
     27 C         -29.9822   -5.3421  -15.1742 C.3     1  UNL1        0.2526
     28 C         -23.4071  -10.2189  -11.2551 C.3     1  UNL1        0.0514
     29 C         -21.1088   -9.3155  -11.9066 C.ar    1  UNL1        0.1350
     30 C         -19.8098   -8.9118  -11.5347 C.ar    1  UNL1        0.0366
     31 C         -19.4349   -8.8798  -10.1905 C.ar    1  UNL1        0.0031
     32 C         -20.3505   -9.2316   -9.2009 C.ar    1  UNL1       -0.0001
     33 C         -21.6377   -9.6374   -9.5531 C.ar    1  UNL1       -0.0010
     34 C         -22.0197   -9.7187  -10.9055 C.ar    1  UNL1        0.0158
     35 C         -21.3348   -8.2319  -14.1505 C.3     1  UNL1        0.2525
     36 O         -21.5213   -9.3184  -13.2481 O.3     1  UNL1       -0.4717
@<TRIPOS>BOND
     1    35    36    1
     2    36    29    1
     3    29    30   ar
     4    30    31   ar
     5    31    32   ar
     6    32    33   ar
     7    33    34   ar
     8    34    28    1
     9    28     1    1
    10     1     2    2
    11     2    14    1
    12    14    15   ar
    13    15    16   ar
    14    16    20    1
    15    20    21    1
    16    16    17   ar
    17    17    22    1
    18    22    23    1
    19    17    18   ar
    20    18    24    1
    21    24    25    1
    22    18    19   ar
    23     2     3    1
    24     3     4   ar
    25     4     5   ar
    26     5     6   ar
    27     6    26    1
    28    26    27    1
    29     6     7   ar
    30     7     8    1
    31     7     9   ar
    32     9    10    1
    33    10    11    1
    34    11    12    1
    35    34    29   ar
    36    12     1    1
    37    19    14   ar
    38     9     3   ar
    39     8    13    1
