@<TRIPOS>MOLECULE
*****
 47 52 0 0 0
SMALL
GASTEIGER

@<TRIPOS>ATOM
      1 C          11.4941   81.0941   25.3706 C.ar    1  UNL1        0.0702
      2 C          12.3476   81.7072   26.2952 C.ar    1  UNL1        0.0191
      3 C          13.1500   82.7816   25.9084 C.ar    1  UNL1        0.0356
      4 C          13.1051   83.2383   24.5804 C.ar    1  UNL1        0.1318
      5 N          12.2928   82.6027   23.6900 N.ar    1  UNL1       -0.2279
      6 C          11.5005   81.5571   24.0452 C.ar    1  UNL1        0.1149
      7 N          13.9236   84.3413   24.1374 N.pl3   1  UNL1       -0.2932
      8 C          14.5632   84.2730   22.8154 C.3     1  UNL1        0.0923
      9 C          15.7955   85.1805   22.7610 C.3     1  UNL1        0.0253
     10 C          15.4570   86.6581   23.0880 C.3     1  UNL1        0.0495
     11 C          14.2800   86.7923   24.1079 C.3     1  UNL1        0.0528
     12 C          14.1162   85.5320   24.9814 C.3     1  UNL1        0.0947
     13 C          14.4058   88.0553   24.9852 C.3     1  UNL1        0.1389
     14 O          13.2543   88.2480   25.7662 O.3     1  UNL1       -0.3819
     15 H          13.4642   87.9296   26.6825 H       1  UNL1        0.2104
     16 C          15.1527   87.4486   21.8005 C.3     1  UNL1        0.2055
     17 O          14.1280   86.7928   21.0556 O.3     1  UNL1       -0.4755
     18 C          14.1916   86.5287   19.6797 C.ar    1  UNL1        0.1388
     19 C          13.9021   87.5059   18.7100 C.ar    1  UNL1        0.0369
     20 C          13.9842   87.1921   17.3522 C.ar    1  UNL1        0.0033
     21 C          14.3485   85.9061   16.9465 C.ar    1  UNL1        0.0066
     22 C          14.6312   84.9126   17.9006 C.ar    1  UNL1        0.0785
     23 C          14.5576   85.2417   19.2669 C.ar    1  UNL1        0.0433
     24 C          15.0246   83.5428   17.4888 C.2     1  UNL1        0.3381
     25 O          14.7508   83.1363   16.3281 O.2     1  UNL1       -0.2451
     26 O          15.7092   82.6849   18.3489 O.3     1  UNL1       -0.4771
     27 H          16.0511   82.9786   19.2545 H       1  UNL1        0.2954
     28 C          11.2197   78.6715   26.0782 C.2     1  UNL1        0.2839
     29 O          12.4011   78.3760   25.7528 O.2     1  UNL1       -0.2665
     30 N          10.6906   79.9731   25.7779 N.am    1  UNL1       -0.2766
     31 H           9.6521   80.0911   25.7733 H       1  UNL1        0.1553
     32 C           8.0939   78.1801   25.5671 C.3     1  UNL1        0.0345
     33 C           8.9976   77.4470   26.5122 C.ar    1  UNL1        0.0202
     34 C          10.3622   77.6653   26.7330 C.ar    1  UNL1        0.1946
     35 O          10.8144   76.8184   27.6406 O.2     1  UNL1       -0.4492
     36 C           9.8134   76.0624   28.0205 C.ar    1  UNL1        0.1452
     37 C           9.8394   75.0363   28.9584 C.ar    1  UNL1        0.0375
     38 C           8.6419   74.3465   29.2153 C.ar    1  UNL1        0.0031
     39 C           7.4425   74.6904   28.5350 C.ar    1  UNL1        0.0002
     40 C           7.4594   75.7422   27.5877 C.ar    1  UNL1        0.0028
     41 C           8.6655   76.4057   27.3577 C.ar    1  UNL1        0.0337
     42 C           6.1835   73.9543   28.8147 C.ar    1  UNL1        0.0000
     43 C           5.3668   74.3202   29.9015 C.ar    1  UNL1        0.0000
     44 C           4.1818   73.6254   30.1626 C.ar    1  UNL1        0.0000
     45 C           3.7984   72.5609   29.3438 C.ar    1  UNL1        0.0000
     46 C           4.5996   72.1885   28.2622 C.ar    1  UNL1        0.0000
     47 C           5.7862   72.8792   27.9970 C.ar    1  UNL1        0.0000
@<TRIPOS>BOND
     1    32    33    1
     2    33    34   ar
     3    34    28    1
     4    28    29    2
     5    28    30   am
     6    30     1    1
     7     1     2   ar
     8     2     3   ar
     9     3     4   ar
    10     4     7    1
    11     7     8    1
    12     8     9    1
    13     9    10    1
    14    10    16    1
    15    16    17    1
    16    17    18    1
    17    18    19   ar
    18    19    20   ar
    19    20    21   ar
    20    21    22   ar
    21    22    24    1
    22    24    25    2
    23    24    26    1
    24    22    23   ar
    25    10    11    1
    26    11    13    1
    27    13    14    1
    28    11    12    1
    29     4     5   ar
    30     5     6   ar
    31    34    35   ar
    32    35    36   ar
    33    36    37   ar
    34    37    38   ar
    35    38    39   ar
    36    39    42    1
    37    42    43   ar
    38    43    44   ar
    39    44    45   ar
    40    45    46   ar
    41    46    47   ar
    42    39    40   ar
    43    40    41   ar
    44    41    33   ar
    45     6     1   ar
    46    41    36   ar
    47    12     7    1
    48    47    42   ar
    49    23    18   ar
    50    30    31    1
    51    26    27    1
    52    14    15    1
@<TRIPOS>MOLECULE
*****
 47 52 0 0 0
SMALL
GASTEIGER

@<TRIPOS>ATOM
      1 C          11.7959   80.8044   25.3275 C.ar    1  UNL1        0.0702
      2 C          13.1956   80.7981   25.3360 C.ar    1  UNL1        0.0191
      3 C          13.9073   81.9521   25.0053 C.ar    1  UNL1        0.0356
      4 C          13.2102   83.1197   24.6517 C.ar    1  UNL1        0.1318
      5 N          11.8483   83.0913   24.6163 N.ar    1  UNL1       -0.2279
      6 C          11.1348   81.9800   24.9377 C.ar    1  UNL1        0.1149
      7 N          13.9075   84.3321   24.2959 N.pl3   1  UNL1       -0.2932
      8 C          14.3788   84.5084   22.9145 C.3     1  UNL1        0.0923
      9 C          15.5451   85.4993   22.8611 C.3     1  UNL1        0.0253
     10 C          15.1731   86.8834   23.4535 C.3     1  UNL1        0.0495
     11 C          14.1280   86.7790   24.6112 C.3     1  UNL1        0.0528
     12 C          14.1416   85.3937   25.2886 C.3     1  UNL1        0.0947
     13 C          14.2962   87.9021   25.6557 C.3     1  UNL1        0.1389
     14 O          13.1142   88.0943   26.3899 O.3     1  UNL1       -0.3819
     15 H          13.2355   87.6430   27.2654 H       1  UNL1        0.2104
     16 C          14.6684   87.8340   22.3504 C.3     1  UNL1        0.2055
     17 O          15.1964   87.4383   21.0856 O.3     1  UNL1       -0.4755
     18 C          14.5388   86.5932   20.1798 C.ar    1  UNL1        0.1388
     19 C          13.1486   86.6461   19.9720 C.ar    1  UNL1        0.0369
     20 C          12.5435   85.7845   19.0553 C.ar    1  UNL1        0.0033
     21 C          13.3116   84.8610   18.3425 C.ar    1  UNL1        0.0066
     22 C          14.7012   84.7854   18.5441 C.ar    1  UNL1        0.0785
     23 C          15.3039   85.6663   19.4613 C.ar    1  UNL1        0.0433
     24 C          15.5340   83.8146   17.7927 C.2     1  UNL1        0.3381
     25 O          15.1985   83.4741   16.6270 O.2     1  UNL1       -0.2451
     26 O          16.6985   83.2712   18.3344 O.3     1  UNL1       -0.4771
     27 H          17.0824   83.5756   19.2194 H       1  UNL1        0.2954
     28 C          10.1703   79.4770   26.7559 C.2     1  UNL1        0.2839
     29 O          10.1518   80.3531   27.6620 O.2     1  UNL1       -0.2665
     30 N          11.0766   79.6011   25.6479 N.am    1  UNL1       -0.2766
     31 H          11.2909   78.7428   25.0912 H       1  UNL1        0.1553
     32 C           8.3962   78.6010   29.2775 C.3     1  UNL1        0.0345
     33 C           8.5114   77.9130   27.9506 C.ar    1  UNL1        0.0202
     34 C           9.2881   78.2985   26.8522 C.ar    1  UNL1        0.1946
     35 O           9.1264   77.4402   25.8608 O.2     1  UNL1       -0.4492
     36 C           8.2855   76.5175   26.2598 C.ar    1  UNL1        0.1452
     37 C           7.8300   75.4211   25.5362 C.ar    1  UNL1        0.0375
     38 C           6.9206   74.5498   26.1604 C.ar    1  UNL1        0.0031
     39 C           6.4822   74.7856   27.4915 C.ar    1  UNL1        0.0002
     40 C           6.9710   75.9135   28.1934 C.ar    1  UNL1        0.0028
     41 C           7.8729   76.7573   27.5431 C.ar    1  UNL1        0.0337
     42 C           5.5211   73.8581   28.1406 C.ar    1  UNL1        0.0000
     43 C           4.7074   74.2981   29.2020 C.ar    1  UNL1        0.0000
     44 C           3.8032   73.4227   29.8113 C.ar    1  UNL1        0.0000
     45 C           3.7000   72.1019   29.3691 C.ar    1  UNL1        0.0000
     46 C           4.5011   71.6535   28.3168 C.ar    1  UNL1        0.0000
     47 C           5.4077   72.5243   27.7043 C.ar    1  UNL1        0.0000
@<TRIPOS>BOND
     1    32    33    1
     2    33    34   ar
     3    34    28    1
     4    28    29    2
     5    28    30   am
     6    30     1    1
     7     1     2   ar
     8     2     3   ar
     9     3     4   ar
    10     4     7    1
    11     7     8    1
    12     8     9    1
    13     9    10    1
    14    10    16    1
    15    16    17    1
    16    17    18    1
    17    18    19   ar
    18    19    20   ar
    19    20    21   ar
    20    21    22   ar
    21    22    24    1
    22    24    25    2
    23    24    26    1
    24    22    23   ar
    25    10    11    1
    26    11    13    1
    27    13    14    1
    28    11    12    1
    29     4     5   ar
    30     5     6   ar
    31    34    35   ar
    32    35    36   ar
    33    36    37   ar
    34    37    38   ar
    35    38    39   ar
    36    39    42    1
    37    42    43   ar
    38    43    44   ar
    39    44    45   ar
    40    45    46   ar
    41    46    47   ar
    42    39    40   ar
    43    40    41   ar
    44    41    33   ar
    45     6     1   ar
    46    41    36   ar
    47    12     7    1
    48    47    42   ar
    49    23    18   ar
    50    30    31    1
    51    26    27    1
    52    14    15    1
@<TRIPOS>MOLECULE
*****
 47 52 0 0 0
SMALL
GASTEIGER

@<TRIPOS>ATOM
      1 C          11.8457   80.8379   25.1554 C.ar    1  UNL1        0.0702
      2 C          13.2438   80.8394   25.2238 C.ar    1  UNL1        0.0191
      3 C          13.9660   81.9738   24.8508 C.ar    1  UNL1        0.0356
      4 C          13.2818   83.1130   24.3944 C.ar    1  UNL1        0.1318
      5 N          11.9227   83.0753   24.3031 N.ar    1  UNL1       -0.2279
      6 C          11.1989   81.9830   24.6639 C.ar    1  UNL1        0.1149
      7 N          13.9906   84.3040   23.9921 N.pl3   1  UNL1       -0.2932
      8 C          14.7056   84.3126   22.7076 C.3     1  UNL1        0.0923
      9 C          15.8261   85.3565   22.7169 C.3     1  UNL1        0.0253
     10 C          15.3018   86.7844   23.0183 C.3     1  UNL1        0.0495
     11 C          14.0628   86.7798   23.9714 C.3     1  UNL1        0.0528
     12 C          13.9977   85.5073   24.8401 C.3     1  UNL1        0.0947
     13 C          13.9934   88.0471   24.8486 C.3     1  UNL1        0.1389
     14 O          12.6893   88.2661   25.3225 O.3     1  UNL1       -0.3819
     15 H          12.6619   87.9512   26.2633 H       1  UNL1        0.2104
     16 C          14.9795   87.5370   21.7125 C.3     1  UNL1        0.2055
     17 O          13.8118   86.9855   21.1065 O.3     1  UNL1       -0.4755
     18 C          13.0444   87.6325   20.1270 C.ar    1  UNL1        0.1388
     19 C          11.7108   88.0212   20.3489 C.ar    1  UNL1        0.0369
     20 C          10.9917   88.6663   19.3411 C.ar    1  UNL1        0.0033
     21 C          11.5879   88.9254   18.1048 C.ar    1  UNL1        0.0066
     22 C          12.9164   88.5350   17.8600 C.ar    1  UNL1        0.0785
     23 C          13.6372   87.8962   18.8861 C.ar    1  UNL1        0.0433
     24 C          13.5680   88.8060   16.5552 C.2     1  UNL1        0.3381
     25 O          14.8021   89.0565   16.5130 O.2     1  UNL1       -0.2451
     26 O          12.8546   88.7776   15.3574 O.3     1  UNL1       -0.4771
     27 H          11.8880   88.4838   15.3047 H       1  UNL1        0.2954
     28 C          10.1591   79.5971   26.5909 C.2     1  UNL1        0.2839
     29 O          10.0947   80.5310   27.4350 O.2     1  UNL1       -0.2665
     30 N          11.1163   79.6537   25.5209 N.am    1  UNL1       -0.2766
     31 H          11.3597   78.7618   25.0330 H       1  UNL1        0.1553
     32 C           8.4465   78.7561   29.1664 C.3     1  UNL1        0.0345
     33 C           8.5276   78.0514   27.8458 C.ar    1  UNL1        0.0202
     34 C           9.2775   78.4216   26.7237 C.ar    1  UNL1        0.1946
     35 O           9.0899   77.5514   25.7475 O.2     1  UNL1       -0.4492
     36 C           8.2575   76.6354   26.1786 C.ar    1  UNL1        0.1452
     37 C           7.7823   75.5310   25.4802 C.ar    1  UNL1        0.0375
     38 C           6.8872   74.6694   26.1376 C.ar    1  UNL1        0.0031
     39 C           6.4823   74.9226   27.4761 C.ar    1  UNL1        0.0002
     40 C           6.9903   76.0582   28.1515 C.ar    1  UNL1        0.0028
     41 C           7.8772   76.8920   27.4687 C.ar    1  UNL1        0.0337
     42 C           5.5360   74.0053   28.1603 C.ar    1  UNL1        0.0000
     43 C           4.7028   74.4762   29.1929 C.ar    1  UNL1        0.0000
     44 C           3.8126   73.6103   29.8353 C.ar    1  UNL1        0.0000
     45 C           3.7428   72.2681   29.4553 C.ar    1  UNL1        0.0000
     46 C           4.5636   71.7889   28.4321 C.ar    1  UNL1        0.0000
     47 C           5.4563   72.6501   27.7867 C.ar    1  UNL1        0.0000
@<TRIPOS>BOND
     1    32    33    1
     2    33    34   ar
     3    34    28    1
     4    28    29    2
     5    28    30   am
     6    30     1    1
     7     1     2   ar
     8     2     3   ar
     9     3     4   ar
    10     4     7    1
    11     7     8    1
    12     8     9    1
    13     9    10    1
    14    10    16    1
    15    16    17    1
    16    17    18    1
    17    18    19   ar
    18    19    20   ar
    19    20    21   ar
    20    21    22   ar
    21    22    24    1
    22    24    25    2
    23    24    26    1
    24    22    23   ar
    25    10    11    1
    26    11    13    1
    27    13    14    1
    28    11    12    1
    29     4     5   ar
    30     5     6   ar
    31    34    35   ar
    32    35    36   ar
    33    36    37   ar
    34    37    38   ar
    35    38    39   ar
    36    39    42    1
    37    42    43   ar
    38    43    44   ar
    39    44    45   ar
    40    45    46   ar
    41    46    47   ar
    42    39    40   ar
    43    40    41   ar
    44    41    33   ar
    45     6     1   ar
    46    41    36   ar
    47    12     7    1
    48    47    42   ar
    49    23    18   ar
    50    30    31    1
    51    26    27    1
    52    14    15    1
@<TRIPOS>MOLECULE
*****
 47 52 0 0 0
SMALL
GASTEIGER

@<TRIPOS>ATOM
      1 C          10.4460   81.0521   25.0056 C.ar    1  UNL1        0.0702
      2 C          10.1901   80.6253   26.3139 C.ar    1  UNL1        0.0191
      3 C           9.4802   79.4461   26.5440 C.ar    1  UNL1        0.0356
      4 C           9.0126   78.6937   25.4533 C.ar    1  UNL1        0.1318
      5 N           9.2434   79.1479   24.1895 N.ar    1  UNL1       -0.2279
      6 C           9.9352   80.2913   23.9419 C.ar    1  UNL1        0.1149
      7 N           8.2684   77.4725   25.6472 N.pl3   1  UNL1       -0.2932
      8 C           8.9857   76.2513   26.0417 C.3     1  UNL1        0.0923
      9 C           8.1959   75.0032   25.6375 C.3     1  UNL1        0.0253
     10 C           6.7722   74.9793   26.2518 C.3     1  UNL1        0.0495
     11 C           6.1711   76.4114   26.4287 C.3     1  UNL1        0.0528
     12 C           6.8077   77.4359   25.4678 C.3     1  UNL1        0.0947
     13 C           4.6335   76.4215   26.3014 C.3     1  UNL1        0.1389
     14 O           4.2331   76.8145   25.0136 O.3     1  UNL1       -0.3819
     15 H           3.9904   75.9901   24.5171 H       1  UNL1        0.2104
     16 C           6.7664   74.2186   27.5921 C.3     1  UNL1        0.2055
     17 O           7.6757   74.8307   28.5051 O.3     1  UNL1       -0.4755
     18 C           7.3005   75.7151   29.5268 C.ar    1  UNL1        0.1388
     19 C           6.1818   75.4870   30.3485 C.ar    1  UNL1        0.0369
     20 C           5.8536   76.3976   31.3545 C.ar    1  UNL1        0.0033
     21 C           6.6288   77.5431   31.5490 C.ar    1  UNL1        0.0066
     22 C           7.7445   77.7943   30.7310 C.ar    1  UNL1        0.0785
     23 C           8.0747   76.8645   29.7274 C.ar    1  UNL1        0.0433
     24 C           8.5826   79.0027   30.9258 C.2     1  UNL1        0.3381
     25 O           8.3775   80.0260   30.2198 O.2     1  UNL1       -0.2451
     26 O           9.5923   79.0499   31.8864 O.3     1  UNL1       -0.4771
     27 H           9.7443   78.3064   32.5553 H       1  UNL1        0.2954
     28 C          12.5872   82.4092   24.8687 C.2     1  UNL1        0.2839
     29 O          13.2763   81.4938   25.3940 O.2     1  UNL1       -0.2665
     30 N          11.1586   82.2815   24.7843 N.am    1  UNL1       -0.2766
     31 H          10.5965   83.1503   24.6364 H       1  UNL1        0.1553
     32 C          15.4280   82.6132   23.3985 C.3     1  UNL1        0.0345
     33 C          14.4830   83.7281   23.7320 C.ar    1  UNL1        0.0202
     34 C          13.2435   83.6348   24.3750 C.ar    1  UNL1        0.1946
     35 O          12.7025   84.8346   24.4900 O.2     1  UNL1       -0.4492
     36 C          13.5274   85.7015   23.9554 C.ar    1  UNL1        0.1452
     37 C          13.3576   87.0780   23.8567 C.ar    1  UNL1        0.0375
     38 C          14.3745   87.8258   23.2382 C.ar    1  UNL1        0.0031
     39 C          15.5399   87.1905   22.7303 C.ar    1  UNL1        0.0002
     40 C          15.6736   85.7865   22.8517 C.ar    1  UNL1        0.0028
     41 C          14.6449   85.0755   23.4716 C.ar    1  UNL1        0.0337
     42 C          16.6076   87.9910   22.0787 C.ar    1  UNL1        0.0000
     43 C          17.8627   88.1480   22.6969 C.ar    1  UNL1        0.0000
     44 C          18.8662   88.9022   22.0811 C.ar    1  UNL1        0.0000
     45 C          18.6300   89.5062   20.8442 C.ar    1  UNL1        0.0000
     46 C          17.3894   89.3575   20.2204 C.ar    1  UNL1        0.0000
     47 C          16.3819   88.6051   20.8320 C.ar    1  UNL1        0.0000
@<TRIPOS>BOND
     1    32    33    1
     2    33    34   ar
     3    34    28    1
     4    28    29    2
     5    28    30   am
     6    30     1    1
     7     1     2   ar
     8     2     3   ar
     9     3     4   ar
    10     4     7    1
    11     7     8    1
    12     8     9    1
    13     9    10    1
    14    10    16    1
    15    16    17    1
    16    17    18    1
    17    18    19   ar
    18    19    20   ar
    19    20    21   ar
    20    21    22   ar
    21    22    24    1
    22    24    25    2
    23    24    26    1
    24    22    23   ar
    25    10    11    1
    26    11    13    1
    27    13    14    1
    28    11    12    1
    29     4     5   ar
    30     5     6   ar
    31    34    35   ar
    32    35    36   ar
    33    36    37   ar
    34    37    38   ar
    35    38    39   ar
    36    39    42    1
    37    42    43   ar
    38    43    44   ar
    39    44    45   ar
    40    45    46   ar
    41    46    47   ar
    42    39    40   ar
    43    40    41   ar
    44    41    33   ar
    45     6     1   ar
    46    41    36   ar
    47    12     7    1
    48    47    42   ar
    49    23    18   ar
    50    30    31    1
    51    26    27    1
    52    14    15    1
@<TRIPOS>MOLECULE
*****
 47 52 0 0 0
SMALL
GASTEIGER

@<TRIPOS>ATOM
      1 C           9.9189   79.8047   24.0553 C.ar    1  UNL1        0.0702
      2 C           9.9965   79.3627   22.7294 C.ar    1  UNL1        0.0191
      3 C           9.3304   78.2019   22.3337 C.ar    1  UNL1        0.0356
      4 C           8.5893   77.4712   23.2777 C.ar    1  UNL1        0.1318
      5 N           8.5577   77.9019   24.5701 N.ar    1  UNL1       -0.2279
      6 C           9.1957   79.0310   24.9770 C.ar    1  UNL1        0.1149
      7 N           7.8919   76.2619   22.9120 N.pl3   1  UNL1       -0.2932
      8 C           6.5536   76.3604   22.3115 C.3     1  UNL1        0.0923
      9 C           5.7626   75.0679   22.5331 C.3     1  UNL1        0.0253
     10 C           6.4890   73.8240   21.9587 C.3     1  UNL1        0.0495
     11 C           8.0453   73.9540   22.0255 C.3     1  UNL1        0.0528
     12 C           8.5035   74.9391   23.1200 C.3     1  UNL1        0.0947
     13 C           8.7411   72.5870   22.1916 C.3     1  UNL1        0.1389
     14 O           9.9781   72.7224   22.8431 O.3     1  UNL1       -0.3819
     15 H           9.8426   72.4552   23.7892 H       1  UNL1        0.2104
     16 C           6.0294   73.5388   20.5155 C.3     1  UNL1        0.2055
     17 O           4.6075   73.4349   20.4674 O.3     1  UNL1       -0.4755
     18 C           3.7598   74.3961   19.8977 C.ar    1  UNL1        0.1388
     19 C           2.3721   74.4089   20.1274 C.ar    1  UNL1        0.0369
     20 C           1.5731   75.3907   19.5388 C.ar    1  UNL1        0.0033
     21 C           2.1435   76.3631   18.7142 C.ar    1  UNL1        0.0066
     22 C           3.5272   76.3607   18.4636 C.ar    1  UNL1        0.0785
     23 C           4.3262   75.3742   19.0712 C.ar    1  UNL1        0.0433
     24 C           4.1516   77.3881   17.5947 C.2     1  UNL1        0.3381
     25 O           3.9255   78.6089   17.8089 O.2     1  UNL1       -0.2451
     26 O           5.0031   77.0443   16.5453 O.3     1  UNL1       -0.4771
     27 H           5.3099   76.0945   16.3802 H       1  UNL1        0.2954
     28 C          12.0592   81.0672   24.5748 C.2     1  UNL1        0.2839
     29 O          12.7536   80.0153   24.5810 O.2     1  UNL1       -0.2665
     30 N          10.6296   80.9897   24.4534 N.am    1  UNL1       -0.2766
     31 H          10.0665   81.8179   24.7529 H       1  UNL1        0.1553
     32 C          13.2847   82.2951   27.2700 C.3     1  UNL1        0.0345
     33 C          13.2478   82.9206   25.9082 C.ar    1  UNL1        0.0202
     34 C          12.7108   82.3813   24.7338 C.ar    1  UNL1        0.1946
     35 O          12.8677   83.2301   23.7336 O.2     1  UNL1       -0.4492
     36 C          13.4782   84.2925   24.1987 C.ar    1  UNL1        0.1452
     37 C          13.8441   85.4326   23.4920 C.ar    1  UNL1        0.0375
     38 C          14.4977   86.4616   24.1919 C.ar    1  UNL1        0.0031
     39 C          14.7744   86.3369   25.5802 C.ar    1  UNL1        0.0002
     40 C          14.3843   85.1594   26.2624 C.ar    1  UNL1        0.0028
     41 C          13.7372   84.1582   25.5364 C.ar    1  UNL1        0.0337
     42 C          15.4656   87.4306   26.3090 C.ar    1  UNL1        0.0000
     43 C          14.8972   87.9879   27.4703 C.ar    1  UNL1        0.0000
     44 C          15.5503   89.0176   28.1546 C.ar    1  UNL1        0.0000
     45 C          16.7753   89.5014   27.6899 C.ar    1  UNL1        0.0000
     46 C          17.3498   88.9566   26.5395 C.ar    1  UNL1        0.0000
     47 C          16.7007   87.9273   25.8506 C.ar    1  UNL1        0.0000
@<TRIPOS>BOND
     1    32    33    1
     2    33    34   ar
     3    34    28    1
     4    28    29    2
     5    28    30   am
     6    30     1    1
     7     1     2   ar
     8     2     3   ar
     9     3     4   ar
    10     4     7    1
    11     7     8    1
    12     8     9    1
    13     9    10    1
    14    10    16    1
    15    16    17    1
    16    17    18    1
    17    18    19   ar
    18    19    20   ar
    19    20    21   ar
    20    21    22   ar
    21    22    24    1
    22    24    25    2
    23    24    26    1
    24    22    23   ar
    25    10    11    1
    26    11    13    1
    27    13    14    1
    28    11    12    1
    29     4     5   ar
    30     5     6   ar
    31    34    35   ar
    32    35    36   ar
    33    36    37   ar
    34    37    38   ar
    35    38    39   ar
    36    39    42    1
    37    42    43   ar
    38    43    44   ar
    39    44    45   ar
    40    45    46   ar
    41    46    47   ar
    42    39    40   ar
    43    40    41   ar
    44    41    33   ar
    45     6     1   ar
    46    41    36   ar
    47    12     7    1
    48    47    42   ar
    49    23    18   ar
    50    30    31    1
    51    26    27    1
    52    14    15    1
@<TRIPOS>MOLECULE
*****
 47 52 0 0 0
SMALL
GASTEIGER

@<TRIPOS>ATOM
      1 C          10.4689   80.9875   24.7249 C.ar    1  UNL1        0.0702
      2 C          10.1292   80.4406   25.9678 C.ar    1  UNL1        0.0191
      3 C           9.3326   79.2970   26.0402 C.ar    1  UNL1        0.0356
      4 C           8.8628   78.7026   24.8570 C.ar    1  UNL1        0.1318
      5 N           9.1774   79.2736   23.6604 N.ar    1  UNL1       -0.2279
      6 C           9.9542   80.3849   23.5659 C.ar    1  UNL1        0.1149
      7 N           8.0307   77.5238   24.8875 N.pl3   1  UNL1       -0.2932
      8 C           7.6472   76.8846   23.6204 C.3     1  UNL1        0.0923
      9 C           6.3602   76.0722   23.7899 C.3     1  UNL1        0.0253
     10 C           6.4862   74.9872   24.8907 C.3     1  UNL1        0.0495
     11 C           7.4432   75.4168   26.0496 C.3     1  UNL1        0.0528
     12 C           7.5732   76.9492   26.1633 C.3     1  UNL1        0.0947
     13 C           7.0379   74.7986   27.4039 C.3     1  UNL1        0.1389
     14 O           8.1376   74.7157   28.2739 O.3     1  UNL1       -0.3819
     15 H           8.0643   75.4714   28.9130 H       1  UNL1        0.2104
     16 C           6.9350   73.6425   24.2861 C.3     1  UNL1        0.2055
     17 O           7.4652   73.8481   22.9777 O.3     1  UNL1       -0.4755
     18 C           8.7680   73.5071   22.5862 C.ar    1  UNL1        0.1388
     19 C           9.1821   72.1724   22.4250 C.ar    1  UNL1        0.0369
     20 C          10.4902   71.8872   22.0296 C.ar    1  UNL1        0.0033
     21 C          11.3981   72.9228   21.7967 C.ar    1  UNL1        0.0066
     22 C          11.0064   74.2630   21.9629 C.ar    1  UNL1        0.0785
     23 C           9.6822   74.5411   22.3500 C.ar    1  UNL1        0.0433
     24 C          11.9551   75.3763   21.7154 C.2     1  UNL1        0.3381
     25 O          12.1888   75.7472   20.5343 O.2     1  UNL1       -0.2451
     26 O          12.5931   76.0442   22.7601 O.3     1  UNL1       -0.4771
     27 H          12.3761   75.8697   23.7327 H       1  UNL1        0.2954
     28 C          12.7042   82.1802   24.5653 C.2     1  UNL1        0.2839
     29 O          13.3560   81.1224   24.7774 O.2     1  UNL1       -0.2665
     30 N          11.2710   82.1796   24.6669 N.am    1  UNL1       -0.2766
     31 H          10.7878   83.0982   24.7908 H       1  UNL1        0.1553
     32 C          15.5835   82.4665   23.1866 C.3     1  UNL1        0.0345
     33 C          14.6723   83.5633   23.6491 C.ar    1  UNL1        0.0202
     34 C          13.4158   83.4339   24.2516 C.ar    1  UNL1        0.1946
     35 O          12.9162   84.6281   24.5161 O.2     1  UNL1       -0.4492
     36 C          13.7842   85.5254   24.1169 C.ar    1  UNL1        0.1452
     37 C          13.6669   86.9083   24.1999 C.ar    1  UNL1        0.0375
     38 C          14.7242   87.6914   23.7052 C.ar    1  UNL1        0.0031
     39 C          15.8771   87.0841   23.1379 C.ar    1  UNL1        0.0002
     40 C          15.9568   85.6723   23.0731 C.ar    1  UNL1        0.0028
     41 C          14.8889   84.9260   23.5739 C.ar    1  UNL1        0.0337
     42 C          16.9877   87.9217   22.6183 C.ar    1  UNL1        0.0000
     43 C          18.0507   88.3028   23.4591 C.ar    1  UNL1        0.0000
     44 C          19.0953   89.0914   22.9672 C.ar    1  UNL1        0.0000
     45 C          19.0919   89.5071   21.6339 C.ar    1  UNL1        0.0000
     46 C          18.0435   89.1353   20.7895 C.ar    1  UNL1        0.0000
     47 C          16.9958   88.3475   21.2763 C.ar    1  UNL1        0.0000
@<TRIPOS>BOND
     1    32    33    1
     2    33    34   ar
     3    34    28    1
     4    28    29    2
     5    28    30   am
     6    30     1    1
     7     1     2   ar
     8     2     3   ar
     9     3     4   ar
    10     4     7    1
    11     7     8    1
    12     8     9    1
    13     9    10    1
    14    10    16    1
    15    16    17    1
    16    17    18    1
    17    18    19   ar
    18    19    20   ar
    19    20    21   ar
    20    21    22   ar
    21    22    24    1
    22    24    25    2
    23    24    26    1
    24    22    23   ar
    25    10    11    1
    26    11    13    1
    27    13    14    1
    28    11    12    1
    29     4     5   ar
    30     5     6   ar
    31    34    35   ar
    32    35    36   ar
    33    36    37   ar
    34    37    38   ar
    35    38    39   ar
    36    39    42    1
    37    42    43   ar
    38    43    44   ar
    39    44    45   ar
    40    45    46   ar
    41    46    47   ar
    42    39    40   ar
    43    40    41   ar
    44    41    33   ar
    45     6     1   ar
    46    41    36   ar
    47    12     7    1
    48    47    42   ar
    49    23    18   ar
    50    30    31    1
    51    26    27    1
    52    14    15    1
@<TRIPOS>MOLECULE
*****
 47 52 0 0 0
SMALL
GASTEIGER

@<TRIPOS>ATOM
      1 C           9.8987   79.8776   24.3793 C.ar    1  UNL1        0.0702
      2 C           9.2120   79.1728   25.3748 C.ar    1  UNL1        0.0191
      3 C           8.4283   78.0671   25.0418 C.ar    1  UNL1        0.0356
      4 C           8.3227   77.6709   23.6979 C.ar    1  UNL1        0.1318
      5 N           8.9719   78.3940   22.7427 N.ar    1  UNL1       -0.2279
      6 C           9.7431   79.4718   23.0443 C.ar    1  UNL1        0.1149
      7 N           7.5172   76.5380   23.3099 N.pl3   1  UNL1       -0.2932
      8 C           6.0522   76.6534   23.3497 C.3     1  UNL1        0.0923
      9 C           5.4024   75.2735   23.4863 C.3     1  UNL1        0.0253
     10 C           5.8072   74.3127   22.3383 C.3     1  UNL1        0.0495
     11 C           7.2544   74.5823   21.8127 C.3     1  UNL1        0.0528
     12 C           8.1390   75.2796   22.8661 C.3     1  UNL1        0.0947
     13 C           7.9348   73.3016   21.2860 C.3     1  UNL1        0.1389
     14 O           7.9863   72.3089   22.2784 O.3     1  UNL1       -0.3819
     15 H           7.2556   71.6648   22.0878 H       1  UNL1        0.2104
     16 C           4.7889   74.3791   21.1834 C.3     1  UNL1        0.2055
     17 O           4.2203   75.6853   21.1081 O.3     1  UNL1       -0.4755
     18 C           4.4829   76.6079   20.0850 C.ar    1  UNL1        0.1388
     19 C           3.7021   76.6816   18.9172 C.ar    1  UNL1        0.0369
     20 C           4.0040   77.6215   17.9302 C.ar    1  UNL1        0.0033
     21 C           5.0852   78.4909   18.0916 C.ar    1  UNL1        0.0066
     22 C           5.8842   78.4256   19.2468 C.ar    1  UNL1        0.0785
     23 C           5.5647   77.4830   20.2418 C.ar    1  UNL1        0.0433
     24 C           7.0335   79.3439   19.4381 C.2     1  UNL1        0.3381
     25 O           7.6207   79.8277   18.4339 O.2     1  UNL1       -0.2451
     26 O           7.4814   79.7060   20.7081 O.3     1  UNL1       -0.4771
     27 H           6.9959   79.4395   21.5546 H       1  UNL1        0.2954
     28 C          12.1051   81.1218   24.5481 C.2     1  UNL1        0.2839
     29 O          12.7804   80.0889   24.2914 O.2     1  UNL1       -0.2665
     30 N          10.6835   81.0289   24.7348 N.am    1  UNL1       -0.2766
     31 H          10.2027   81.8103   25.2357 H       1  UNL1        0.1553
     32 C          13.3164   82.3637   27.2432 C.3     1  UNL1        0.0345
     33 C          13.3110   82.9705   25.8725 C.ar    1  UNL1        0.0202
     34 C          12.7801   82.4251   24.6981 C.ar    1  UNL1        0.1946
     35 O          12.9677   83.2564   23.6885 O.2     1  UNL1       -0.4492
     36 C          13.5924   84.3132   24.1476 C.ar    1  UNL1        0.1452
     37 C          13.9906   85.4359   23.4305 C.ar    1  UNL1        0.0375
     38 C          14.6543   86.4618   24.1252 C.ar    1  UNL1        0.0031
     39 C          14.9090   86.3514   25.5191 C.ar    1  UNL1        0.0002
     40 C          14.4863   85.1915   26.2118 C.ar    1  UNL1        0.0028
     41 C          13.8299   84.1929   25.4906 C.ar    1  UNL1        0.0337
     42 C          15.6112   87.4417   26.2424 C.ar    1  UNL1        0.0000
     43 C          16.7342   88.0713   25.6725 C.ar    1  UNL1        0.0000
     44 C          17.3935   89.0978   26.3558 C.ar    1  UNL1        0.0000
     45 C          16.9406   89.5075   27.6118 C.ar    1  UNL1        0.0000
     46 C          15.8275   88.8912   28.1876 C.ar    1  UNL1        0.0000
     47 C          15.1648   87.8636   27.5093 C.ar    1  UNL1        0.0000
@<TRIPOS>BOND
     1    32    33    1
     2    33    34   ar
     3    34    28    1
     4    28    29    2
     5    28    30   am
     6    30     1    1
     7     1     2   ar
     8     2     3   ar
     9     3     4   ar
    10     4     7    1
    11     7     8    1
    12     8     9    1
    13     9    10    1
    14    10    16    1
    15    16    17    1
    16    17    18    1
    17    18    19   ar
    18    19    20   ar
    19    20    21   ar
    20    21    22   ar
    21    22    24    1
    22    24    25    2
    23    24    26    1
    24    22    23   ar
    25    10    11    1
    26    11    13    1
    27    13    14    1
    28    11    12    1
    29     4     5   ar
    30     5     6   ar
    31    34    35   ar
    32    35    36   ar
    33    36    37   ar
    34    37    38   ar
    35    38    39   ar
    36    39    42    1
    37    42    43   ar
    38    43    44   ar
    39    44    45   ar
    40    45    46   ar
    41    46    47   ar
    42    39    40   ar
    43    40    41   ar
    44    41    33   ar
    45     6     1   ar
    46    41    36   ar
    47    12     7    1
    48    47    42   ar
    49    23    18   ar
    50    30    31    1
    51    26    27    1
    52    14    15    1
@<TRIPOS>MOLECULE
*****
 47 52 0 0 0
SMALL
GASTEIGER

@<TRIPOS>ATOM
      1 C          10.6062   81.2564   25.0205 C.ar    1  UNL1        0.0702
      2 C          10.2119   80.5746   23.8634 C.ar    1  UNL1        0.0191
      3 C           9.4125   79.4343   23.9555 C.ar    1  UNL1        0.0356
      4 C           9.0141   78.9665   25.2191 C.ar    1  UNL1        0.1318
      5 N           9.4398   79.6265   26.3327 N.ar    1  UNL1       -0.2279
      6 C          10.2156   80.7406   26.2666 C.ar    1  UNL1        0.1149
      7 N           8.1939   77.7874   25.3592 N.pl3   1  UNL1       -0.2932
      8 C           7.4572   77.2843   24.1906 C.3     1  UNL1        0.0923
      9 C           6.2479   76.4527   24.6280 C.3     1  UNL1        0.0253
     10 C           6.6475   75.2578   25.5321 C.3     1  UNL1        0.0495
     11 C           7.8994   75.5665   26.4157 C.3     1  UNL1        0.0528
     12 C           8.0946   77.0789   26.6457 C.3     1  UNL1        0.0947
     13 C           7.8711   74.8065   27.7582 C.3     1  UNL1        0.1389
     14 O           7.9521   75.6925   28.8452 O.3     1  UNL1       -0.3819
     15 H           7.0337   75.8000   29.2056 H       1  UNL1        0.2104
     16 C           6.8764   73.9867   24.6912 C.3     1  UNL1        0.2055
     17 O           5.7421   73.7388   23.8623 O.3     1  UNL1       -0.4755
     18 C           5.7529   73.8039   22.4614 C.ar    1  UNL1        0.1388
     19 C           6.9006   73.5135   21.7016 C.ar    1  UNL1        0.0369
     20 C           6.8569   73.5899   20.3084 C.ar    1  UNL1        0.0033
     21 C           5.6769   73.9600   19.6592 C.ar    1  UNL1        0.0066
     22 C           4.5221   74.2647   20.4015 C.ar    1  UNL1        0.0785
     23 C           4.5724   74.1731   21.8049 C.ar    1  UNL1        0.0433
     24 C           3.2584   74.6548   19.7295 C.2     1  UNL1        0.3381
     25 O           3.2884   75.4600   18.7609 O.2     1  UNL1       -0.2451
     26 O           2.0248   74.1419   20.1291 O.3     1  UNL1       -0.4771
     27 H           1.9361   73.4160   20.8281 H       1  UNL1        0.2954
     28 C          12.8629   82.3619   24.6604 C.2     1  UNL1        0.2839
     29 O          13.4864   81.2724   24.7749 O.2     1  UNL1       -0.2665
     30 N          11.4492   82.4162   24.9110 N.am    1  UNL1       -0.2766
     31 H          11.0219   83.3493   25.1093 H       1  UNL1        0.1553
     32 C          15.6424   82.5687   23.0777 C.3     1  UNL1        0.0345
     33 C          14.8053   83.6896   23.6163 C.ar    1  UNL1        0.0202
     34 C          13.5923   83.5949   24.3078 C.ar    1  UNL1        0.1946
     35 O          13.1545   84.8017   24.6198 O.2     1  UNL1       -0.4492
     36 C          14.0213   85.6743   24.1670 C.ar    1  UNL1        0.1452
     37 C          13.9577   87.0593   24.2720 C.ar    1  UNL1        0.0375
     38 C          15.0024   87.8126   23.7089 C.ar    1  UNL1        0.0031
     39 C          16.0895   87.1742   23.0529 C.ar    1  UNL1        0.0002
     40 C          16.1159   85.7613   22.9686 C.ar    1  UNL1        0.0028
     41 C          15.0624   85.0450   23.5388 C.ar    1  UNL1        0.0337
     42 C          17.1874   87.9805   22.4617 C.ar    1  UNL1        0.0000
     43 C          18.3199   88.3179   23.2271 C.ar    1  UNL1        0.0000
     44 C          19.3523   89.0771   22.6679 C.ar    1  UNL1        0.0000
     45 C          19.2674   89.5067   21.3417 C.ar    1  UNL1        0.0000
     46 C          18.1495   89.1781   20.5718 C.ar    1  UNL1        0.0000
     47 C          17.1137   88.4198   21.1261 C.ar    1  UNL1        0.0000
@<TRIPOS>BOND
     1    32    33    1
     2    33    34   ar
     3    34    28    1
     4    28    29    2
     5    28    30   am
     6    30     1    1
     7     1     2   ar
     8     2     3   ar
     9     3     4   ar
    10     4     7    1
    11     7     8    1
    12     8     9    1
    13     9    10    1
    14    10    16    1
    15    16    17    1
    16    17    18    1
    17    18    19   ar
    18    19    20   ar
    19    20    21   ar
    20    21    22   ar
    21    22    24    1
    22    24    25    2
    23    24    26    1
    24    22    23   ar
    25    10    11    1
    26    11    13    1
    27    13    14    1
    28    11    12    1
    29     4     5   ar
    30     5     6   ar
    31    34    35   ar
    32    35    36   ar
    33    36    37   ar
    34    37    38   ar
    35    38    39   ar
    36    39    42    1
    37    42    43   ar
    38    43    44   ar
    39    44    45   ar
    40    45    46   ar
    41    46    47   ar
    42    39    40   ar
    43    40    41   ar
    44    41    33   ar
    45     6     1   ar
    46    41    36   ar
    47    12     7    1
    48    47    42   ar
    49    23    18   ar
    50    30    31    1
    51    26    27    1
    52    14    15    1
@<TRIPOS>MOLECULE
*****
 47 52 0 0 0
SMALL
GASTEIGER

@<TRIPOS>ATOM
      1 C          10.6028   80.9520   24.5894 C.ar    1  UNL1        0.0702
      2 C          10.0932   80.2965   23.4625 C.ar    1  UNL1        0.0191
      3 C           9.4438   79.0684   23.5956 C.ar    1  UNL1        0.0356
      4 C           9.3138   78.4866   24.8679 C.ar    1  UNL1        0.1318
      5 N           9.8491   79.1266   25.9452 N.ar    1  UNL1       -0.2279
      6 C          10.4826   80.3245   25.8396 C.ar    1  UNL1        0.1149
      7 N           8.6559   77.2149   25.0486 N.pl3   1  UNL1       -0.2932
      8 C           8.1983   76.8295   26.3915 C.3     1  UNL1        0.0923
      9 C           8.0824   75.3070   26.5094 C.3     1  UNL1        0.0253
     10 C           7.1233   74.7030   25.4510 C.3     1  UNL1        0.0495
     11 C           7.1247   75.5084   24.1113 C.3     1  UNL1        0.0528
     12 C           8.4276   76.3087   23.9111 C.3     1  UNL1        0.0947
     13 C           6.8379   74.6123   22.8885 C.3     1  UNL1        0.1389
     14 O           7.8634   73.6719   22.6961 O.3     1  UNL1       -0.3819
     15 H           7.5393   72.8059   23.0567 H       1  UNL1        0.2104
     16 C           5.6927   74.5845   26.0119 C.3     1  UNL1        0.2055
     17 O           5.7137   73.8982   27.2623 O.3     1  UNL1       -0.4755
     18 C           5.7825   74.5286   28.5132 C.ar    1  UNL1        0.1388
     19 C           6.7338   74.1722   29.4862 C.ar    1  UNL1        0.0369
     20 C           6.7619   74.8343   30.7149 C.ar    1  UNL1        0.0033
     21 C           5.8436   75.8504   30.9894 C.ar    1  UNL1        0.0066
     22 C           4.8781   76.2138   30.0340 C.ar    1  UNL1        0.0785
     23 C           4.8654   75.5490   28.7936 C.ar    1  UNL1        0.0433
     24 C           3.8980   77.2937   30.3056 C.2     1  UNL1        0.3381
     25 O           2.8184   77.3354   29.6575 O.2     1  UNL1       -0.2451
     26 O           4.1278   78.2675   31.2769 O.3     1  UNL1       -0.4771
     27 H           4.9213   78.2367   31.9036 H       1  UNL1        0.2954
     28 C          12.6474   82.4348   24.8457 C.2     1  UNL1        0.2839
     29 O          13.2289   81.6112   25.6022 O.2     1  UNL1       -0.2665
     30 N          11.2902   82.2055   24.4337 N.am    1  UNL1       -0.2766
     31 H          10.7418   83.0206   24.0767 H       1  UNL1        0.1553
     32 C          15.4958   82.6121   23.3867 C.3     1  UNL1        0.0345
     33 C          14.5900   83.7414   23.7757 C.ar    1  UNL1        0.0202
     34 C          13.3471   83.6597   24.4136 C.ar    1  UNL1        0.1946
     35 O          12.8483   84.8706   24.5884 O.2     1  UNL1       -0.4492
     36 C          13.7039   85.7336   24.0974 C.ar    1  UNL1        0.1452
     37 C          13.5827   87.1183   24.0676 C.ar    1  UNL1        0.0375
     38 C          14.6261   87.8599   23.4869 C.ar    1  UNL1        0.0031
     39 C          15.7693   87.2102   22.9476 C.ar    1  UNL1        0.0002
     40 C          15.8534   85.7981   22.9988 C.ar    1  UNL1        0.0028
     41 C          14.7994   85.0936   23.5827 C.ar    1  UNL1        0.0337
     42 C          16.8653   88.0042   22.3365 C.ar    1  UNL1        0.0000
     43 C          17.9940   88.3686   23.0950 C.ar    1  UNL1        0.0000
     44 C          19.0246   89.1162   22.5170 C.ar    1  UNL1        0.0000
     45 C          18.9416   89.5071   21.1787 C.ar    1  UNL1        0.0000
     46 C          17.8274   89.1514   20.4155 C.ar    1  UNL1        0.0000
     47 C          16.7934   88.4046   20.9886 C.ar    1  UNL1        0.0000
@<TRIPOS>BOND
     1    32    33    1
     2    33    34   ar
     3    34    28    1
     4    28    29    2
     5    28    30   am
     6    30     1    1
     7     1     2   ar
     8     2     3   ar
     9     3     4   ar
    10     4     7    1
    11     7     8    1
    12     8     9    1
    13     9    10    1
    14    10    16    1
    15    16    17    1
    16    17    18    1
    17    18    19   ar
    18    19    20   ar
    19    20    21   ar
    20    21    22   ar
    21    22    24    1
    22    24    25    2
    23    24    26    1
    24    22    23   ar
    25    10    11    1
    26    11    13    1
    27    13    14    1
    28    11    12    1
    29     4     5   ar
    30     5     6   ar
    31    34    35   ar
    32    35    36   ar
    33    36    37   ar
    34    37    38   ar
    35    38    39   ar
    36    39    42    1
    37    42    43   ar
    38    43    44   ar
    39    44    45   ar
    40    45    46   ar
    41    46    47   ar
    42    39    40   ar
    43    40    41   ar
    44    41    33   ar
    45     6     1   ar
    46    41    36   ar
    47    12     7    1
    48    47    42   ar
    49    23    18   ar
    50    30    31    1
    51    26    27    1
    52    14    15    1
