@<TRIPOS>MOLECULE
*****
 38 42 0 0 0
SMALL
GASTEIGER

@<TRIPOS>ATOM
      1 C          -9.4332   -6.9040   31.0939 C.ar    1  UNL1        0.1317
      2 C          -9.7335   -5.5420   30.8986 C.ar    1  UNL1        0.0286
      3 C         -11.0463   -5.0686   31.0879 C.ar    1  UNL1        0.0777
      4 C         -12.0578   -5.9651   31.4622 C.ar    1  UNL1        0.2967
      5 N         -11.7272   -7.2707   31.6277 N.ar    1  UNL1       -0.1224
      6 C         -12.4986   -8.3195   31.9458 C.ar    1  UNL1        0.3137
      7 C         -11.6748   -9.4418   31.9539 C.ar    1  UNL1        0.1320
      8 N         -10.4046   -9.0823   31.6420 N.ar    1  UNL1       -0.2941
      9 C         -10.4850   -7.7497   31.4586 C.ar    1  UNL1        0.3123
     10 H          -9.6105   -9.6593   31.5672 H       1  UNL1        0.1718
     11 N          -6.4584   -9.3894   30.2134 N.3     1  UNL1       -0.2647
     12 C          -6.5667   -8.3392   29.1763 C.3     1  UNL1        0.0941
     13 C          -7.3882   -7.1182   29.6501 C.3     1  UNL1        0.1084
     14 N          -8.1043   -7.4096   30.8973 N.pl3   1  UNL1       -0.2988
     15 C          -7.3979   -8.0427   32.0187 C.3     1  UNL1        0.1084
     16 C          -6.1554   -8.7844   31.5240 C.3     1  UNL1        0.0941
     17 C          -5.4448  -10.3946   29.8369 C.3     1  UNL1        0.1200
     18 N          -7.5542  -13.2285   28.8150 N.ar    1  UNL1       -0.3129
     19 C          -6.4169  -13.3798   28.0825 C.ar    1  UNL1        0.1785
     20 N          -5.5094  -12.4102   28.3278 N.ar    1  UNL1       -0.2274
     21 C          -6.0951  -11.6149   29.2440 C.ar    1  UNL1        0.0884
     22 C          -7.3459  -12.1142   29.5517 C.ar    1  UNL1        0.0537
     23 C          -8.3464  -11.5005   30.4891 C.3     1  UNL1        0.0514
     24 C          -6.1600  -14.4201   27.0632 C.2     1  UNL1        0.2073
     25 C          -6.7192  -15.8040   27.1600 C.3     1  UNL1        0.0806
     26 O          -5.4110  -14.1396   26.0896 O.2     1  UNL1       -0.2881
     27 C          -9.9540  -13.1699   29.3606 C.3     1  UNL1        0.0265
     28 C          -8.8288  -13.9489   28.6881 C.3     1  UNL1        0.1073
     29 C         -12.0747  -10.8408   32.2419 C.ar    1  UNL1        0.0218
     30 C         -11.2990  -11.6237   33.1096 C.ar    1  UNL1        0.0013
     31 C         -11.6604  -12.9414   33.3961 C.ar    1  UNL1       -0.0042
     32 C         -12.8091  -13.5267   32.8222 C.ar    1  UNL1       -0.0228
     33 C         -13.5858  -12.7279   31.9515 C.ar    1  UNL1       -0.0042
     34 C         -13.2221  -11.4084   31.6666 C.ar    1  UNL1        0.0013
     35 C         -13.1811  -14.9814   33.1764 C.3     1  UNL1        0.0189
     36 C         -12.4605  -15.9517   32.2138 C.3     1  UNL1        0.0044
     37 C         -14.6997  -15.2620   33.0721 C.3     1  UNL1        0.0044
     38 C         -12.7454  -15.2807   34.6266 C.3     1  UNL1        0.0044
@<TRIPOS>BOND
     1    27    28    1
     2    28    18    1
     3    18    19   ar
     4    19    24    1
     5    24    25    1
     6    24    26    2
     7    19    20   ar
     8    20    21   ar
     9    21    17    1
    10    17    11    1
    11    11    12    1
    12    12    13    1
    13    13    14    1
    14    14     1    1
    15     1     2   ar
    16     2     3   ar
    17     3     4   ar
    18     4     5   ar
    19     5     6   ar
    20     6     7   ar
    21     7    29    1
    22    29    30   ar
    23    30    31   ar
    24    31    32   ar
    25    32    35    1
    26    35    36    1
    27    35    37    1
    28    35    38    1
    29    32    33   ar
    30    33    34   ar
    31     7     8   ar
    32     8     9   ar
    33    14    15    1
    34    15    16    1
    35    21    22   ar
    36    22    23    1
    37    22    18   ar
    38    16    11    1
    39     9     1   ar
    40     9     5   ar
    41    34    29   ar
    42     8    10    1
@<TRIPOS>MOLECULE
*****
 38 42 0 0 0
SMALL
GASTEIGER

@<TRIPOS>ATOM
      1 C          -8.0341  -16.4073   24.8224 C.ar    1  UNL1        0.1317
      2 C          -8.5749  -17.6779   24.5457 C.ar    1  UNL1        0.0286
      3 C          -9.3631  -18.3404   25.5066 C.ar    1  UNL1        0.0777
      4 C          -9.5979  -17.7312   26.7479 C.ar    1  UNL1        0.2967
      5 N          -9.0477  -16.5122   26.9772 N.ar    1  UNL1       -0.1224
      6 C          -9.0910  -15.7415   28.0729 C.ar    1  UNL1        0.3137
      7 C          -8.3338  -14.6054   27.8003 C.ar    1  UNL1        0.1320
      8 N          -7.8288  -14.6798   26.5435 N.ar    1  UNL1       -0.2941
      9 C          -8.2964  -15.8555   26.0798 C.ar    1  UNL1        0.3123
     10 H          -7.2554  -14.0280   26.0793 H       1  UNL1        0.1718
     11 N          -5.6901  -15.7449   21.6810 N.3     1  UNL1       -0.2647
     12 C          -7.0347  -15.1755   21.4404 C.3     1  UNL1        0.0941
     13 C          -7.8518  -15.0099   22.7423 C.3     1  UNL1        0.1084
     14 N          -7.2203  -15.7186   23.8613 N.pl3   1  UNL1       -0.2988
     15 C          -5.7819  -15.5601   24.1126 C.3     1  UNL1        0.1084
     16 C          -5.0609  -15.0958   22.8463 C.3     1  UNL1        0.0941
     17 C          -4.8463  -15.6226   20.4756 C.3     1  UNL1        0.1200
     18 N          -3.2077  -18.8933   20.0990 N.ar    1  UNL1       -0.3129
     19 C          -2.1742  -18.0173   20.2312 C.ar    1  UNL1        0.1785
     20 N          -2.5918  -16.7417   20.3802 N.ar    1  UNL1       -0.2274
     21 C          -3.9365  -16.8126   20.3358 C.ar    1  UNL1        0.0884
     22 C          -4.3207  -18.1292   20.1700 C.ar    1  UNL1        0.0537
     23 C          -5.7265  -18.6371   20.0215 C.3     1  UNL1        0.0514
     24 C          -0.7330  -18.3410   20.1588 C.2     1  UNL1        0.2073
     25 C          -0.0854  -19.3553   21.0471 C.3     1  UNL1        0.0806
     26 O          -0.0134  -17.7121   19.3377 O.2     1  UNL1       -0.2881
     27 C          -4.4416  -21.0227   20.1573 C.3     1  UNL1        0.0265
     28 C          -3.1630  -20.3137   19.7243 C.3     1  UNL1        0.1073
     29 C          -8.0771  -13.4637   28.7117 C.ar    1  UNL1        0.0218
     30 C          -9.1270  -12.9286   29.4726 C.ar    1  UNL1        0.0013
     31 C          -8.9051  -11.8563   30.3387 C.ar    1  UNL1       -0.0042
     32 C          -7.6255  -11.2766   30.4731 C.ar    1  UNL1       -0.0228
     33 C          -6.5735  -11.8256   29.7040 C.ar    1  UNL1       -0.0042
     34 C          -6.7981  -12.8997   28.8379 C.ar    1  UNL1        0.0013
     35 C          -7.4200  -10.1022   31.4522 C.3     1  UNL1        0.0189
     36 C          -5.9088   -9.8517   31.6542 C.3     1  UNL1        0.0044
     37 C          -8.0413  -10.3587   32.8465 C.3     1  UNL1        0.0044
     38 C          -8.0765   -8.8322   30.8705 C.3     1  UNL1        0.0044
@<TRIPOS>BOND
     1    27    28    1
     2    28    18    1
     3    18    19   ar
     4    19    24    1
     5    24    25    1
     6    24    26    2
     7    19    20   ar
     8    20    21   ar
     9    21    17    1
    10    17    11    1
    11    11    12    1
    12    12    13    1
    13    13    14    1
    14    14     1    1
    15     1     2   ar
    16     2     3   ar
    17     3     4   ar
    18     4     5   ar
    19     5     6   ar
    20     6     7   ar
    21     7    29    1
    22    29    30   ar
    23    30    31   ar
    24    31    32   ar
    25    32    35    1
    26    35    36    1
    27    35    37    1
    28    35    38    1
    29    32    33   ar
    30    33    34   ar
    31     7     8   ar
    32     8     9   ar
    33    14    15    1
    34    15    16    1
    35    21    22   ar
    36    22    23    1
    37    22    18   ar
    38    16    11    1
    39     9     1   ar
    40     9     5   ar
    41    34    29   ar
    42     8    10    1
@<TRIPOS>MOLECULE
*****
 38 42 0 0 0
SMALL
GASTEIGER

@<TRIPOS>ATOM
      1 C          -8.0624  -16.2644   25.1381 C.ar    1  UNL1        0.1317
      2 C          -8.6464  -17.5266   24.9165 C.ar    1  UNL1        0.0286
      3 C          -9.4538  -18.1206   25.9058 C.ar    1  UNL1        0.0777
      4 C          -9.6645  -17.4516   27.1204 C.ar    1  UNL1        0.2967
      5 N          -9.0729  -16.2433   27.2969 N.ar    1  UNL1       -0.1224
      6 C          -9.0871  -15.4257   28.3588 C.ar    1  UNL1        0.3137
      7 C          -8.2929  -14.3285   28.0371 C.ar    1  UNL1        0.1320
      8 N          -7.7942  -14.4732   26.7839 N.ar    1  UNL1       -0.2941
      9 C          -8.3024  -15.6511   26.3713 C.ar    1  UNL1        0.3123
     10 H          -7.2005  -13.8614   26.2916 H       1  UNL1        0.1718
     11 N          -5.5980  -15.8315   22.0493 N.3     1  UNL1       -0.2647
     12 C          -6.9486  -15.3418   21.6939 C.3     1  UNL1        0.0941
     13 C          -7.8309  -15.0776   22.9357 C.3     1  UNL1        0.1084
     14 N          -7.2285  -15.6450   24.1475 N.pl3   1  UNL1       -0.2988
     15 C          -5.8097  -15.4063   24.4429 C.3     1  UNL1        0.1084
     16 C          -5.0466  -15.0444   23.1680 C.3     1  UNL1        0.0941
     17 C          -4.7035  -15.7987   20.8752 C.3     1  UNL1        0.1200
     18 N          -2.3079  -18.5849   20.7228 N.ar    1  UNL1       -0.3129
     19 C          -3.4920  -19.1441   20.3510 C.ar    1  UNL1        0.1785
     20 N          -4.5080  -18.2546   20.3509 N.ar    1  UNL1       -0.2274
     21 C          -3.9482  -17.0929   20.7410 C.ar    1  UNL1        0.0884
     22 C          -2.5987  -17.2869   20.9644 C.ar    1  UNL1        0.0537
     23 C          -1.6191  -16.2611   21.4587 C.3     1  UNL1        0.0514
     24 C          -3.7306  -20.5697   20.0377 C.2     1  UNL1        0.2073
     25 C          -5.1017  -21.1616   19.9535 C.3     1  UNL1        0.0806
     26 O          -2.7367  -21.3252   19.8680 O.2     1  UNL1       -0.2881
     27 C           0.0835  -18.7103   20.1521 C.3     1  UNL1        0.0265
     28 C          -1.0363  -19.2528   21.0335 C.3     1  UNL1        0.1073
     29 C          -7.9954  -13.1584   28.8987 C.ar    1  UNL1        0.0218
     30 C          -9.0301  -12.5368   29.6132 C.ar    1  UNL1        0.0013
     31 C          -8.7701  -11.4365   30.4321 C.ar    1  UNL1       -0.0042
     32 C          -7.4657  -10.9142   30.5640 C.ar    1  UNL1       -0.0228
     33 C          -6.4293  -11.5501   29.8420 C.ar    1  UNL1       -0.0042
     34 C          -6.6923  -12.6521   29.0230 C.ar    1  UNL1        0.0013
     35 C          -7.2188   -9.7057   31.4907 C.3     1  UNL1        0.0189
     36 C          -7.9730   -8.4713   30.9478 C.3     1  UNL1        0.0044
     37 C          -5.7228   -9.3254   31.6062 C.3     1  UNL1        0.0044
     38 C          -7.7315  -10.0368   32.9083 C.3     1  UNL1        0.0044
@<TRIPOS>BOND
     1    27    28    1
     2    28    18    1
     3    18    19   ar
     4    19    24    1
     5    24    25    1
     6    24    26    2
     7    19    20   ar
     8    20    21   ar
     9    21    17    1
    10    17    11    1
    11    11    12    1
    12    12    13    1
    13    13    14    1
    14    14     1    1
    15     1     2   ar
    16     2     3   ar
    17     3     4   ar
    18     4     5   ar
    19     5     6   ar
    20     6     7   ar
    21     7    29    1
    22    29    30   ar
    23    30    31   ar
    24    31    32   ar
    25    32    35    1
    26    35    36    1
    27    35    37    1
    28    35    38    1
    29    32    33   ar
    30    33    34   ar
    31     7     8   ar
    32     8     9   ar
    33    14    15    1
    34    15    16    1
    35    21    22   ar
    36    22    23    1
    37    22    18   ar
    38    16    11    1
    39     9     1   ar
    40     9     5   ar
    41    34    29   ar
    42     8    10    1
