@<TRIPOS>MOLECULE
*****
 48 53 0 0 0
SMALL
GASTEIGER

@<TRIPOS>ATOM
      1 C          60.3588   86.7008    8.1692 C.ar    1  UNL1        0.0702
      2 C          61.4432   87.0790    8.9765 C.ar    1  UNL1        0.0191
      3 C          61.7269   86.3715   10.1457 C.ar    1  UNL1        0.0356
      4 C          60.9264   85.2749   10.5047 C.ar    1  UNL1        0.1318
      5 N          59.8971   84.9107    9.6907 N.ar    1  UNL1       -0.2279
      6 C          59.6028   85.5840    8.5474 C.ar    1  UNL1        0.1149
      7 N          61.1874   84.5191   11.7042 N.pl3   1  UNL1       -0.2927
      8 C          60.0855   83.8185   12.3745 C.3     1  UNL1        0.0923
      9 C          60.1900   83.9846   13.8931 C.3     1  UNL1        0.0258
     10 C          61.5881   83.6087   14.4289 C.3     1  UNL1        0.0577
     11 C          62.7076   84.3664   13.6637 C.3     1  UNL1        0.1222
     12 C          62.5627   84.2266   12.1329 C.3     1  UNL1        0.1033
     13 C          62.7539   85.8167   14.0920 C.2     1  UNL1        0.3151
     14 O          62.5607   86.1409   15.2944 O.2     1  UNL1       -0.2502
     15 O          63.0700   86.8079   13.1670 O.3     1  UNL1       -0.4801
     16 H          63.2651   86.5801   12.1993 H       1  UNL1        0.2951
     17 C          61.8040   82.0770   14.4135 C.3     1  UNL1        0.2059
     18 O          62.3852   81.6491   13.1803 O.3     1  UNL1       -0.4754
     19 C          61.8098   80.7448   12.2723 C.ar    1  UNL1        0.1388
     20 C          62.4380   80.5685   11.0352 C.ar    1  UNL1        0.0369
     21 C          61.9152   79.6800   10.0944 C.ar    1  UNL1        0.0033
     22 C          60.7542   78.9589   10.3793 C.ar    1  UNL1        0.0066
     23 C          60.1002   79.1234   11.6129 C.ar    1  UNL1        0.0785
     24 C          60.6327   80.0224   12.5552 C.ar    1  UNL1        0.0433
     25 C          58.8679   78.3627   11.9188 C.2     1  UNL1        0.3381
     26 O          58.6815   77.8853   13.0709 O.2     1  UNL1       -0.2451
     27 O          57.9006   78.1673   10.9361 O.3     1  UNL1       -0.4771
     28 H          57.0536   77.6486   11.1354 H       1  UNL1        0.2954
     29 C          59.9228   88.8151    6.8419 C.2     1  UNL1        0.2839
     30 O          59.6004   89.4935    7.8541 O.2     1  UNL1       -0.2665
     31 N          60.0506   87.3891    6.9449 N.am    1  UNL1       -0.2766
     32 H          59.7984   86.8161    6.1088 H       1  UNL1        0.1553
     33 C          57.5961   90.0816    4.9862 C.3     1  UNL1        0.0345
     34 C          59.0758   90.0601    4.7474 C.ar    1  UNL1        0.0202
     35 C          60.0808   89.5036    5.5486 C.ar    1  UNL1        0.1946
     36 O          61.2590   89.6650    4.9722 O.2     1  UNL1       -0.4492
     37 C          61.0729   90.3166    3.8504 C.ar    1  UNL1        0.1452
     38 C          62.0388   90.7090    2.9304 C.ar    1  UNL1        0.0375
     39 C          61.6153   91.4088    1.7868 C.ar    1  UNL1        0.0031
     40 C          60.2403   91.7041    1.5808 C.ar    1  UNL1        0.0002
     41 C          59.2893   91.2843    2.5418 C.ar    1  UNL1        0.0028
     42 C          59.7457   90.5921    3.6637 C.ar    1  UNL1        0.0337
     43 C          59.8045   92.4449    0.3699 C.ar    1  UNL1        0.0000
     44 C          60.7522   93.0379   -0.4861 C.ar    1  UNL1        0.0000
     45 C          60.3392   93.7348   -1.6258 C.ar    1  UNL1        0.0000
     46 C          58.9796   93.8469   -1.9245 C.ar    1  UNL1        0.0000
     47 C          58.0297   93.2627   -1.0839 C.ar    1  UNL1        0.0000
     48 C          58.4369   92.5654    0.0577 C.ar    1  UNL1        0.0000
@<TRIPOS>BOND
     1    33    34    1
     2    34    35   ar
     3    35    29    1
     4    29    30    2
     5    29    31   am
     6    31     1    1
     7     1     2   ar
     8     2     3   ar
     9     3     4   ar
    10     4     7    1
    11     7     8    1
    12     8     9    1
    13     9    10    1
    14    10    17    1
    15    17    18    1
    16    18    19    1
    17    19    20   ar
    18    20    21   ar
    19    21    22   ar
    20    22    23   ar
    21    23    25    1
    22    25    26    2
    23    25    27    1
    24    23    24   ar
    25    10    11    1
    26    11    13    1
    27    13    14    2
    28    13    15    1
    29    11    12    1
    30     4     5   ar
    31     5     6   ar
    32    35    36   ar
    33    36    37   ar
    34    37    38   ar
    35    38    39   ar
    36    39    40   ar
    37    40    43    1
    38    43    44   ar
    39    44    45   ar
    40    45    46   ar
    41    46    47   ar
    42    47    48   ar
    43    40    41   ar
    44    41    42   ar
    45    42    34   ar
    46     6     1   ar
    47    42    37   ar
    48    12     7    1
    49    48    43   ar
    50    24    19   ar
    51    31    32    1
    52    27    28    1
    53    15    16    1
@<TRIPOS>MOLECULE
*****
 48 53 0 0 0
SMALL
GASTEIGER

@<TRIPOS>ATOM
      1 C          60.0118   85.9356    8.3309 C.ar    1  UNL1        0.0702
      2 C          59.8131   86.2716    9.6793 C.ar    1  UNL1        0.0191
      3 C          60.1609   85.3688   10.6852 C.ar    1  UNL1        0.0356
      4 C          60.7179   84.1265   10.3405 C.ar    1  UNL1        0.1318
      5 N          60.9263   83.8350    9.0266 N.ar    1  UNL1       -0.2279
      6 C          60.5964   84.6987    8.0305 C.ar    1  UNL1        0.1149
      7 N          61.0900   83.1675   11.3503 N.pl3   1  UNL1       -0.2927
      8 C          60.6127   83.3415   12.7273 C.3     1  UNL1        0.0923
      9 C          61.7312   83.0297   13.7256 C.3     1  UNL1        0.0258
     10 C          62.3882   81.6583   13.4600 C.3     1  UNL1        0.0577
     11 C          62.8497   81.5309   11.9823 C.3     1  UNL1        0.1222
     12 C          61.7245   81.8917   10.9885 C.3     1  UNL1        0.1033
     13 C          64.0946   82.3566   11.7429 C.2     1  UNL1        0.3151
     14 O          64.3585   82.8084   10.5965 O.2     1  UNL1       -0.2502
     15 O          64.9354   82.6760   12.8055 O.3     1  UNL1       -0.4801
     16 H          64.7357   82.3588   13.7468 H       1  UNL1        0.2951
     17 C          61.4582   80.4969   13.8835 C.3     1  UNL1        0.2059
     18 O          60.0951   80.7835   13.5650 O.3     1  UNL1       -0.4754
     19 C          59.3571   80.2026   12.5205 C.ar    1  UNL1        0.1388
     20 C          58.9756   78.8635   12.6529 C.ar    1  UNL1        0.0369
     21 C          58.2372   78.2338   11.6498 C.ar    1  UNL1        0.0033
     22 C          57.8743   78.9364   10.4993 C.ar    1  UNL1        0.0066
     23 C          58.2515   80.2812   10.3392 C.ar    1  UNL1        0.0785
     24 C          58.9973   80.9082   11.3542 C.ar    1  UNL1        0.0433
     25 C          57.8709   81.0297    9.1203 C.2     1  UNL1        0.3381
     26 O          57.8177   82.2894    9.1349 O.2     1  UNL1       -0.2451
     27 O          57.5682   80.3491    7.9436 O.3     1  UNL1       -0.4771
     28 H          57.3071   80.8520    7.1040 H       1  UNL1        0.2954
     29 C          60.0564   88.2366    7.2701 C.2     1  UNL1        0.2839
     30 O          60.2439   88.8371    8.3624 O.2     1  UNL1       -0.2665
     31 N          59.6896   86.8489    7.2680 N.am    1  UNL1       -0.2766
     32 H          59.0612   86.5127    6.5045 H       1  UNL1        0.1553
     33 C          57.6075   89.3398    5.4680 C.3     1  UNL1        0.0345
     34 C          59.0810   89.4912    5.2381 C.ar    1  UNL1        0.0202
     35 C          60.1398   89.0054    6.0156 C.ar    1  UNL1        0.1946
     36 O          61.2940   89.3237    5.4562 O.2     1  UNL1       -0.4492
     37 C          61.0392   90.0094    4.3688 C.ar    1  UNL1        0.1452
     38 C          61.9576   90.5522    3.4769 C.ar    1  UNL1        0.0375
     39 C          61.4616   91.2612    2.3688 C.ar    1  UNL1        0.0031
     40 C          60.0628   91.4163    2.1695 C.ar    1  UNL1        0.0002
     41 C          59.1623   90.8460    3.1010 C.ar    1  UNL1        0.0028
     42 C          59.6901   90.1491    4.1881 C.ar    1  UNL1        0.0337
     43 C          59.5502   92.1684    0.9962 C.ar    1  UNL1        0.0000
     44 C          60.3488   93.1412    0.3650 C.ar    1  UNL1        0.0000
     45 C          59.8637   93.8479   -0.7397 C.ar    1  UNL1        0.0000
     46 C          58.5802   93.5920   -1.2271 C.ar    1  UNL1        0.0000
     47 C          57.7785   92.6290   -0.6103 C.ar    1  UNL1        0.0000
     48 C          58.2580   91.9200    0.4954 C.ar    1  UNL1        0.0000
@<TRIPOS>BOND
     1    33    34    1
     2    34    35   ar
     3    35    29    1
     4    29    30    2
     5    29    31   am
     6    31     1    1
     7     1     2   ar
     8     2     3   ar
     9     3     4   ar
    10     4     7    1
    11     7     8    1
    12     8     9    1
    13     9    10    1
    14    10    17    1
    15    17    18    1
    16    18    19    1
    17    19    20   ar
    18    20    21   ar
    19    21    22   ar
    20    22    23   ar
    21    23    25    1
    22    25    26    2
    23    25    27    1
    24    23    24   ar
    25    10    11    1
    26    11    13    1
    27    13    14    2
    28    13    15    1
    29    11    12    1
    30     4     5   ar
    31     5     6   ar
    32    35    36   ar
    33    36    37   ar
    34    37    38   ar
    35    38    39   ar
    36    39    40   ar
    37    40    43    1
    38    43    44   ar
    39    44    45   ar
    40    45    46   ar
    41    46    47   ar
    42    47    48   ar
    43    40    41   ar
    44    41    42   ar
    45    42    34   ar
    46     6     1   ar
    47    42    37   ar
    48    12     7    1
    49    48    43   ar
    50    24    19   ar
    51    31    32    1
    52    27    28    1
    53    15    16    1
@<TRIPOS>MOLECULE
*****
 48 53 0 0 0
SMALL
GASTEIGER

@<TRIPOS>ATOM
      1 C          60.5378   86.5441    7.9458 C.ar    1  UNL1        0.0702
      2 C          61.5527   85.5773    7.8697 C.ar    1  UNL1        0.0191
      3 C          61.9055   84.8408    9.0015 C.ar    1  UNL1        0.0356
      4 C          61.2337   85.0672   10.2138 C.ar    1  UNL1        0.1318
      5 N          60.2340   85.9910   10.2555 N.ar    1  UNL1       -0.2279
      6 C          59.8729   86.7191    9.1661 C.ar    1  UNL1        0.1149
      7 N          61.5692   84.3269   11.4045 N.pl3   1  UNL1       -0.2927
      8 C          62.0215   85.0450   12.6020 C.3     1  UNL1        0.0923
      9 C          63.1896   84.3056   13.2607 C.3     1  UNL1        0.0258
     10 C          62.8751   82.8145   13.5070 C.3     1  UNL1        0.0577
     11 C          62.3814   82.1204   12.2080 C.3     1  UNL1        0.1222
     12 C          61.2340   82.9012   11.5315 C.3     1  UNL1        0.1033
     13 C          63.5367   81.8884   11.2593 C.2     1  UNL1        0.3151
     14 O          63.3356   81.7206   10.0266 O.2     1  UNL1       -0.2502
     15 O          64.8455   81.9161   11.7331 O.3     1  UNL1       -0.4801
     16 H          65.0461   82.0827   12.7121 H       1  UNL1        0.2951
     17 C          61.8817   82.6346   14.6791 C.3     1  UNL1        0.2059
     18 O          61.6832   83.8628   15.3818 O.3     1  UNL1       -0.4754
     19 C          60.7100   84.8307   15.0833 C.ar    1  UNL1        0.1388
     20 C          60.9067   86.1289   15.5652 C.ar    1  UNL1        0.0369
     21 C          59.9762   87.1339   15.2966 C.ar    1  UNL1        0.0033
     22 C          58.8347   86.8507   14.5445 C.ar    1  UNL1        0.0066
     23 C          58.6105   85.5521   14.0546 C.ar    1  UNL1        0.0785
     24 C          59.5524   84.5442   14.3313 C.ar    1  UNL1        0.0433
     25 C          57.4006   85.2465   13.2585 C.2     1  UNL1        0.3381
     26 O          57.4790   84.5202   12.2307 O.2     1  UNL1       -0.2451
     27 O          56.1621   85.7579   13.6379 O.3     1  UNL1       -0.4771
     28 H          55.3281   85.5543   13.1002 H       1  UNL1        0.2954
     29 C          60.1365   88.7391    6.7444 C.2     1  UNL1        0.2839
     30 O          60.0355   89.4081    7.8078 O.2     1  UNL1       -0.2665
     31 N          60.1293   87.3046    6.7958 N.am    1  UNL1       -0.2766
     32 H          59.7012   86.7909    5.9934 H       1  UNL1        0.1553
     33 C          57.6317   89.8686    5.0381 C.3     1  UNL1        0.0345
     34 C          59.0944   89.9532    4.7210 C.ar    1  UNL1        0.0202
     35 C          60.1769   89.4559    5.4575 C.ar    1  UNL1        0.1946
     36 O          61.3084   89.7072    4.8227 O.2     1  UNL1       -0.4492
     37 C          61.0178   90.3609    3.7246 C.ar    1  UNL1        0.1452
     38 C          61.9035   90.8330    2.7622 C.ar    1  UNL1        0.0375
     39 C          61.3719   91.5186    1.6558 C.ar    1  UNL1        0.0031
     40 C          59.9708   91.7209    1.5283 C.ar    1  UNL1        0.0002
     41 C          59.1041   91.2220    2.5302 C.ar    1  UNL1        0.0028
     42 C          59.6667   90.5465    3.6135 C.ar    1  UNL1        0.0337
     43 C          59.4205   92.4476    0.3560 C.ar    1  UNL1        0.0000
     44 C          58.0380   92.4339    0.0898 C.ar    1  UNL1        0.0000
     45 C          57.5225   93.1192   -1.0147 C.ar    1  UNL1        0.0000
     46 C          58.3779   93.8251   -1.8634 C.ar    1  UNL1        0.0000
     47 C          59.7510   93.8470   -1.6099 C.ar    1  UNL1        0.0000
     48 C          60.2722   93.1627   -0.5074 C.ar    1  UNL1        0.0000
@<TRIPOS>BOND
     1    33    34    1
     2    34    35   ar
     3    35    29    1
     4    29    30    2
     5    29    31   am
     6    31     1    1
     7     1     2   ar
     8     2     3   ar
     9     3     4   ar
    10     4     7    1
    11     7     8    1
    12     8     9    1
    13     9    10    1
    14    10    17    1
    15    17    18    1
    16    18    19    1
    17    19    20   ar
    18    20    21   ar
    19    21    22   ar
    20    22    23   ar
    21    23    25    1
    22    25    26    2
    23    25    27    1
    24    23    24   ar
    25    10    11    1
    26    11    13    1
    27    13    14    2
    28    13    15    1
    29    11    12    1
    30     4     5   ar
    31     5     6   ar
    32    35    36   ar
    33    36    37   ar
    34    37    38   ar
    35    38    39   ar
    36    39    40   ar
    37    40    43    1
    38    43    44   ar
    39    44    45   ar
    40    45    46   ar
    41    46    47   ar
    42    47    48   ar
    43    40    41   ar
    44    41    42   ar
    45    42    34   ar
    46     6     1   ar
    47    42    37   ar
    48    12     7    1
    49    48    43   ar
    50    24    19   ar
    51    31    32    1
    52    27    28    1
    53    15    16    1
@<TRIPOS>MOLECULE
*****
 48 53 0 0 0
SMALL
GASTEIGER

@<TRIPOS>ATOM
      1 C          59.7555   87.4095    7.5309 C.ar    1  UNL1        0.0702
      2 C          58.9996   86.2592    7.8061 C.ar    1  UNL1        0.0191
      3 C          58.9454   85.7501    9.1046 C.ar    1  UNL1        0.0356
      4 C          59.6446   86.4002   10.1344 C.ar    1  UNL1        0.1318
      5 N          60.3484   87.5303    9.8475 N.ar    1  UNL1       -0.2279
      6 C          60.4146   88.0445    8.5912 C.ar    1  UNL1        0.1149
      7 N          59.6133   85.9054   11.4881 N.pl3   1  UNL1       -0.2927
      8 C          59.8474   84.4794   11.7450 C.3     1  UNL1        0.0923
      9 C          58.8730   83.9590   12.8054 C.3     1  UNL1        0.0258
     10 C          58.8714   84.8318   14.0786 C.3     1  UNL1        0.0577
     11 C          58.6414   86.3292   13.7353 C.3     1  UNL1        0.1222
     12 C          59.6012   86.8272   12.6332 C.3     1  UNL1        0.1033
     13 C          57.1938   86.5727   13.3695 C.2     1  UNL1        0.3151
     14 O          56.7731   87.7386   13.1421 O.2     1  UNL1       -0.2502
     15 O          56.3206   85.4984   13.2228 O.3     1  UNL1       -0.4801
     16 H          56.6328   84.5450   13.3641 H       1  UNL1        0.2951
     17 C          60.1564   84.6144   14.9120 C.3     1  UNL1        0.2059
     18 O          60.5450   85.8134   15.5852 O.3     1  UNL1       -0.4754
     19 C          61.7451   86.5152   15.3837 C.ar    1  UNL1        0.1388
     20 C          62.8375   85.8113   14.8665 C.ar    1  UNL1        0.0369
     21 C          64.0543   86.4564   14.6406 C.ar    1  UNL1        0.0033
     22 C          64.1938   87.8143   14.9330 C.ar    1  UNL1        0.0066
     23 C          63.1128   88.5424   15.4601 C.ar    1  UNL1        0.0785
     24 C          61.8900   87.8844   15.6867 C.ar    1  UNL1        0.0433
     25 C          63.2564   89.9819   15.7737 C.2     1  UNL1        0.3381
     26 O          64.3009   90.6063   15.4434 O.2     1  UNL1       -0.2451
     27 O          62.2377   90.6616   16.4367 O.3     1  UNL1       -0.4771
     28 H          62.3260   91.6468   16.6555 H       1  UNL1        0.2954
     29 C          59.1687   89.2050    5.8415 C.2     1  UNL1        0.2839
     30 O          58.1515   89.5968    6.4743 O.2     1  UNL1       -0.2665
     31 N          59.8152   87.9780    6.2114 N.am    1  UNL1       -0.2766
     32 H          60.2605   87.4146    5.4530 H       1  UNL1        0.1553
     33 C          62.2004   89.5828    4.7796 C.3     1  UNL1        0.0345
     34 C          60.9322   90.1422    4.2088 C.ar    1  UNL1        0.0202
     35 C          59.6212   89.9840    4.6753 C.ar    1  UNL1        0.1946
     36 O          58.7848   90.6644    3.9111 O.2     1  UNL1       -0.4492
     37 C          59.4822   91.2370    2.9607 C.ar    1  UNL1        0.1452
     38 C          59.0070   92.0407    1.9303 C.ar    1  UNL1        0.0375
     39 C          59.9379   92.5517    1.0089 C.ar    1  UNL1        0.0031
     40 C          61.3224   92.2537    1.1305 C.ar    1  UNL1        0.0002
     41 C          61.7641   91.4329    2.1959 C.ar    1  UNL1        0.0028
     42 C          60.8124   90.9440    3.0912 C.ar    1  UNL1        0.0337
     43 C          62.2966   92.7979    0.1508 C.ar    1  UNL1        0.0000
     44 C          61.8565   93.3280   -1.0771 C.ar    1  UNL1        0.0000
     45 C          62.7760   93.8400   -1.9979 C.ar    1  UNL1        0.0000
     46 C          64.1413   93.8300   -1.7045 C.ar    1  UNL1        0.0000
     47 C          64.5905   93.3076   -0.4898 C.ar    1  UNL1        0.0000
     48 C          63.6757   92.7934    0.4343 C.ar    1  UNL1        0.0000
@<TRIPOS>BOND
     1    33    34    1
     2    34    35   ar
     3    35    29    1
     4    29    30    2
     5    29    31   am
     6    31     1    1
     7     1     2   ar
     8     2     3   ar
     9     3     4   ar
    10     4     7    1
    11     7     8    1
    12     8     9    1
    13     9    10    1
    14    10    17    1
    15    17    18    1
    16    18    19    1
    17    19    20   ar
    18    20    21   ar
    19    21    22   ar
    20    22    23   ar
    21    23    25    1
    22    25    26    2
    23    25    27    1
    24    23    24   ar
    25    10    11    1
    26    11    13    1
    27    13    14    2
    28    13    15    1
    29    11    12    1
    30     4     5   ar
    31     5     6   ar
    32    35    36   ar
    33    36    37   ar
    34    37    38   ar
    35    38    39   ar
    36    39    40   ar
    37    40    43    1
    38    43    44   ar
    39    44    45   ar
    40    45    46   ar
    41    46    47   ar
    42    47    48   ar
    43    40    41   ar
    44    41    42   ar
    45    42    34   ar
    46     6     1   ar
    47    42    37   ar
    48    12     7    1
    49    48    43   ar
    50    24    19   ar
    51    31    32    1
    52    27    28    1
    53    15    16    1
@<TRIPOS>MOLECULE
*****
 48 53 0 0 0
SMALL
GASTEIGER

@<TRIPOS>ATOM
      1 C          59.5897   87.2793    7.2867 C.ar    1  UNL1        0.0702
      2 C          58.9125   86.0635    7.4702 C.ar    1  UNL1        0.0191
      3 C          58.8331   85.4900    8.7401 C.ar    1  UNL1        0.0356
      4 C          59.4276   86.1405    9.8336 C.ar    1  UNL1        0.1318
      5 N          60.0551   87.3327    9.6347 N.ar    1  UNL1       -0.2279
      6 C          60.1440   87.9102    8.4077 C.ar    1  UNL1        0.1149
      7 N          59.3672   85.5803   11.1605 N.pl3   1  UNL1       -0.2927
      8 C          59.1715   84.1355   11.3298 C.3     1  UNL1        0.0923
      9 C          58.1838   83.8583   12.4667 C.3     1  UNL1        0.0258
     10 C          58.5668   84.5944   13.7683 C.3     1  UNL1        0.0577
     11 C          58.7807   86.1121   13.5157 C.3     1  UNL1        0.1222
     12 C          59.7439   86.3755   12.3381 C.3     1  UNL1        0.1033
     13 C          57.4523   86.8090   13.3197 C.2     1  UNL1        0.3151
     14 O          56.3744   86.2500   13.6572 O.2     1  UNL1       -0.2502
     15 O          57.4121   88.1059   12.8154 O.3     1  UNL1       -0.4801
     16 H          58.2614   88.5988   12.5659 H       1  UNL1        0.2951
     17 C          59.7914   83.9371   14.4475 C.3     1  UNL1        0.2059
     18 O          60.2135   82.7718   13.7364 O.3     1  UNL1       -0.4754
     19 C          61.5401   82.4470   13.4076 C.ar    1  UNL1        0.1388
     20 C          62.3811   82.0061   14.4345 C.ar    1  UNL1        0.0369
     21 C          63.7077   81.6646   14.1675 C.ar    1  UNL1        0.0033
     22 C          64.2102   81.7636   12.8688 C.ar    1  UNL1        0.0066
     23 C          63.3870   82.2107   11.8204 C.ar    1  UNL1        0.0785
     24 C          62.0513   82.5547   12.0982 C.ar    1  UNL1        0.0433
     25 C          63.9158   82.3193   10.4422 C.2     1  UNL1        0.3381
     26 O          64.5864   81.3772    9.9394 O.2     1  UNL1       -0.2451
     27 O          63.6768   83.4640    9.6860 O.3     1  UNL1       -0.4771
     28 H          64.0339   83.5479    8.7418 H       1  UNL1        0.2954
     29 C          59.1446   89.2189    5.7176 C.2     1  UNL1        0.2839
     30 O          58.1914   89.6751    6.4046 O.2     1  UNL1       -0.2665
     31 N          59.6709   87.9134    5.9987 N.am    1  UNL1       -0.2766
     32 H          60.0343   87.3520    5.1963 H       1  UNL1        0.1553
     33 C          62.1988   89.4863    4.6871 C.3     1  UNL1        0.0345
     34 C          60.9630   90.1242    4.1277 C.ar    1  UNL1        0.0202
     35 C          59.6424   90.0135    4.5808 C.ar    1  UNL1        0.1946
     36 O          58.8451   90.7578    3.8347 O.2     1  UNL1       -0.4492
     37 C          59.5761   91.3275    2.9081 C.ar    1  UNL1        0.1452
     38 C          59.1474   92.1864    1.9021 C.ar    1  UNL1        0.0375
     39 C          60.1085   92.6825    1.0038 C.ar    1  UNL1        0.0031
     40 C          61.4764   92.3149    1.1238 C.ar    1  UNL1        0.0002
     41 C          61.8704   91.4393    2.1639 C.ar    1  UNL1        0.0028
     42 C          60.8898   90.9671    3.0366 C.ar    1  UNL1        0.0337
     43 C          62.4827   92.8440    0.1685 C.ar    1  UNL1        0.0000
     44 C          62.0894   93.3086   -1.1011 C.ar    1  UNL1        0.0000
     45 C          63.0390   93.8064   -1.9987 C.ar    1  UNL1        0.0000
     46 C          64.3882   93.8474   -1.6404 C.ar    1  UNL1        0.0000
     47 C          64.7911   93.3902   -0.3838 C.ar    1  UNL1        0.0000
     48 C          63.8459   92.8905    0.5174 C.ar    1  UNL1        0.0000
@<TRIPOS>BOND
     1    33    34    1
     2    34    35   ar
     3    35    29    1
     4    29    30    2
     5    29    31   am
     6    31     1    1
     7     1     2   ar
     8     2     3   ar
     9     3     4   ar
    10     4     7    1
    11     7     8    1
    12     8     9    1
    13     9    10    1
    14    10    17    1
    15    17    18    1
    16    18    19    1
    17    19    20   ar
    18    20    21   ar
    19    21    22   ar
    20    22    23   ar
    21    23    25    1
    22    25    26    2
    23    25    27    1
    24    23    24   ar
    25    10    11    1
    26    11    13    1
    27    13    14    2
    28    13    15    1
    29    11    12    1
    30     4     5   ar
    31     5     6   ar
    32    35    36   ar
    33    36    37   ar
    34    37    38   ar
    35    38    39   ar
    36    39    40   ar
    37    40    43    1
    38    43    44   ar
    39    44    45   ar
    40    45    46   ar
    41    46    47   ar
    42    47    48   ar
    43    40    41   ar
    44    41    42   ar
    45    42    34   ar
    46     6     1   ar
    47    42    37   ar
    48    12     7    1
    49    48    43   ar
    50    24    19   ar
    51    31    32    1
    52    27    28    1
    53    15    16    1
