@<TRIPOS>MOLECULE
*****
 37 40 0 0 0
SMALL
GASTEIGER

@<TRIPOS>ATOM
      1 N         -10.8028   -9.5248   30.7832 N.am    1  UNL1       -0.2685
      2 C         -11.3577   -9.8187   32.0945 C.2     1  UNL1        0.2672
      3 O         -11.7121   -8.8742   32.8505 O.2     1  UNL1       -0.2682
      4 C         -11.5028  -11.1896   32.6071 C.ar    1  UNL1        0.1347
      5 C         -12.5859  -11.9786   32.1960 C.ar    1  UNL1        0.0238
      6 C         -12.7526  -13.2563   32.7424 C.ar    1  UNL1        0.0031
      7 C         -13.8580  -14.0481   32.3959 C.ar    1  UNL1        0.0001
      8 C         -14.0168  -15.3154   32.9644 C.ar    1  UNL1        0.0000
      9 C         -13.0757  -15.8000   33.8779 C.ar    1  UNL1        0.0000
     10 C         -11.9706  -15.0196   34.2309 C.ar    1  UNL1        0.0015
     11 C         -11.8043  -13.7451   33.6693 C.ar    1  UNL1        0.0192
     12 C         -10.7156  -12.9357   34.0186 C.ar    1  UNL1        0.0989
     13 N         -10.5970  -11.6891   33.4897 N.ar    1  UNL1       -0.2393
     14 C          -9.9437  -10.4689   30.0215 C.3     1  UNL1        0.1007
     15 C         -10.6607  -11.8172   29.8433 C.3     1  UNL1        0.0265
     16 C          -6.1728   -9.8511   30.4237 C.ar    1  UNL1        0.0893
     17 C          -5.9027  -10.5357   31.6247 C.ar    1  UNL1        0.1450
     18 F          -4.6532  -10.5662   32.1525 F       1  UNL1       -0.2040
     19 C          -6.9177  -11.2299   32.2809 C.ar    1  UNL1        0.0296
     20 C          -8.2131  -11.2415   31.7678 C.ar    1  UNL1        0.0019
     21 C          -8.5200  -10.5537   30.5757 C.ar    1  UNL1        0.0235
     22 C          -7.4801   -9.8861   29.8954 C.ar    1  UNL1        0.1425
     23 F          -7.7568   -9.2226   28.7433 F       1  UNL1       -0.2043
     24 C          -4.4241   -9.6298   28.5026 C.3     1  UNL1        0.0774
     25 C          -5.1110   -9.0881   29.7191 C.2     1  UNL1        0.1778
     26 O          -4.7774   -7.9478   30.1405 O.2     1  UNL1       -0.2912
     27 C         -11.0409   -8.1910   30.1995 C.3     1  UNL1        0.1207
     28 C          -9.8779   -7.2687   30.4689 C.ar    1  UNL1       -0.0021
     29 C          -9.6645   -6.1440   29.6567 C.ar    1  UNL1       -0.0026
     30 C          -8.5687   -5.3101   29.8822 C.ar    1  UNL1       -0.0001
     31 C          -7.6710   -5.5932   30.9135 C.ar    1  UNL1        0.0064
     32 C          -7.8595   -6.7194   31.7332 C.ar    1  UNL1        0.0752
     33 C          -8.9775   -7.5444   31.5118 C.ar    1  UNL1        0.0038
     34 C          -6.8957   -7.0131   32.8209 C.2     1  UNL1        0.3380
     35 O          -5.7174   -6.5735   32.7478 O.2     1  UNL1       -0.2451
     36 O          -7.2512   -7.7852   33.9263 O.3     1  UNL1       -0.4771
     37 H          -8.1435   -8.2571   33.9967 H       1  UNL1        0.2954
@<TRIPOS>BOND
     1    24    25    1
     2    25    26    2
     3    25    16    1
     4    16    17   ar
     5    17    18    1
     6    17    19   ar
     7    19    20   ar
     8    20    21   ar
     9    21    14    1
    10    14    15    1
    11    14     1    1
    12     1    27    1
    13    27    28    1
    14    28    29   ar
    15    29    30   ar
    16    30    31   ar
    17    31    32   ar
    18    32    34    1
    19    34    35    2
    20    34    36    1
    21    32    33   ar
    22     1     2   am
    23     2     3    2
    24     2     4    1
    25     4     5   ar
    26     5     6   ar
    27     6     7   ar
    28     7     8   ar
    29     8     9   ar
    30     9    10   ar
    31    10    11   ar
    32    11    12   ar
    33    12    13   ar
    34    21    22   ar
    35    22    23    1
    36    22    16   ar
    37    33    28   ar
    38    13     4   ar
    39    11     6   ar
    40    36    37    1
@<TRIPOS>MOLECULE
*****
 37 40 0 0 0
SMALL
GASTEIGER

@<TRIPOS>ATOM
      1 N          -9.9481  -10.5454   30.4532 N.am    1  UNL1       -0.2685
      2 C         -10.1317  -11.9871   30.4912 C.2     1  UNL1        0.2672
      3 O          -9.8599  -12.6800   29.4738 O.2     1  UNL1       -0.2682
      4 C         -10.6573  -12.6906   31.6711 C.ar    1  UNL1        0.1347
      5 C         -11.7007  -13.6153   31.5264 C.ar    1  UNL1        0.0238
      6 C         -12.2396  -14.2277   32.6636 C.ar    1  UNL1        0.0031
      7 C         -13.3229  -15.1134   32.5584 C.ar    1  UNL1        0.0001
      8 C         -13.8589  -15.7030   33.7071 C.ar    1  UNL1        0.0000
      9 C         -13.3180  -15.4151   34.9639 C.ar    1  UNL1        0.0000
     10 C         -12.2390  -14.5337   35.0808 C.ar    1  UNL1        0.0015
     11 C         -11.6966  -13.9338   33.9348 C.ar    1  UNL1        0.0192
     12 C         -10.6267  -13.0339   34.0252 C.ar    1  UNL1        0.0989
     13 N         -10.1435  -12.4361   32.9041 N.ar    1  UNL1       -0.2393
     14 C         -10.6451   -9.6016   31.3658 C.3     1  UNL1        0.1007
     15 C         -12.1305   -9.9785   31.4897 C.3     1  UNL1        0.0265
     16 C          -8.7876   -6.2578   31.0024 C.ar    1  UNL1        0.0893
     17 C          -9.7304   -5.4887   30.2926 C.ar    1  UNL1        0.1450
     18 F          -9.4687   -4.2058   29.9373 F       1  UNL1       -0.2040
     19 C         -10.9750   -6.0263   29.9695 C.ar    1  UNL1        0.0296
     20 C         -11.2957   -7.3340   30.3285 C.ar    1  UNL1        0.0019
     21 C         -10.3687   -8.1355   31.0261 C.ar    1  UNL1        0.0235
     22 C          -9.1260   -7.5726   31.3848 C.ar    1  UNL1        0.1425
     23 F          -8.2232   -8.3287   32.0611 F       1  UNL1       -0.2043
     24 C          -6.4045   -5.4765   30.2898 C.3     1  UNL1        0.0774
     25 C          -7.4480   -5.7118   31.3389 C.2     1  UNL1        0.1778
     26 O          -7.1735   -5.4246   32.5354 O.2     1  UNL1       -0.2912
     27 C          -9.0787   -9.9725   29.4080 C.3     1  UNL1        0.1207
     28 C          -7.6235  -10.2104   29.7265 C.ar    1  UNL1       -0.0021
     29 C          -7.2576  -10.8729   30.9086 C.ar    1  UNL1       -0.0026
     30 C          -5.9111  -11.0618   31.2223 C.ar    1  UNL1       -0.0001
     31 C          -4.9168  -10.5856   30.3655 C.ar    1  UNL1        0.0064
     32 C          -5.2599   -9.9108   29.1811 C.ar    1  UNL1        0.0752
     33 C          -6.6197   -9.7415   28.8623 C.ar    1  UNL1        0.0038
     34 C          -4.1948   -9.4041   28.2827 C.2     1  UNL1        0.3380
     35 O          -3.0176   -9.2832   28.7145 O.2     1  UNL1       -0.2451
     36 O          -4.4620   -9.0352   26.9647 O.3     1  UNL1       -0.4771
     37 H          -5.4003   -9.0050   26.5872 H       1  UNL1        0.2954
@<TRIPOS>BOND
     1    24    25    1
     2    25    26    2
     3    25    16    1
     4    16    17   ar
     5    17    18    1
     6    17    19   ar
     7    19    20   ar
     8    20    21   ar
     9    21    14    1
    10    14    15    1
    11    14     1    1
    12     1    27    1
    13    27    28    1
    14    28    29   ar
    15    29    30   ar
    16    30    31   ar
    17    31    32   ar
    18    32    34    1
    19    34    35    2
    20    34    36    1
    21    32    33   ar
    22     1     2   am
    23     2     3    2
    24     2     4    1
    25     4     5   ar
    26     5     6   ar
    27     6     7   ar
    28     7     8   ar
    29     8     9   ar
    30     9    10   ar
    31    10    11   ar
    32    11    12   ar
    33    12    13   ar
    34    21    22   ar
    35    22    23    1
    36    22    16   ar
    37    33    28   ar
    38    13     4   ar
    39    11     6   ar
    40    36    37    1
@<TRIPOS>MOLECULE
*****
 37 40 0 0 0
SMALL
GASTEIGER

@<TRIPOS>ATOM
      1 N          -8.2759  -10.8550   31.1308 N.am    1  UNL1       -0.2685
      2 C          -9.1620  -11.8596   30.5655 C.2     1  UNL1        0.2672
      3 O          -8.9489  -12.3001   29.4038 O.2     1  UNL1       -0.2682
      4 C         -10.3364  -12.3780   31.2834 C.ar    1  UNL1        0.1347
      5 C         -10.1827  -12.9513   32.5532 C.ar    1  UNL1        0.0238
      6 C         -11.2955  -13.5035   33.1978 C.ar    1  UNL1        0.0031
      7 C         -11.1644  -14.1364   34.4432 C.ar    1  UNL1        0.0001
      8 C         -12.2844  -14.6970   35.0646 C.ar    1  UNL1        0.0000
      9 C         -13.5384  -14.6282   34.4502 C.ar    1  UNL1        0.0000
     10 C         -13.6807  -14.0005   33.2090 C.ar    1  UNL1        0.0015
     11 C         -12.5626  -13.4385   32.5753 C.ar    1  UNL1        0.0192
     12 C         -12.6741  -12.8190   31.3238 C.ar    1  UNL1        0.0989
     13 N         -11.5691  -12.3157   30.7127 N.ar    1  UNL1       -0.2393
     14 C          -8.6639   -9.9440   32.2394 C.3     1  UNL1        0.1007
     15 C          -8.6694  -10.7032   33.5763 C.3     1  UNL1        0.0265
     16 C         -10.9527   -7.0348   31.2090 C.ar    1  UNL1        0.0893
     17 C         -12.2158   -7.6581   31.2084 C.ar    1  UNL1        0.1450
     18 F         -13.3398   -6.9717   30.8827 F       1  UNL1       -0.2040
     19 C         -12.3390   -8.9960   31.5793 C.ar    1  UNL1        0.0296
     20 C         -11.2150   -9.7371   31.9384 C.ar    1  UNL1        0.0019
     21 C          -9.9342   -9.1473   31.9348 C.ar    1  UNL1        0.0235
     22 C          -9.8211   -7.7824   31.5967 C.ar    1  UNL1        0.1425
     23 F          -8.5959   -7.1969   31.5928 F       1  UNL1       -0.2043
     24 C          -9.8831   -5.2145   29.6794 C.3     1  UNL1        0.0774
     25 C         -10.7959   -5.6164   30.7976 C.2     1  UNL1        0.1778
     26 O         -11.4518   -4.7180   31.3910 O.2     1  UNL1       -0.2912
     27 C          -6.9408  -10.6739   30.5300 C.3     1  UNL1        0.1207
     28 C          -6.4466   -9.2625   30.7289 C.ar    1  UNL1       -0.0021
     29 C          -6.7036   -8.2802   29.7599 C.ar    1  UNL1       -0.0026
     30 C          -6.2163   -6.9832   29.9253 C.ar    1  UNL1       -0.0001
     31 C          -5.4619   -6.6548   31.0534 C.ar    1  UNL1        0.0064
     32 C          -5.1840   -7.6249   32.0320 C.ar    1  UNL1        0.0752
     33 C          -5.6953   -8.9253   31.8674 C.ar    1  UNL1        0.0038
     34 C          -4.3761   -7.2656   33.2221 C.2     1  UNL1        0.3380
     35 O          -3.4931   -6.3716   33.1319 O.2     1  UNL1       -0.2451
     36 O          -4.5523   -7.9065   34.4480 O.3     1  UNL1       -0.4771
     37 H          -5.1655   -8.7031   34.5628 H       1  UNL1        0.2954
@<TRIPOS>BOND
     1    24    25    1
     2    25    26    2
     3    25    16    1
     4    16    17   ar
     5    17    18    1
     6    17    19   ar
     7    19    20   ar
     8    20    21   ar
     9    21    14    1
    10    14    15    1
    11    14     1    1
    12     1    27    1
    13    27    28    1
    14    28    29   ar
    15    29    30   ar
    16    30    31   ar
    17    31    32   ar
    18    32    34    1
    19    34    35    2
    20    34    36    1
    21    32    33   ar
    22     1     2   am
    23     2     3    2
    24     2     4    1
    25     4     5   ar
    26     5     6   ar
    27     6     7   ar
    28     7     8   ar
    29     8     9   ar
    30     9    10   ar
    31    10    11   ar
    32    11    12   ar
    33    12    13   ar
    34    21    22   ar
    35    22    23    1
    36    22    16   ar
    37    33    28   ar
    38    13     4   ar
    39    11     6   ar
    40    36    37    1
@<TRIPOS>MOLECULE
*****
 37 40 0 0 0
SMALL
GASTEIGER

@<TRIPOS>ATOM
      1 N         -10.5208  -10.0634   31.1596 N.am    1  UNL1       -0.2685
      2 C         -10.2150   -8.7353   31.6658 C.2     1  UNL1        0.2672
      3 O         -11.1096   -8.0666   32.2504 O.2     1  UNL1       -0.2682
      4 C          -8.8956   -8.1063   31.5016 C.ar    1  UNL1        0.1347
      5 C          -7.8880   -8.3384   32.4479 C.ar    1  UNL1        0.0238
      6 C          -6.6591   -7.6809   32.3194 C.ar    1  UNL1        0.0031
      7 C          -5.6509   -7.8464   33.2812 C.ar    1  UNL1        0.0001
      8 C          -4.4358   -7.1685   33.1450 C.ar    1  UNL1        0.0000
      9 C          -4.2189   -6.3255   32.0509 C.ar    1  UNL1        0.0000
     10 C          -5.2165   -6.1527   31.0867 C.ar    1  UNL1        0.0015
     11 C          -6.4407   -6.8250   31.2162 C.ar    1  UNL1        0.0192
     12 C          -7.4635   -6.6564   30.2739 C.ar    1  UNL1        0.0989
     13 N          -8.6548   -7.2890   30.4419 N.ar    1  UNL1       -0.2393
     14 C          -9.7443  -10.7343   30.0843 C.3     1  UNL1        0.1007
     15 C         -10.4436  -12.0338   29.6529 C.3     1  UNL1        0.0265
     16 C          -5.9334  -10.2743   29.9144 C.ar    1  UNL1        0.0893
     17 C          -5.5166  -10.9539   31.0757 C.ar    1  UNL1        0.1450
     18 F          -4.2051  -11.0312   31.4142 F       1  UNL1       -0.2040
     19 C          -6.4507  -11.5949   31.8877 C.ar    1  UNL1        0.0296
     20 C          -7.8072  -11.5576   31.5713 C.ar    1  UNL1        0.0019
     21 C          -8.2589  -10.8730   30.4242 C.ar    1  UNL1        0.0235
     22 C          -7.3048  -10.2600   29.5852 C.ar    1  UNL1        0.1425
     23 F          -7.7218   -9.6006   28.4737 F       1  UNL1       -0.2043
     24 C          -4.9167   -9.7839   27.5643 C.3     1  UNL1        0.0774
     25 C          -4.9574   -9.5673   29.0463 C.2     1  UNL1        0.1778
     26 O          -4.1430   -8.7521   29.5577 O.2     1  UNL1       -0.2912
     27 C         -11.7086  -10.7624   31.6858 C.3     1  UNL1        0.1207
     28 C         -11.3250  -11.7316   32.7764 C.ar    1  UNL1       -0.0021
     29 C         -10.1935  -11.4902   33.5710 C.ar    1  UNL1       -0.0026
     30 C          -9.8168  -12.4037   34.5562 C.ar    1  UNL1       -0.0001
     31 C         -10.5588  -13.5698   34.7535 C.ar    1  UNL1        0.0064
     32 C         -11.6900  -13.8370   33.9630 C.ar    1  UNL1        0.0752
     33 C         -12.0746  -12.9016   32.9849 C.ar    1  UNL1        0.0038
     34 C         -12.4660  -15.0820   34.1777 C.2     1  UNL1        0.3380
     35 O         -13.0861  -15.2534   35.2608 O.2     1  UNL1       -0.2451
     36 O         -12.5166  -16.0893   33.2147 O.3     1  UNL1       -0.4771
     37 H         -11.9579  -16.0648   32.3713 H       1  UNL1        0.2954
@<TRIPOS>BOND
     1    24    25    1
     2    25    26    2
     3    25    16    1
     4    16    17   ar
     5    17    18    1
     6    17    19   ar
     7    19    20   ar
     8    20    21   ar
     9    21    14    1
    10    14    15    1
    11    14     1    1
    12     1    27    1
    13    27    28    1
    14    28    29   ar
    15    29    30   ar
    16    30    31   ar
    17    31    32   ar
    18    32    34    1
    19    34    35    2
    20    34    36    1
    21    32    33   ar
    22     1     2   am
    23     2     3    2
    24     2     4    1
    25     4     5   ar
    26     5     6   ar
    27     6     7   ar
    28     7     8   ar
    29     8     9   ar
    30     9    10   ar
    31    10    11   ar
    32    11    12   ar
    33    12    13   ar
    34    21    22   ar
    35    22    23    1
    36    22    16   ar
    37    33    28   ar
    38    13     4   ar
    39    11     6   ar
    40    36    37    1
@<TRIPOS>MOLECULE
*****
 37 40 0 0 0
SMALL
GASTEIGER

@<TRIPOS>ATOM
      1 N          -9.7593  -10.2855   30.2868 N.am    1  UNL1       -0.2685
      2 C         -10.0691  -11.7056   30.3172 C.2     1  UNL1        0.2672
      3 O         -10.0163  -12.3810   29.2540 O.2     1  UNL1       -0.2682
      4 C         -10.4782  -12.4039   31.5454 C.ar    1  UNL1        0.1347
      5 C         -11.5048  -13.3571   31.4987 C.ar    1  UNL1        0.0238
      6 C         -11.9330  -13.9653   32.6842 C.ar    1  UNL1        0.0031
      7 C         -12.9972  -14.8798   32.6797 C.ar    1  UNL1        0.0001
      8 C         -13.4222  -15.4650   33.8762 C.ar    1  UNL1        0.0000
      9 C         -12.7889  -15.1439   35.0806 C.ar    1  UNL1        0.0000
     10 C         -11.7279  -14.2335   35.0972 C.ar    1  UNL1        0.0015
     11 C         -11.2966  -13.6378   33.9028 C.ar    1  UNL1        0.0192
     12 C         -10.2473  -12.7096   33.8936 C.ar    1  UNL1        0.0989
     13 N          -9.8729  -12.1172   32.7288 N.ar    1  UNL1       -0.2393
     14 C         -10.2229   -9.3188   31.3164 C.3     1  UNL1        0.1007
     15 C         -11.7304   -9.0586   31.1633 C.3     1  UNL1        0.0265
     16 C          -7.2473   -7.0238   32.1178 C.ar    1  UNL1        0.0893
     17 C          -7.6099   -5.8457   31.4362 C.ar    1  UNL1        0.1450
     18 F          -6.8102   -4.7498   31.4493 F       1  UNL1       -0.2040
     19 C          -8.8253   -5.7726   30.7578 C.ar    1  UNL1        0.0296
     20 C          -9.6875   -6.8669   30.7308 C.ar    1  UNL1        0.0019
     21 C          -9.3474   -8.0661   31.3901 C.ar    1  UNL1        0.0235
     22 C          -8.1343   -8.1205   32.1080 C.ar    1  UNL1        0.1425
     23 F          -7.7932   -9.2658   32.7529 F       1  UNL1       -0.2043
     24 C          -4.6561   -6.7421   32.1778 C.3     1  UNL1        0.0774
     25 C          -5.9481   -7.1304   32.8297 C.2     1  UNL1        0.1778
     26 O          -5.9203   -7.5476   34.0190 O.2     1  UNL1       -0.2912
     27 C          -9.0041   -9.7529   29.1369 C.3     1  UNL1        0.1207
     28 C          -7.5282   -9.6906   29.4429 C.ar    1  UNL1       -0.0021
     29 C          -6.6858   -8.8533   28.6951 C.ar    1  UNL1       -0.0026
     30 C          -5.3148   -8.8215   28.9531 C.ar    1  UNL1       -0.0001
     31 C          -4.7693   -9.6294   29.9527 C.ar    1  UNL1        0.0064
     32 C          -5.5925  -10.4828   30.7076 C.ar    1  UNL1        0.0752
     33 C          -6.9765  -10.4946   30.4545 C.ar    1  UNL1        0.0038
     34 C          -5.0004  -11.3407   31.7619 C.2     1  UNL1        0.3380
     35 O          -3.8519  -11.8313   31.5971 O.2     1  UNL1       -0.2451
     36 O          -5.6904  -11.6403   32.9361 O.3     1  UNL1       -0.4771
     37 H          -6.6538  -11.3696   33.0857 H       1  UNL1        0.2954
@<TRIPOS>BOND
     1    24    25    1
     2    25    26    2
     3    25    16    1
     4    16    17   ar
     5    17    18    1
     6    17    19   ar
     7    19    20   ar
     8    20    21   ar
     9    21    14    1
    10    14    15    1
    11    14     1    1
    12     1    27    1
    13    27    28    1
    14    28    29   ar
    15    29    30   ar
    16    30    31   ar
    17    31    32   ar
    18    32    34    1
    19    34    35    2
    20    34    36    1
    21    32    33   ar
    22     1     2   am
    23     2     3    2
    24     2     4    1
    25     4     5   ar
    26     5     6   ar
    27     6     7   ar
    28     7     8   ar
    29     8     9   ar
    30     9    10   ar
    31    10    11   ar
    32    11    12   ar
    33    12    13   ar
    34    21    22   ar
    35    22    23    1
    36    22    16   ar
    37    33    28   ar
    38    13     4   ar
    39    11     6   ar
    40    36    37    1
@<TRIPOS>MOLECULE
*****
 37 40 0 0 0
SMALL
GASTEIGER

@<TRIPOS>ATOM
      1 N          -9.4830  -11.5356   31.0229 N.am    1  UNL1       -0.2685
      2 C          -9.7601  -10.7295   29.8452 C.2     1  UNL1        0.2672
      3 O         -10.0426  -11.2925   28.7532 O.2     1  UNL1       -0.2682
      4 C          -9.6977   -9.2600   29.8551 C.ar    1  UNL1        0.1347
      5 C         -10.6760   -8.5234   30.5368 C.ar    1  UNL1        0.0238
      6 C         -10.6465   -7.1251   30.4825 C.ar    1  UNL1        0.0031
      7 C         -11.6442   -6.3600   31.1052 C.ar    1  UNL1        0.0001
      8 C         -11.6076   -4.9646   31.0263 C.ar    1  UNL1        0.0000
      9 C         -10.5775   -4.3259   30.3294 C.ar    1  UNL1        0.0000
     10 C          -9.5783   -5.0782   29.7045 C.ar    1  UNL1        0.0015
     11 C          -9.6082   -6.4788   29.7743 C.ar    1  UNL1        0.0192
     12 C          -8.6293   -7.2570   29.1429 C.ar    1  UNL1        0.0989
     13 N          -8.7014   -8.6134   29.1928 N.ar    1  UNL1       -0.2393
     14 C          -8.7072  -11.0462   32.1925 C.3     1  UNL1        0.1007
     15 C          -9.6579  -10.5249   33.2826 C.3     1  UNL1        0.0265
     16 C          -5.6787   -9.5969   30.3241 C.ar    1  UNL1        0.0893
     17 C          -5.5722   -8.3203   30.9097 C.ar    1  UNL1        0.1450
     18 F          -4.6094   -7.4461   30.5233 F       1  UNL1       -0.2040
     19 C          -6.4416   -7.9414   31.9312 C.ar    1  UNL1        0.0296
     20 C          -7.4357   -8.8120   32.3735 C.ar    1  UNL1        0.0019
     21 C          -7.5788  -10.0912   31.7978 C.ar    1  UNL1        0.0235
     22 C          -6.6709  -10.4836   30.7919 C.ar    1  UNL1        0.1425
     23 F          -6.7910  -11.7140   30.2299 F       1  UNL1       -0.2043
     24 C          -5.1068   -9.7420   27.7846 C.3     1  UNL1        0.0774
     25 C          -4.7761  -10.0134   29.2205 C.2     1  UNL1        0.1778
     26 O          -3.6942  -10.6027   29.4876 O.2     1  UNL1       -0.2912
     27 C          -9.9310  -12.9411   31.0368 C.3     1  UNL1        0.1207
     28 C         -11.3310  -13.0557   31.5871 C.ar    1  UNL1       -0.0021
     29 C         -12.2958  -12.0860   31.2727 C.ar    1  UNL1       -0.0026
     30 C         -13.5809  -12.1710   31.8099 C.ar    1  UNL1       -0.0001
     31 C         -13.9142  -13.2180   32.6714 C.ar    1  UNL1        0.0064
     32 C         -12.9612  -14.1949   33.0078 C.ar    1  UNL1        0.0752
     33 C         -11.6736  -14.1131   32.4467 C.ar    1  UNL1        0.0038
     34 C         -13.3254  -15.2982   33.9289 C.2     1  UNL1        0.3380
     35 O         -14.0742  -16.2278   33.5260 O.2     1  UNL1       -0.2451
     36 O         -12.8751  -15.3302   35.2482 O.3     1  UNL1       -0.4771
     37 H         -12.3619  -14.5653   35.6671 H       1  UNL1        0.2954
@<TRIPOS>BOND
     1    24    25    1
     2    25    26    2
     3    25    16    1
     4    16    17   ar
     5    17    18    1
     6    17    19   ar
     7    19    20   ar
     8    20    21   ar
     9    21    14    1
    10    14    15    1
    11    14     1    1
    12     1    27    1
    13    27    28    1
    14    28    29   ar
    15    29    30   ar
    16    30    31   ar
    17    31    32   ar
    18    32    34    1
    19    34    35    2
    20    34    36    1
    21    32    33   ar
    22     1     2   am
    23     2     3    2
    24     2     4    1
    25     4     5   ar
    26     5     6   ar
    27     6     7   ar
    28     7     8   ar
    29     8     9   ar
    30     9    10   ar
    31    10    11   ar
    32    11    12   ar
    33    12    13   ar
    34    21    22   ar
    35    22    23    1
    36    22    16   ar
    37    33    28   ar
    38    13     4   ar
    39    11     6   ar
    40    36    37    1
@<TRIPOS>MOLECULE
*****
 37 40 0 0 0
SMALL
GASTEIGER

@<TRIPOS>ATOM
      1 N         -11.1659  -10.9048   31.2246 N.am    1  UNL1       -0.2685
      2 C         -11.2182   -9.6426   31.9443 C.2     1  UNL1        0.2672
      3 O         -12.2374   -9.3529   32.6273 O.2     1  UNL1       -0.2682
      4 C         -10.1322   -8.6521   31.8918 C.ar    1  UNL1        0.1347
      5 C         -10.2308   -7.5516   31.0294 C.ar    1  UNL1        0.0238
      6 C          -9.1622   -6.6526   30.9366 C.ar    1  UNL1        0.0031
      7 C          -9.2056   -5.5739   30.0402 C.ar    1  UNL1        0.0001
      8 C          -8.1217   -4.6955   29.9493 C.ar    1  UNL1        0.0000
      9 C          -6.9921   -4.8861   30.7509 C.ar    1  UNL1        0.0000
     10 C          -6.9376   -5.9577   31.6472 C.ar    1  UNL1        0.0015
     11 C          -8.0181   -6.8471   31.7431 C.ar    1  UNL1        0.0192
     12 C          -7.9824   -7.9388   32.6203 C.ar    1  UNL1        0.0989
     13 N          -9.0261   -8.8084   32.6673 N.ar    1  UNL1       -0.2393
     14 C         -10.2800  -11.1513   30.0568 C.3     1  UNL1        0.1007
     15 C         -10.6618  -12.4714   29.3672 C.3     1  UNL1        0.0265
     16 C          -6.6581   -9.8728   29.9543 C.ar    1  UNL1        0.0893
     17 C          -6.0935  -10.5404   31.0587 C.ar    1  UNL1        0.1450
     18 F          -4.7924  -10.3622   31.3995 F       1  UNL1       -0.2040
     19 C          -6.8601  -11.4312   31.8079 C.ar    1  UNL1        0.0296
     20 C          -8.1963  -11.6596   31.4854 C.ar    1  UNL1        0.0019
     21 C          -8.7960  -10.9959   30.3954 C.ar    1  UNL1        0.0235
     22 C          -8.0041  -10.1257   29.6171 C.ar    1  UNL1        0.1425
     23 F          -8.5642   -9.4819   28.5607 F       1  UNL1       -0.2043
     24 C          -4.7491   -9.3461   28.2586 C.3     1  UNL1        0.0774
     25 C          -5.8654   -8.9040   29.1550 C.2     1  UNL1        0.1778
     26 O          -6.1368   -7.6744   29.2159 O.2     1  UNL1       -0.2912
     27 C         -12.0910  -11.9827   31.6232 C.3     1  UNL1        0.1207
     28 C         -11.5733  -12.7172   32.8350 C.ar    1  UNL1       -0.0021
     29 C         -12.2646  -13.8317   33.3350 C.ar    1  UNL1       -0.0026
     30 C         -11.8070  -14.4903   34.4769 C.ar    1  UNL1       -0.0001
     31 C         -10.6615  -14.0399   35.1359 C.ar    1  UNL1        0.0064
     32 C          -9.9587  -12.9199   34.6587 C.ar    1  UNL1        0.0752
     33 C         -10.4154  -12.2733   33.4956 C.ar    1  UNL1        0.0038
     34 C          -8.7473  -12.4473   35.3710 C.2     1  UNL1        0.3380
     35 O          -8.4517  -12.9360   36.4939 O.2     1  UNL1       -0.2451
     36 O          -7.9254  -11.4542   34.8395 O.3     1  UNL1       -0.4771
     37 H          -8.1612  -10.9451   33.9975 H       1  UNL1        0.2954
@<TRIPOS>BOND
     1    24    25    1
     2    25    26    2
     3    25    16    1
     4    16    17   ar
     5    17    18    1
     6    17    19   ar
     7    19    20   ar
     8    20    21   ar
     9    21    14    1
    10    14    15    1
    11    14     1    1
    12     1    27    1
    13    27    28    1
    14    28    29   ar
    15    29    30   ar
    16    30    31   ar
    17    31    32   ar
    18    32    34    1
    19    34    35    2
    20    34    36    1
    21    32    33   ar
    22     1     2   am
    23     2     3    2
    24     2     4    1
    25     4     5   ar
    26     5     6   ar
    27     6     7   ar
    28     7     8   ar
    29     8     9   ar
    30     9    10   ar
    31    10    11   ar
    32    11    12   ar
    33    12    13   ar
    34    21    22   ar
    35    22    23    1
    36    22    16   ar
    37    33    28   ar
    38    13     4   ar
    39    11     6   ar
    40    36    37    1
@<TRIPOS>MOLECULE
*****
 37 40 0 0 0
SMALL
GASTEIGER

@<TRIPOS>ATOM
      1 N         -11.1889  -10.8396   31.8371 N.am    1  UNL1       -0.2685
      2 C         -10.3368  -10.3755   32.9198 C.2     1  UNL1        0.2672
      3 O         -10.8282  -10.1817   34.0644 O.2     1  UNL1       -0.2682
      4 C          -8.9062  -10.0864   32.7373 C.ar    1  UNL1        0.1347
      5 C          -8.4158   -8.7978   32.9891 C.ar    1  UNL1        0.0238
      6 C          -7.0666   -8.5157   32.7465 C.ar    1  UNL1        0.0031
      7 C          -6.5577   -7.2214   32.9327 C.ar    1  UNL1        0.0001
      8 C          -5.2108   -6.9544   32.6693 C.ar    1  UNL1        0.0000
      9 C          -4.3656   -7.9742   32.2217 C.ar    1  UNL1        0.0000
     10 C          -4.8619   -9.2675   32.0320 C.ar    1  UNL1        0.0015
     11 C          -6.2126   -9.5448   32.2895 C.ar    1  UNL1        0.0192
     12 C          -6.7396  -10.8275   32.0913 C.ar    1  UNL1        0.0989
     13 N          -8.0604  -11.0622   32.3113 N.ar    1  UNL1       -0.2393
     14 C         -10.8643  -10.6592   30.3978 C.3     1  UNL1        0.1007
     15 C         -10.1713  -11.9157   29.8459 C.3     1  UNL1        0.0265
     16 C         -10.1455   -6.8874   30.2539 C.ar    1  UNL1        0.0893
     17 C          -8.8257   -6.8718   29.7622 C.ar    1  UNL1        0.1450
     18 F          -8.1623   -5.7054   29.5622 F       1  UNL1       -0.2040
     19 C          -8.1834   -8.0651   29.4365 C.ar    1  UNL1        0.0296
     20 C          -8.8307   -9.2870   29.6087 C.ar    1  UNL1        0.0019
     21 C         -10.1465   -9.3383   30.1131 C.ar    1  UNL1        0.0235
     22 C         -10.8052   -8.1252   30.4035 C.ar    1  UNL1        0.1425
     23 F         -12.0744   -8.1557   30.8855 F       1  UNL1       -0.2043
     24 C         -10.8268   -4.4249   29.7353 C.3     1  UNL1        0.0774
     25 C         -10.8413   -5.6293   30.6265 C.2     1  UNL1        0.1778
     26 O         -11.4737   -5.5644   31.7152 O.2     1  UNL1       -0.2912
     27 C         -12.4834  -11.4612   32.1753 C.3     1  UNL1        0.1207
     28 C         -12.2811  -12.7584   32.9184 C.ar    1  UNL1       -0.0021
     29 C         -11.3161  -12.8486   33.9337 C.ar    1  UNL1       -0.0026
     30 C         -11.1028  -14.0574   34.5973 C.ar    1  UNL1       -0.0001
     31 C         -11.8429  -15.1893   34.2503 C.ar    1  UNL1        0.0064
     32 C         -12.8078  -15.1247   33.2302 C.ar    1  UNL1        0.0752
     33 C         -13.0305  -13.8975   32.5792 C.ar    1  UNL1        0.0038
     34 C         -13.5827  -16.3352   32.8664 C.2     1  UNL1        0.3380
     35 O         -14.7967  -16.4217   33.1916 O.2     1  UNL1       -0.2451
     36 O         -12.9985  -17.4016   32.1836 O.3     1  UNL1       -0.4771
     37 H         -12.0067  -17.4447   31.9874 H       1  UNL1        0.2954
@<TRIPOS>BOND
     1    24    25    1
     2    25    26    2
     3    25    16    1
     4    16    17   ar
     5    17    18    1
     6    17    19   ar
     7    19    20   ar
     8    20    21   ar
     9    21    14    1
    10    14    15    1
    11    14     1    1
    12     1    27    1
    13    27    28    1
    14    28    29   ar
    15    29    30   ar
    16    30    31   ar
    17    31    32   ar
    18    32    34    1
    19    34    35    2
    20    34    36    1
    21    32    33   ar
    22     1     2   am
    23     2     3    2
    24     2     4    1
    25     4     5   ar
    26     5     6   ar
    27     6     7   ar
    28     7     8   ar
    29     8     9   ar
    30     9    10   ar
    31    10    11   ar
    32    11    12   ar
    33    12    13   ar
    34    21    22   ar
    35    22    23    1
    36    22    16   ar
    37    33    28   ar
    38    13     4   ar
    39    11     6   ar
    40    36    37    1
@<TRIPOS>MOLECULE
*****
 37 40 0 0 0
SMALL
GASTEIGER

@<TRIPOS>ATOM
      1 N         -10.0426  -11.6836   31.1253 N.am    1  UNL1       -0.2685
      2 C         -10.8529  -10.9024   30.2049 C.2     1  UNL1        0.2672
      3 O         -11.3910  -11.4640   29.2128 O.2     1  UNL1       -0.2682
      4 C         -11.0574   -9.4540   30.3587 C.ar    1  UNL1        0.1347
      5 C         -10.2092   -8.5543   29.6987 C.ar    1  UNL1        0.0238
      6 C         -10.3694   -7.1795   29.9064 C.ar    1  UNL1        0.0031
      7 C          -9.5001   -6.2555   29.3068 C.ar    1  UNL1        0.0001
      8 C          -9.6653   -4.8868   29.5390 C.ar    1  UNL1        0.0000
      9 C         -10.6965   -4.4327   30.3667 C.ar    1  UNL1        0.0000
     10 C         -11.5682   -5.3443   30.9699 C.ar    1  UNL1        0.0015
     11 C         -11.4086   -6.7198   30.7466 C.ar    1  UNL1        0.0192
     12 C         -12.2572   -7.6556   31.3522 C.ar    1  UNL1        0.0989
     13 N         -12.0584   -8.9851   31.1507 N.ar    1  UNL1       -0.2393
     14 C          -9.0104  -11.0947   32.0181 C.3     1  UNL1        0.1007
     15 C          -9.6607  -10.1241   33.0175 C.3     1  UNL1        0.0265
     16 C          -6.1843   -8.7224   30.9461 C.ar    1  UNL1        0.0893
     17 C          -5.5118   -9.5030   29.9856 C.ar    1  UNL1        0.1450
     18 F          -4.4128   -9.0354   29.3421 F       1  UNL1       -0.2040
     19 C          -5.9885  -10.7693   29.6511 C.ar    1  UNL1        0.0296
     20 C          -7.1237  -11.2851   30.2730 C.ar    1  UNL1        0.0019
     21 C          -7.8112  -10.5356   31.2496 C.ar    1  UNL1        0.0235
     22 C          -7.3469   -9.2390   31.5551 C.ar    1  UNL1        0.1425
     23 F          -7.9999   -8.5012   32.4897 F       1  UNL1       -0.2043
     24 C          -6.1813   -6.1296   30.6735 C.3     1  UNL1        0.0774
     25 C          -5.6820   -7.3792   31.3325 C.2     1  UNL1        0.1778
     26 O          -4.8196   -7.2741   32.2460 O.2     1  UNL1       -0.2912
     27 C         -10.1961  -13.1509   31.1290 C.3     1  UNL1        0.1207
     28 C         -10.9997  -13.6062   32.3218 C.ar    1  UNL1       -0.0021
     29 C         -10.6962  -13.1240   33.6045 C.ar    1  UNL1       -0.0026
     30 C         -11.4152  -13.5715   34.7136 C.ar    1  UNL1       -0.0001
     31 C         -12.4374  -14.5094   34.5561 C.ar    1  UNL1        0.0064
     32 C         -12.7523  -15.0133   33.2822 C.ar    1  UNL1        0.0752
     33 C         -12.0358  -14.5425   32.1667 C.ar    1  UNL1        0.0038
     34 C         -13.8356  -16.0139   33.1288 C.2     1  UNL1        0.3380
     35 O         -13.5807  -17.1389   32.6226 O.2     1  UNL1       -0.2451
     36 O         -15.1471  -15.7389   33.5148 O.3     1  UNL1       -0.4771
     37 H         -15.4421  -14.8228   33.8271 H       1  UNL1        0.2954
@<TRIPOS>BOND
     1    24    25    1
     2    25    26    2
     3    25    16    1
     4    16    17   ar
     5    17    18    1
     6    17    19   ar
     7    19    20   ar
     8    20    21   ar
     9    21    14    1
    10    14    15    1
    11    14     1    1
    12     1    27    1
    13    27    28    1
    14    28    29   ar
    15    29    30   ar
    16    30    31   ar
    17    31    32   ar
    18    32    34    1
    19    34    35    2
    20    34    36    1
    21    32    33   ar
    22     1     2   am
    23     2     3    2
    24     2     4    1
    25     4     5   ar
    26     5     6   ar
    27     6     7   ar
    28     7     8   ar
    29     8     9   ar
    30     9    10   ar
    31    10    11   ar
    32    11    12   ar
    33    12    13   ar
    34    21    22   ar
    35    22    23    1
    36    22    16   ar
    37    33    28   ar
    38    13     4   ar
    39    11     6   ar
    40    36    37    1
