@<TRIPOS>MOLECULE
*****
 47 52 0 0 0
SMALL
GASTEIGER

@<TRIPOS>ATOM
      1 C         -66.3501  -54.0522  -23.7108 C.ar    1  UNL1        0.0702
      2 C         -67.4001  -53.8728  -22.8017 C.ar    1  UNL1        0.0191
      3 C         -68.6471  -54.4501  -23.0441 C.ar    1  UNL1        0.0356
      4 C         -68.8444  -55.2059  -24.2091 C.ar    1  UNL1        0.1318
      5 N         -67.8207  -55.3391  -25.0978 N.ar    1  UNL1       -0.2279
      6 C         -66.5970  -54.7883  -24.8814 C.ar    1  UNL1        0.1149
      7 N         -70.1233  -55.8025  -24.4941 N.pl3   1  UNL1       -0.2932
      8 C         -71.1106  -55.9894  -23.4215 C.3     1  UNL1        0.0923
      9 C         -72.5241  -55.7624  -23.9628 C.3     1  UNL1        0.0252
     10 C         -72.7791  -56.6480  -25.1966 C.3     1  UNL1        0.0472
     11 C         -71.7211  -56.3667  -26.2815 C.3     1  UNL1        0.0252
     12 C         -70.3051  -56.5711  -25.7321 C.3     1  UNL1        0.0923
     13 C         -74.2088  -56.4877  -25.7525 C.3     1  UNL1        0.2054
     14 O         -74.7459  -55.1868  -25.4944 O.3     1  UNL1       -0.4755
     15 C         -74.9353  -54.1542  -26.4288 C.ar    1  UNL1        0.1388
     16 C         -75.1560  -54.5165  -27.7614 C.ar    1  UNL1        0.0369
     17 C         -75.3507  -53.5413  -28.7398 C.ar    1  UNL1        0.0033
     18 C         -75.3248  -52.1881  -28.3983 C.ar    1  UNL1        0.0066
     19 C         -75.1008  -51.7953  -27.0672 C.ar    1  UNL1        0.0785
     20 C         -74.9202  -52.7869  -26.0840 C.ar    1  UNL1        0.0433
     21 C         -75.0750  -50.3611  -26.6876 C.2     1  UNL1        0.3381
     22 O         -74.9513  -50.0368  -25.4765 O.2     1  UNL1       -0.2451
     23 O         -75.1691  -49.3475  -27.6407 O.3     1  UNL1       -0.4771
     24 H         -75.1660  -49.5322  -28.6352 H       1  UNL1        0.2954
     25 C         -64.3259  -52.7223  -24.4570 C.2     1  UNL1        0.2839
     26 O         -64.4809  -52.9969  -25.6773 O.2     1  UNL1       -0.2665
     27 N         -65.0769  -53.4322  -23.4610 N.am    1  UNL1       -0.2766
     28 H         -64.6218  -53.5996  -22.5358 H       1  UNL1        0.1553
     29 C         -60.3862  -48.4217  -23.0056 C.ar    1  UNL1        0.0002
     30 C         -59.6888  -49.5675  -22.5360 C.ar    1  UNL1        0.0031
     31 C         -60.2427  -50.8528  -22.6688 C.ar    1  UNL1        0.0375
     32 C         -61.4901  -50.9668  -23.2727 C.ar    1  UNL1        0.1452
     33 O         -62.1738  -52.0640  -23.4883 O.2     1  UNL1       -0.4492
     34 C         -63.3073  -51.7271  -24.0785 C.ar    1  UNL1        0.1946
     35 C         -63.3504  -50.3411  -24.2761 C.ar    1  UNL1        0.0202
     36 C         -64.4228  -49.5244  -24.9319 C.3     1  UNL1        0.0345
     37 C         -62.1719  -49.8723  -23.7307 C.ar    1  UNL1        0.0337
     38 C         -61.6535  -48.5824  -23.6156 C.ar    1  UNL1        0.0028
     39 C         -60.0317  -44.6958  -22.3301 C.ar    1  UNL1        0.0073
     40 C         -58.6702  -44.5031  -22.6044 C.ar    1  UNL1       -0.0019
     41 C         -57.8721  -45.5805  -22.9931 C.ar    1  UNL1       -0.0002
     42 C         -58.4266  -46.8565  -23.1192 C.ar    1  UNL1       -0.0000
     43 C         -59.7924  -47.0688  -22.8591 C.ar    1  UNL1       -0.0002
     44 C         -60.5891  -45.9777  -22.4644 C.ar    1  UNL1       -0.0019
     45 C         -60.8927  -43.5258  -21.9334 C.3     1  UNL1        0.1687
     46 C         -60.9460  -41.9406  -20.2425 C.3     1  UNL1        0.1746
     47 O         -60.8299  -43.3160  -20.5357 O.3     1  UNL1       -0.3463
@<TRIPOS>BOND
     1    46    47    1
     2    47    45    1
     3    45    39    1
     4    39    40   ar
     5    40    41   ar
     6    41    42   ar
     7    42    43   ar
     8    43    29    1
     9    29    30   ar
    10    30    31   ar
    11    31    32   ar
    12    32    33   ar
    13    33    34   ar
    14    34    25    1
    15    25    26    2
    16    25    27   am
    17    27     1    1
    18     1     2   ar
    19     2     3   ar
    20     3     4   ar
    21     4     7    1
    22     7     8    1
    23     8     9    1
    24     9    10    1
    25    10    13    1
    26    13    14    1
    27    14    15    1
    28    15    16   ar
    29    16    17   ar
    30    17    18   ar
    31    18    19   ar
    32    19    21    1
    33    21    22    2
    34    21    23    1
    35    19    20   ar
    36    10    11    1
    37    11    12    1
    38     4     5   ar
    39     5     6   ar
    40    34    35   ar
    41    35    36    1
    42    35    37   ar
    43    37    38   ar
    44    43    44   ar
    45    44    39   ar
    46    38    29   ar
    47    37    32   ar
    48     6     1   ar
    49    12     7    1
    50    20    15   ar
    51    27    28    1
    52    23    24    1
@<TRIPOS>MOLECULE
*****
 47 52 0 0 0
SMALL
GASTEIGER

@<TRIPOS>ATOM
      1 C         -66.5958  -54.0750  -23.9210 C.ar    1  UNL1        0.0702
      2 C         -67.7467  -53.8087  -23.1688 C.ar    1  UNL1        0.0191
      3 C         -68.9667  -54.3878  -23.5204 C.ar    1  UNL1        0.0356
      4 C         -69.0343  -55.2333  -24.6374 C.ar    1  UNL1        0.1318
      5 N         -67.9110  -55.4515  -25.3763 N.ar    1  UNL1       -0.2279
      6 C         -66.7115  -54.9008  -25.0514 C.ar    1  UNL1        0.1149
      7 N         -70.2810  -55.8345  -25.0335 N.pl3   1  UNL1       -0.2932
      8 C         -71.5135  -55.5488  -24.2855 C.3     1  UNL1        0.0923
      9 C         -72.7060  -55.4834  -25.2426 C.3     1  UNL1        0.0252
     10 C         -72.7853  -56.7631  -26.0957 C.3     1  UNL1        0.0472
     11 C         -71.4681  -56.9698  -26.8688 C.3     1  UNL1        0.0252
     12 C         -70.2717  -57.0113  -25.9119 C.3     1  UNL1        0.0923
     13 C         -73.9997  -56.7641  -27.0464 C.3     1  UNL1        0.2054
     14 O         -73.6391  -56.4040  -28.3835 O.3     1  UNL1       -0.4755
     15 C         -74.0467  -55.2562  -29.0847 C.ar    1  UNL1        0.1388
     16 C         -74.6189  -54.2141  -28.3481 C.ar    1  UNL1        0.0369
     17 C         -75.0458  -53.0471  -28.9823 C.ar    1  UNL1        0.0033
     18 C         -74.9081  -52.9074  -30.3643 C.ar    1  UNL1        0.0066
     19 C         -74.3402  -53.9407  -31.1298 C.ar    1  UNL1        0.0785
     20 C         -73.8986  -55.1087  -30.4793 C.ar    1  UNL1        0.0433
     21 C         -74.1827  -53.8054  -32.5991 C.2     1  UNL1        0.3381
     22 O         -74.5664  -54.7354  -33.3574 O.2     1  UNL1       -0.2451
     23 O         -73.6312  -52.6621  -33.1762 O.3     1  UNL1       -0.4771
     24 H         -73.3984  -51.8378  -32.6381 H       1  UNL1        0.2954
     25 C         -64.4971  -52.7769  -24.4978 C.2     1  UNL1        0.2839
     26 O         -64.5301  -53.0875  -25.7189 O.2     1  UNL1       -0.2665
     27 N         -65.3498  -53.4533  -23.5622 N.am    1  UNL1       -0.2766
     28 H         -64.9916  -53.5947  -22.5913 H       1  UNL1        0.1553
     29 C         -60.6805  -48.4534  -22.8053 C.ar    1  UNL1        0.0002
     30 C         -60.0991  -49.5708  -22.1473 C.ar    1  UNL1        0.0031
     31 C         -60.6686  -50.8511  -22.2619 C.ar    1  UNL1        0.0375
     32 C         -61.8146  -50.9887  -23.0374 C.ar    1  UNL1        0.1452
     33 O         -62.4938  -52.0855  -23.2680 O.2     1  UNL1       -0.4492
     34 C         -63.5146  -51.7751  -24.0479 C.ar    1  UNL1        0.1946
     35 C         -63.4823  -50.4094  -24.3574 C.ar    1  UNL1        0.0202
     36 C         -64.4172  -49.6275  -25.2302 C.3     1  UNL1        0.0345
     37 C         -62.3840  -49.9217  -23.6776 C.ar    1  UNL1        0.0337
     38 C         -61.8468  -48.6376  -23.5862 C.ar    1  UNL1        0.0028
     39 C         -60.2423  -44.7565  -22.0276 C.ar    1  UNL1        0.0073
     40 C         -58.9230  -44.5484  -22.4546 C.ar    1  UNL1       -0.0019
     41 C         -58.1787  -45.6067  -22.9788 C.ar    1  UNL1       -0.0002
     42 C         -58.7462  -46.8784  -23.0890 C.ar    1  UNL1       -0.0000
     43 C         -60.0715  -47.1055  -22.6765 C.ar    1  UNL1       -0.0002
     44 C         -60.8137  -46.0338  -22.1459 C.ar    1  UNL1       -0.0019
     45 C         -61.0479  -43.6061  -21.4842 C.3     1  UNL1        0.1687
     46 C         -60.9873  -41.7389  -20.1114 C.3     1  UNL1        0.1746
     47 O         -60.3306  -42.9369  -20.4649 O.3     1  UNL1       -0.3463
@<TRIPOS>BOND
     1    46    47    1
     2    47    45    1
     3    45    39    1
     4    39    40   ar
     5    40    41   ar
     6    41    42   ar
     7    42    43   ar
     8    43    29    1
     9    29    30   ar
    10    30    31   ar
    11    31    32   ar
    12    32    33   ar
    13    33    34   ar
    14    34    25    1
    15    25    26    2
    16    25    27   am
    17    27     1    1
    18     1     2   ar
    19     2     3   ar
    20     3     4   ar
    21     4     7    1
    22     7     8    1
    23     8     9    1
    24     9    10    1
    25    10    13    1
    26    13    14    1
    27    14    15    1
    28    15    16   ar
    29    16    17   ar
    30    17    18   ar
    31    18    19   ar
    32    19    21    1
    33    21    22    2
    34    21    23    1
    35    19    20   ar
    36    10    11    1
    37    11    12    1
    38     4     5   ar
    39     5     6   ar
    40    34    35   ar
    41    35    36    1
    42    35    37   ar
    43    37    38   ar
    44    43    44   ar
    45    44    39   ar
    46    38    29   ar
    47    37    32   ar
    48     6     1   ar
    49    12     7    1
    50    20    15   ar
    51    27    28    1
    52    23    24    1
@<TRIPOS>MOLECULE
*****
 47 52 0 0 0
SMALL
GASTEIGER

@<TRIPOS>ATOM
      1 C         -66.3985  -54.0765  -23.4961 C.ar    1  UNL1        0.0702
      2 C         -67.4914  -53.6647  -22.7235 C.ar    1  UNL1        0.0191
      3 C         -68.7460  -54.2455  -22.9132 C.ar    1  UNL1        0.0356
      4 C         -68.9070  -55.2402  -23.8888 C.ar    1  UNL1        0.1318
      5 N         -67.8395  -55.6016  -24.6538 N.ar    1  UNL1       -0.2279
      6 C         -66.6077  -55.0520  -24.4850 C.ar    1  UNL1        0.1149
      7 N         -70.1917  -55.8484  -24.1178 N.pl3   1  UNL1       -0.2932
      8 C         -70.4973  -57.1714  -23.5553 C.3     1  UNL1        0.0923
      9 C         -71.9655  -57.2344  -23.1277 C.3     1  UNL1        0.0252
     10 C         -72.8861  -56.8333  -24.2953 C.3     1  UNL1        0.0472
     11 C         -72.5193  -55.4250  -24.8028 C.3     1  UNL1        0.0252
     12 C         -71.0429  -55.3561  -25.2084 C.3     1  UNL1        0.0923
     13 C         -74.3808  -56.9247  -23.9263 C.3     1  UNL1        0.2054
     14 O         -74.7455  -55.9825  -22.9130 O.3     1  UNL1       -0.4755
     15 C         -74.4013  -56.0359  -21.5514 C.ar    1  UNL1        0.1388
     16 C         -75.1474  -56.8828  -20.7256 C.ar    1  UNL1        0.0369
     17 C         -74.8589  -56.9826  -19.3643 C.ar    1  UNL1        0.0033
     18 C         -73.8200  -56.2335  -18.8093 C.ar    1  UNL1        0.0066
     19 C         -73.0566  -55.3710  -19.6152 C.ar    1  UNL1        0.0785
     20 C         -73.3453  -55.2881  -20.9908 C.ar    1  UNL1        0.0433
     21 C         -71.9461  -54.5717  -19.0410 C.2     1  UNL1        0.3381
     22 O         -71.2587  -55.0440  -18.0968 O.2     1  UNL1       -0.2451
     23 O         -71.6245  -53.3053  -19.5283 O.3     1  UNL1       -0.4771
     24 H         -72.0643  -52.9088  -20.3484 H       1  UNL1        0.2954
     25 C         -64.4425  -52.6913  -24.3195 C.2     1  UNL1        0.2839
     26 O         -64.6794  -52.9134  -25.5373 O.2     1  UNL1       -0.2665
     27 N         -65.1164  -53.4534  -23.3070 N.am    1  UNL1       -0.2766
     28 H         -64.5968  -53.6563  -22.4239 H       1  UNL1        0.1553
     29 C         -60.4349  -48.4143  -22.9890 C.ar    1  UNL1        0.0002
     30 C         -59.7659  -49.5541  -22.4666 C.ar    1  UNL1        0.0031
     31 C         -60.3437  -50.8327  -22.5558 C.ar    1  UNL1        0.0375
     32 C         -61.5861  -50.9461  -23.1700 C.ar    1  UNL1        0.1452
     33 O         -62.2889  -52.0374  -23.3510 O.2     1  UNL1       -0.4492
     34 C         -63.4087  -51.7020  -23.9677 C.ar    1  UNL1        0.1946
     35 C         -63.4220  -50.3242  -24.2198 C.ar    1  UNL1        0.0202
     36 C         -64.4703  -49.5133  -24.9201 C.3     1  UNL1        0.0345
     37 C         -62.2406  -49.8574  -23.6787 C.ar    1  UNL1        0.0337
     38 C         -61.6980  -48.5742  -23.6078 C.ar    1  UNL1        0.0028
     39 C         -59.9947  -44.6876  -22.3712 C.ar    1  UNL1        0.0073
     40 C         -58.6475  -44.5164  -22.7201 C.ar    1  UNL1       -0.0019
     41 C         -57.8860  -45.6085  -23.1400 C.ar    1  UNL1       -0.0002
     42 C         -58.4634  -46.8777  -23.2233 C.ar    1  UNL1       -0.0000
     43 C         -59.8160  -47.0685  -22.8883 C.ar    1  UNL1       -0.0002
     44 C         -60.5757  -45.9629  -22.4625 C.ar    1  UNL1       -0.0019
     45 C         -60.8174  -43.5020  -21.9407 C.3     1  UNL1        0.1687
     46 C         -60.6269  -41.9385  -20.2396 C.3     1  UNL1        0.1746
     47 O         -60.7206  -43.3137  -20.5420 O.3     1  UNL1       -0.3463
@<TRIPOS>BOND
     1    46    47    1
     2    47    45    1
     3    45    39    1
     4    39    40   ar
     5    40    41   ar
     6    41    42   ar
     7    42    43   ar
     8    43    29    1
     9    29    30   ar
    10    30    31   ar
    11    31    32   ar
    12    32    33   ar
    13    33    34   ar
    14    34    25    1
    15    25    26    2
    16    25    27   am
    17    27     1    1
    18     1     2   ar
    19     2     3   ar
    20     3     4   ar
    21     4     7    1
    22     7     8    1
    23     8     9    1
    24     9    10    1
    25    10    13    1
    26    13    14    1
    27    14    15    1
    28    15    16   ar
    29    16    17   ar
    30    17    18   ar
    31    18    19   ar
    32    19    21    1
    33    21    22    2
    34    21    23    1
    35    19    20   ar
    36    10    11    1
    37    11    12    1
    38     4     5   ar
    39     5     6   ar
    40    34    35   ar
    41    35    36    1
    42    35    37   ar
    43    37    38   ar
    44    43    44   ar
    45    44    39   ar
    46    38    29   ar
    47    37    32   ar
    48     6     1   ar
    49    12     7    1
    50    20    15   ar
    51    27    28    1
    52    23    24    1
@<TRIPOS>MOLECULE
*****
 47 52 0 0 0
SMALL
GASTEIGER

@<TRIPOS>ATOM
      1 C         -66.2571  -54.1205  -23.3095 C.ar    1  UNL1        0.0702
      2 C         -66.3137  -55.5196  -23.3255 C.ar    1  UNL1        0.0191
      3 C         -67.5392  -56.1728  -23.4627 C.ar    1  UNL1        0.0356
      4 C         -68.7159  -55.4181  -23.5773 C.ar    1  UNL1        0.1318
      5 N         -68.6430  -54.0590  -23.5241 N.ar    1  UNL1       -0.2279
      6 C         -67.4607  -53.4011  -23.3940 C.ar    1  UNL1        0.1149
      7 N         -69.9966  -56.0629  -23.7061 N.pl3   1  UNL1       -0.2932
      8 C         -71.0499  -55.8269  -22.7085 C.3     1  UNL1        0.0923
      9 C         -72.4210  -55.8005  -23.3880 C.3     1  UNL1        0.0252
     10 C         -72.6361  -57.0777  -24.2212 C.3     1  UNL1        0.0472
     11 C         -71.5082  -57.2314  -25.2604 C.3     1  UNL1        0.0252
     12 C         -70.1342  -57.2338  -24.5814 C.3     1  UNL1        0.0923
     13 C         -74.0249  -57.1184  -24.8907 C.3     1  UNL1        0.2054
     14 O         -74.5143  -55.8097  -25.1992 O.3     1  UNL1       -0.4755
     15 C         -74.2819  -55.0808  -26.3781 C.ar    1  UNL1        0.1388
     16 C         -74.5499  -53.7083  -26.3566 C.ar    1  UNL1        0.0369
     17 C         -74.3419  -52.9261  -27.4930 C.ar    1  UNL1        0.0033
     18 C         -73.8645  -53.5076  -28.6687 C.ar    1  UNL1        0.0066
     19 C         -73.5907  -54.8855  -28.7198 C.ar    1  UNL1        0.0785
     20 C         -73.7894  -55.6643  -27.5637 C.ar    1  UNL1        0.0433
     21 C         -73.0783  -55.5174  -29.9607 C.2     1  UNL1        0.3381
     22 O         -73.7673  -55.4750  -31.0146 O.2     1  UNL1       -0.2451
     23 O         -71.8371  -56.1514  -30.0033 O.3     1  UNL1       -0.4771
     24 H         -71.1886  -56.1333  -29.2271 H       1  UNL1        0.2954
     25 C         -64.3005  -52.7802  -24.2030 C.2     1  UNL1        0.2839
     26 O         -64.4998  -53.1155  -25.4015 O.2     1  UNL1       -0.2665
     27 N         -64.9906  -53.4599  -23.1437 N.am    1  UNL1       -0.2766
     28 H         -64.4928  -53.5730  -22.2325 H       1  UNL1        0.1553
     29 C         -60.4093  -48.3263  -23.1336 C.ar    1  UNL1        0.0002
     30 C         -59.6840  -49.4249  -22.5981 C.ar    1  UNL1        0.0031
     31 C         -60.2182  -50.7250  -22.6295 C.ar    1  UNL1        0.0375
     32 C         -61.4741  -50.9010  -23.1998 C.ar    1  UNL1        0.1452
     33 O         -62.1428  -52.0213  -23.3245 O.2     1  UNL1       -0.4492
     34 C         -63.2924  -51.7448  -23.9150 C.ar    1  UNL1        0.1946
     35 C         -63.3627  -50.3772  -24.2088 C.ar    1  UNL1        0.0202
     36 C         -64.4606  -49.6259  -24.8997 C.3     1  UNL1        0.0345
     37 C         -62.1827  -49.8525  -23.7205 C.ar    1  UNL1        0.0337
     38 C         -61.6844  -48.5496  -23.7064 C.ar    1  UNL1        0.0028
     39 C         -59.9971  -44.5769  -23.6198 C.ar    1  UNL1        0.0073
     40 C         -58.7383  -44.3690  -23.0382 C.ar    1  UNL1       -0.0019
     41 C         -58.0363  -45.4392  -22.4808 C.ar    1  UNL1       -0.0002
     42 C         -58.5797  -46.7258  -22.5059 C.ar    1  UNL1       -0.0000
     43 C         -59.8362  -46.9572  -23.0942 C.ar    1  UNL1       -0.0002
     44 C         -60.5388  -45.8722  -23.6508 C.ar    1  UNL1       -0.0019
     45 C         -60.7397  -43.4229  -24.2399 C.3     1  UNL1        0.1687
     46 C         -62.6860  -42.7903  -25.3292 C.3     1  UNL1        0.1746
     47 O         -62.0585  -43.8071  -24.5784 O.3     1  UNL1       -0.3463
@<TRIPOS>BOND
     1    46    47    1
     2    47    45    1
     3    45    39    1
     4    39    40   ar
     5    40    41   ar
     6    41    42   ar
     7    42    43   ar
     8    43    29    1
     9    29    30   ar
    10    30    31   ar
    11    31    32   ar
    12    32    33   ar
    13    33    34   ar
    14    34    25    1
    15    25    26    2
    16    25    27   am
    17    27     1    1
    18     1     2   ar
    19     2     3   ar
    20     3     4   ar
    21     4     7    1
    22     7     8    1
    23     8     9    1
    24     9    10    1
    25    10    13    1
    26    13    14    1
    27    14    15    1
    28    15    16   ar
    29    16    17   ar
    30    17    18   ar
    31    18    19   ar
    32    19    21    1
    33    21    22    2
    34    21    23    1
    35    19    20   ar
    36    10    11    1
    37    11    12    1
    38     4     5   ar
    39     5     6   ar
    40    34    35   ar
    41    35    36    1
    42    35    37   ar
    43    37    38   ar
    44    43    44   ar
    45    44    39   ar
    46    38    29   ar
    47    37    32   ar
    48     6     1   ar
    49    12     7    1
    50    20    15   ar
    51    27    28    1
    52    23    24    1
@<TRIPOS>MOLECULE
*****
 47 52 0 0 0
SMALL
GASTEIGER

@<TRIPOS>ATOM
      1 C         -65.9607  -54.2776  -22.8547 C.ar    1  UNL1        0.0702
      2 C         -66.1261  -55.3939  -22.0256 C.ar    1  UNL1        0.0191
      3 C         -67.3601  -56.0415  -21.9551 C.ar    1  UNL1        0.0356
      4 C         -68.4369  -55.5622  -22.7154 C.ar    1  UNL1        0.1318
      5 N         -68.2650  -54.4539  -23.4885 N.ar    1  UNL1       -0.2279
      6 C         -67.0717  -53.8086  -23.5750 C.ar    1  UNL1        0.1149
      7 N         -69.7260  -56.2001  -22.6535 N.pl3   1  UNL1       -0.2932
      8 C         -70.0048  -57.2116  -21.6243 C.3     1  UNL1        0.0923
      9 C         -71.4564  -57.0958  -21.1532 C.3     1  UNL1        0.0252
     10 C         -72.4204  -57.1549  -22.3528 C.3     1  UNL1        0.0472
     11 C         -72.0787  -56.0443  -23.3653 C.3     1  UNL1        0.0252
     12 C         -70.6183  -56.1464  -23.8186 C.3     1  UNL1        0.0923
     13 C         -73.9004  -57.0872  -21.9242 C.3     1  UNL1        0.2054
     14 O         -74.0599  -57.2290  -20.5093 O.3     1  UNL1       -0.4755
     15 C         -74.2197  -56.1934  -19.5727 C.ar    1  UNL1        0.1388
     16 C         -75.1443  -55.1868  -19.8689 C.ar    1  UNL1        0.0369
     17 C         -75.3513  -54.1292  -18.9828 C.ar    1  UNL1        0.0033
     18 C         -74.6333  -54.0630  -17.7876 C.ar    1  UNL1        0.0066
     19 C         -73.6946  -55.0590  -17.4664 C.ar    1  UNL1        0.0785
     20 C         -73.5033  -56.1303  -18.3597 C.ar    1  UNL1        0.0433
     21 C         -72.9270  -55.0051  -16.1977 C.2     1  UNL1        0.3381
     22 O         -73.4549  -55.4144  -15.1295 O.2     1  UNL1       -0.2451
     23 O         -71.6188  -54.5246  -16.1509 O.3     1  UNL1       -0.4771
     24 H         -71.0984  -54.2779  -16.9825 H       1  UNL1        0.2954
     25 C         -64.2607  -52.7849  -23.9968 C.2     1  UNL1        0.2839
     26 O         -64.7274  -52.9812  -25.1511 O.2     1  UNL1       -0.2665
     27 N         -64.6905  -53.6051  -22.9002 N.am    1  UNL1       -0.2766
     28 H         -63.9980  -53.8110  -22.1458 H       1  UNL1        0.1553
     29 C         -60.2294  -48.3784  -23.3220 C.ar    1  UNL1        0.0002
     30 C         -59.4220  -49.5052  -23.0086 C.ar    1  UNL1        0.0031
     31 C         -59.9562  -50.8053  -23.0388 C.ar    1  UNL1        0.0375
     32 C         -61.2949  -50.9530  -23.3844 C.ar    1  UNL1        0.1452
     33 O         -61.9779  -52.0684  -23.4687 O.2     1  UNL1       -0.4492
     34 C         -63.2146  -51.7623  -23.8200 C.ar    1  UNL1        0.1946
     35 C         -63.3335  -50.3776  -23.9947 C.ar    1  UNL1        0.0202
     36 C         -64.5364  -49.5900  -24.4189 C.3     1  UNL1        0.0345
     37 C         -62.0834  -49.8771  -23.6900 C.ar    1  UNL1        0.0337
     38 C         -61.5876  -48.5734  -23.6701 C.ar    1  UNL1        0.0028
     39 C         -59.8165  -44.6298  -23.8132 C.ar    1  UNL1        0.0073
     40 C         -58.5556  -44.4222  -23.2362 C.ar    1  UNL1       -0.0019
     41 C         -57.8523  -45.4922  -22.6800 C.ar    1  UNL1       -0.0002
     42 C         -58.3967  -46.7785  -22.7021 C.ar    1  UNL1       -0.0000
     43 C         -59.6553  -47.0097  -23.2858 C.ar    1  UNL1       -0.0002
     44 C         -60.3591  -45.9248  -23.8411 C.ar    1  UNL1       -0.0019
     45 C         -60.5605  -43.4759  -24.4319 C.3     1  UNL1        0.1687
     46 C         -61.8227  -42.7801  -26.2477 C.3     1  UNL1        0.1746
     47 O         -61.2113  -43.8857  -25.6193 O.3     1  UNL1       -0.3463
@<TRIPOS>BOND
     1    46    47    1
     2    47    45    1
     3    45    39    1
     4    39    40   ar
     5    40    41   ar
     6    41    42   ar
     7    42    43   ar
     8    43    29    1
     9    29    30   ar
    10    30    31   ar
    11    31    32   ar
    12    32    33   ar
    13    33    34   ar
    14    34    25    1
    15    25    26    2
    16    25    27   am
    17    27     1    1
    18     1     2   ar
    19     2     3   ar
    20     3     4   ar
    21     4     7    1
    22     7     8    1
    23     8     9    1
    24     9    10    1
    25    10    13    1
    26    13    14    1
    27    14    15    1
    28    15    16   ar
    29    16    17   ar
    30    17    18   ar
    31    18    19   ar
    32    19    21    1
    33    21    22    2
    34    21    23    1
    35    19    20   ar
    36    10    11    1
    37    11    12    1
    38     4     5   ar
    39     5     6   ar
    40    34    35   ar
    41    35    36    1
    42    35    37   ar
    43    37    38   ar
    44    43    44   ar
    45    44    39   ar
    46    38    29   ar
    47    37    32   ar
    48     6     1   ar
    49    12     7    1
    50    20    15   ar
    51    27    28    1
    52    23    24    1
@<TRIPOS>MOLECULE
*****
 47 52 0 0 0
SMALL
GASTEIGER

@<TRIPOS>ATOM
      1 C         -65.3252  -53.5678  -24.0638 C.ar    1  UNL1        0.0702
      2 C         -66.1992  -53.9100  -23.0245 C.ar    1  UNL1        0.0191
      3 C         -67.3472  -54.6583  -23.2881 C.ar    1  UNL1        0.0356
      4 C         -67.6241  -55.0595  -24.6032 C.ar    1  UNL1        0.1318
      5 N         -66.7798  -54.6864  -25.6050 N.ar    1  UNL1       -0.2279
      6 C         -65.6545  -53.9605  -25.3717 C.ar    1  UNL1        0.1149
      7 N         -68.8075  -55.8201  -24.9092 N.pl3   1  UNL1       -0.2932
      8 C         -69.6870  -56.2905  -23.8297 C.3     1  UNL1        0.0923
      9 C         -71.1484  -56.2366  -24.2812 C.3     1  UNL1        0.0252
     10 C         -71.3338  -57.0016  -25.6049 C.3     1  UNL1        0.0472
     11 C         -70.4002  -56.4257  -26.6876 C.3     1  UNL1        0.0252
     12 C         -68.9394  -56.4580  -26.2253 C.3     1  UNL1        0.0923
     13 C         -72.8014  -57.0139  -26.0786 C.3     1  UNL1        0.2054
     14 O         -72.9193  -56.7424  -27.4786 O.3     1  UNL1       -0.4755
     15 C         -73.5314  -55.6240  -28.0700 C.ar    1  UNL1        0.1388
     16 C         -73.8928  -55.7183  -29.4177 C.ar    1  UNL1        0.0369
     17 C         -74.5035  -54.6446  -30.0663 C.ar    1  UNL1        0.0033
     18 C         -74.7591  -53.4592  -29.3749 C.ar    1  UNL1        0.0066
     19 C         -74.4026  -53.3354  -28.0207 C.ar    1  UNL1        0.0785
     20 C         -73.8004  -54.4294  -27.3705 C.ar    1  UNL1        0.0433
     21 C         -74.6720  -52.0836  -27.2709 C.2     1  UNL1        0.3381
     22 O         -75.3462  -51.1652  -27.8087 O.2     1  UNL1       -0.2451
     23 O         -74.2106  -51.8939  -25.9687 O.3     1  UNL1       -0.4771
     24 H         -73.7544  -52.6257  -25.4399 H       1  UNL1        0.2954
     25 C         -63.7669  -51.6298  -24.5522 C.2     1  UNL1        0.2839
     26 O         -64.1197  -51.5304  -25.7581 O.2     1  UNL1       -0.2665
     27 N         -64.1580  -52.7763  -23.7824 N.am    1  UNL1       -0.2766
     28 H         -63.4993  -53.1164  -23.0466 H       1  UNL1        0.1553
     29 C         -60.2714  -47.2015  -22.4796 C.ar    1  UNL1        0.0002
     30 C         -60.0757  -48.1717  -21.4597 C.ar    1  UNL1        0.0031
     31 C         -60.7160  -49.4218  -21.5219 C.ar    1  UNL1        0.0375
     32 C         -61.5436  -49.6779  -22.6097 C.ar    1  UNL1        0.1452
     33 O         -62.2267  -50.7699  -22.8516 O.2     1  UNL1       -0.4492
     34 C         -62.8846  -50.5951  -23.9845 C.ar    1  UNL1        0.1946
     35 C         -62.5948  -49.3321  -24.5162 C.ar    1  UNL1        0.0202
     36 C         -63.0873  -48.7214  -25.7935 C.3     1  UNL1        0.0345
     37 C         -61.7397  -48.7535  -23.5994 C.ar    1  UNL1        0.0337
     38 C         -61.1214  -47.5034  -23.5706 C.ar    1  UNL1        0.0028
     39 C         -59.6923  -43.4613  -22.1071 C.ar    1  UNL1        0.0073
     40 C         -58.3030  -43.3874  -22.2818 C.ar    1  UNL1       -0.0019
     41 C         -57.5602  -44.5480  -22.5057 C.ar    1  UNL1       -0.0002
     42 C         -58.1972  -45.7898  -22.5652 C.ar    1  UNL1       -0.0000
     43 C         -59.5911  -45.8841  -22.4033 C.ar    1  UNL1       -0.0002
     44 C         -60.3321  -44.7095  -22.1745 C.ar    1  UNL1       -0.0019
     45 C         -60.4914  -42.2037  -21.8887 C.3     1  UNL1        0.1687
     46 C         -61.2290  -41.4285  -19.8320 C.3     1  UNL1        0.1746
     47 O         -60.1098  -41.5783  -20.6784 O.3     1  UNL1       -0.3463
@<TRIPOS>BOND
     1    46    47    1
     2    47    45    1
     3    45    39    1
     4    39    40   ar
     5    40    41   ar
     6    41    42   ar
     7    42    43   ar
     8    43    29    1
     9    29    30   ar
    10    30    31   ar
    11    31    32   ar
    12    32    33   ar
    13    33    34   ar
    14    34    25    1
    15    25    26    2
    16    25    27   am
    17    27     1    1
    18     1     2   ar
    19     2     3   ar
    20     3     4   ar
    21     4     7    1
    22     7     8    1
    23     8     9    1
    24     9    10    1
    25    10    13    1
    26    13    14    1
    27    14    15    1
    28    15    16   ar
    29    16    17   ar
    30    17    18   ar
    31    18    19   ar
    32    19    21    1
    33    21    22    2
    34    21    23    1
    35    19    20   ar
    36    10    11    1
    37    11    12    1
    38     4     5   ar
    39     5     6   ar
    40    34    35   ar
    41    35    36    1
    42    35    37   ar
    43    37    38   ar
    44    43    44   ar
    45    44    39   ar
    46    38    29   ar
    47    37    32   ar
    48     6     1   ar
    49    12     7    1
    50    20    15   ar
    51    27    28    1
    52    23    24    1
@<TRIPOS>MOLECULE
*****
 47 52 0 0 0
SMALL
GASTEIGER

@<TRIPOS>ATOM
      1 C         -72.8784  -56.2345  -22.5721 C.ar    1  UNL1        0.0702
      2 C         -74.2478  -56.4346  -22.7866 C.ar    1  UNL1        0.0191
      3 C         -74.8108  -56.1679  -24.0353 C.ar    1  UNL1        0.0356
      4 C         -73.9969  -55.6908  -25.0731 C.ar    1  UNL1        0.1318
      5 N         -72.6743  -55.4695  -24.8339 N.ar    1  UNL1       -0.2279
      6 C         -72.1034  -55.7247  -23.6269 C.ar    1  UNL1        0.1149
      7 N         -74.5507  -55.3932  -26.3682 N.pl3   1  UNL1       -0.2932
      8 C         -74.6662  -54.0006  -26.8237 C.3     1  UNL1        0.0923
      9 C         -74.3999  -53.9160  -28.3285 C.3     1  UNL1        0.0252
     10 C         -75.3115  -54.8928  -29.0945 C.3     1  UNL1        0.0472
     11 C         -75.1049  -56.3301  -28.5776 C.3     1  UNL1        0.0252
     12 C         -75.3485  -56.4092  -27.0665 C.3     1  UNL1        0.0923
     13 C         -75.1116  -54.8120  -30.6216 C.3     1  UNL1        0.2054
     14 O         -74.4780  -55.9828  -31.1461 O.3     1  UNL1       -0.4755
     15 C         -73.1128  -56.3075  -31.0675 C.ar    1  UNL1        0.1388
     16 C         -72.5170  -56.8862  -32.1926 C.ar    1  UNL1        0.0369
     17 C         -71.1658  -57.2334  -32.1815 C.ar    1  UNL1        0.0033
     18 C         -70.3917  -57.0083  -31.0419 C.ar    1  UNL1        0.0066
     19 C         -70.9658  -56.4318  -29.8954 C.ar    1  UNL1        0.0785
     20 C         -72.3264  -56.0709  -29.9211 C.ar    1  UNL1        0.0433
     21 C         -70.1550  -56.1819  -28.6781 C.2     1  UNL1        0.3381
     22 O         -70.7175  -55.7875  -27.6221 O.2     1  UNL1       -0.2451
     23 O         -68.7757  -56.3863  -28.6598 O.3     1  UNL1       -0.4771
     24 H         -68.2752  -56.7989  -29.4360 H       1  UNL1        0.2954
     25 C         -71.7431  -55.4740  -20.4379 C.2     1  UNL1        0.2839
     26 O         -71.2704  -54.4259  -20.9542 O.2     1  UNL1       -0.2665
     27 N         -72.3151  -56.4906  -21.2741 N.am    1  UNL1       -0.2766
     28 H         -72.2173  -57.4845  -20.9681 H       1  UNL1        0.1553
     29 C         -71.5361  -56.1014  -14.4640 C.ar    1  UNL1        0.0002
     30 C         -70.3751  -56.8338  -14.8320 C.ar    1  UNL1        0.0031
     31 C         -70.0021  -56.9628  -16.1814 C.ar    1  UNL1        0.0375
     32 C         -70.8023  -56.3526  -17.1410 C.ar    1  UNL1        0.1452
     33 O         -70.6310  -56.3553  -18.4403 O.2     1  UNL1       -0.4492
     34 C         -71.6191  -55.6648  -18.9820 C.ar    1  UNL1        0.1946
     35 C         -72.4626  -55.1696  -17.9794 C.ar    1  UNL1        0.0202
     36 C         -73.6842  -54.3131  -18.1258 C.3     1  UNL1        0.0345
     37 C         -71.9219  -55.6432  -16.8007 C.ar    1  UNL1        0.0337
     38 C         -72.3223  -55.4946  -15.4727 C.ar    1  UNL1        0.0028
     39 C         -72.1433  -54.6176  -11.0153 C.ar    1  UNL1        0.0073
     40 C         -72.6307  -55.7367  -10.3252 C.ar    1  UNL1       -0.0019
     41 C         -72.7726  -56.9605  -10.9818 C.ar    1  UNL1       -0.0002
     42 C         -72.4223  -57.0802  -12.3288 C.ar    1  UNL1       -0.0000
     43 C         -71.9214  -55.9725  -13.0360 C.ar    1  UNL1       -0.0002
     44 C         -71.7848  -54.7416  -12.3674 C.ar    1  UNL1       -0.0019
     45 C         -71.9709  -53.3059  -10.2960 C.3     1  UNL1        0.1687
     46 C         -73.9840  -52.1993   -9.9836 C.3     1  UNL1        0.1746
     47 O         -72.8552  -52.3338  -10.8198 O.3     1  UNL1       -0.3463
@<TRIPOS>BOND
     1    46    47    1
     2    47    45    1
     3    45    39    1
     4    39    40   ar
     5    40    41   ar
     6    41    42   ar
     7    42    43   ar
     8    43    29    1
     9    29    30   ar
    10    30    31   ar
    11    31    32   ar
    12    32    33   ar
    13    33    34   ar
    14    34    25    1
    15    25    26    2
    16    25    27   am
    17    27     1    1
    18     1     2   ar
    19     2     3   ar
    20     3     4   ar
    21     4     7    1
    22     7     8    1
    23     8     9    1
    24     9    10    1
    25    10    13    1
    26    13    14    1
    27    14    15    1
    28    15    16   ar
    29    16    17   ar
    30    17    18   ar
    31    18    19   ar
    32    19    21    1
    33    21    22    2
    34    21    23    1
    35    19    20   ar
    36    10    11    1
    37    11    12    1
    38     4     5   ar
    39     5     6   ar
    40    34    35   ar
    41    35    36    1
    42    35    37   ar
    43    37    38   ar
    44    43    44   ar
    45    44    39   ar
    46    38    29   ar
    47    37    32   ar
    48     6     1   ar
    49    12     7    1
    50    20    15   ar
    51    27    28    1
    52    23    24    1
