@<TRIPOS>MOLECULE
*****
 38 40 0 0 0
SMALL
GASTEIGER

@<TRIPOS>ATOM
      1 C          48.7179    9.7220  -22.1268 C.ar    1  UNL1       -0.0023
      2 C          49.7360    8.8002  -22.4149 C.ar    1  UNL1       -0.0026
      3 C          50.4115    8.8526  -23.6366 C.ar    1  UNL1       -0.0003
      4 C          50.0884    9.8365  -24.5845 C.ar    1  UNL1        0.0001
      5 C          49.0702   10.7587  -24.2969 C.ar    1  UNL1       -0.0003
      6 C          48.3941   10.7055  -23.0754 C.ar    1  UNL1       -0.0026
      7 C          50.7894    9.8815  -25.8889 C.ar    1  UNL1        0.0032
      8 C          50.2932    9.0869  -26.9377 C.ar    1  UNL1        0.0065
      9 C          50.9661    9.0079  -28.1679 C.ar    1  UNL1        0.0755
     10 C          52.1539    9.7316  -28.3410 C.ar    1  UNL1        0.0065
     11 C          52.6516   10.5331  -27.3131 C.ar    1  UNL1        0.0033
     12 C          51.9733   10.6372  -26.0884 C.ar    1  UNL1        0.0371
     13 C          52.5135   11.5631  -25.0657 C.ar    1  UNL1        0.1806
     14 N          51.9893   12.7713  -24.7845 N.ar    1  UNL1       -0.1084
     15 N          52.7262   13.2426  -23.7883 N.ar    1  UNL1       -0.0229
     16 N          53.6570   12.3603  -23.4578 N.ar    1  UNL1       -0.0464
     17 N          53.5413   11.3024  -24.2394 N.ar    1  UNL1       -0.2388
     18 H          54.1224   10.4385  -24.1698 H       1  UNL1        0.1923
     19 C          50.4404    8.1637  -29.2641 C.2     1  UNL1        0.3380
     20 O          51.0775    8.0519  -30.3465 O.2     1  UNL1       -0.2451
     21 O          49.2354    7.4830  -29.1100 O.3     1  UNL1       -0.4771
     22 H          48.8668    6.9023  -29.8538 H       1  UNL1        0.2954
     23 C          47.9520    9.6290  -20.8331 C.3     1  UNL1        0.1206
     24 C          49.7485   10.5892  -19.3913 C.2     1  UNL1        0.2262
     25 O          50.1497    9.5312  -18.8367 O.2     1  UNL1       -0.2749
     26 N          48.3942   10.6613  -19.8823 N.am    1  UNL1       -0.2673
     27 C          50.7403   11.6900  -19.6389 C.3     1  UNL1        0.0853
     28 C          50.4981   12.3228  -21.0152 C.3     1  UNL1        0.0096
     29 C          49.4229   14.4126  -22.0075 C.3     1  UNL1        0.0000
     30 C          50.3687   13.8519  -20.9453 C.3     1  UNL1        0.0005
     31 C          47.4469   11.7327  -19.4841 C.3     1  UNL1        0.1746
     32 C          47.3534   11.8560  -17.9750 C.2     1  UNL1        0.3320
     33 O          47.2083   10.8191  -17.2748 O.2     1  UNL1       -0.2485
     34 O          47.5467   13.0716  -17.3198 O.3     1  UNL1       -0.4790
     35 H          47.7641   13.9293  -17.8083 H       1  UNL1        0.2951
     36 C          46.0738   11.6561  -20.2306 C.3     1  UNL1        0.0292
     37 C          44.8986   11.9917  -19.3010 C.3     1  UNL1        0.0023
     38 C          45.9886   12.4907  -21.5199 C.3     1  UNL1        0.0023
@<TRIPOS>BOND
     1    29    30    1
     2    30    28    1
     3    28    27    1
     4    27    24    1
     5    24    25    2
     6    24    26   am
     7    26    23    1
     8    23     1    1
     9     1     2   ar
    10     2     3   ar
    11     3     4   ar
    12     4     7    1
    13     7     8   ar
    14     8     9   ar
    15     9    19    1
    16    19    20    2
    17    19    21    1
    18     9    10   ar
    19    10    11   ar
    20    11    12   ar
    21    12    13    1
    22    13    14   ar
    23    14    15   ar
    24    15    16   ar
    25    16    17   ar
    26     4     5   ar
    27     5     6   ar
    28    26    31    1
    29    31    32    1
    30    32    33    2
    31    32    34    1
    32    31    36    1
    33    36    37    1
    34    36    38    1
    35     6     1   ar
    36    12     7   ar
    37    17    13   ar
    38    21    22    1
    39    17    18    1
    40    34    35    1
@<TRIPOS>MOLECULE
*****
 38 40 0 0 0
SMALL
GASTEIGER

@<TRIPOS>ATOM
      1 C          51.0594   10.1260  -26.4007 C.ar    1  UNL1       -0.0023
      2 C          50.2365    9.0130  -26.6318 C.ar    1  UNL1       -0.0026
      3 C          50.3149    8.3151  -27.8396 C.ar    1  UNL1       -0.0003
      4 C          51.2273    8.7115  -28.8303 C.ar    1  UNL1        0.0001
      5 C          52.0505    9.8245  -28.5996 C.ar    1  UNL1       -0.0003
      6 C          51.9713   10.5229  -27.3921 C.ar    1  UNL1       -0.0026
      7 C          51.2979    7.9853  -30.1197 C.ar    1  UNL1        0.0032
      8 C          50.0921    7.6043  -30.7346 C.ar    1  UNL1        0.0065
      9 C          50.0892    6.8297  -31.9062 C.ar    1  UNL1        0.0755
     10 C          51.3131    6.4299  -32.4601 C.ar    1  UNL1        0.0065
     11 C          52.5173    6.8104  -31.8671 C.ar    1  UNL1        0.0033
     12 C          52.5306    7.6046  -30.7096 C.ar    1  UNL1        0.0371
     13 C          53.8420    8.0371  -30.1726 C.ar    1  UNL1        0.1806
     14 N          54.6971    7.2285  -29.5180 N.ar    1  UNL1       -0.1084
     15 N          55.7561    7.9835  -29.2610 N.ar    1  UNL1       -0.0229
     16 N          55.5712    9.2018  -29.7464 N.ar    1  UNL1       -0.0464
     17 N          54.3848    9.2578  -30.3231 N.ar    1  UNL1       -0.2388
     18 H          53.9992   10.0885  -30.8231 H       1  UNL1        0.1923
     19 C          48.8151    6.4272  -32.5431 C.2     1  UNL1        0.3380
     20 O          48.8174    5.7036  -33.5757 O.2     1  UNL1       -0.2451
     21 O          47.5996    6.8441  -32.0065 O.3     1  UNL1       -0.4771
     22 H          46.7219    6.5741  -32.4344 H       1  UNL1        0.2954
     23 C          50.9340   10.9114  -25.1215 C.3     1  UNL1        0.1206
     24 C          48.8069   12.1088  -25.6411 C.2     1  UNL1        0.2262
     25 O          49.2645   13.2712  -25.8062 O.2     1  UNL1       -0.2749
     26 N          49.5227   11.1789  -24.8024 N.am    1  UNL1       -0.2673
     27 C          47.6000   11.6936  -26.4333 C.3     1  UNL1        0.0853
     28 C          46.4518   12.6863  -26.2106 C.3     1  UNL1        0.0096
     29 C          44.4722   12.7984  -24.6054 C.3     1  UNL1        0.0000
     30 C          45.1718   12.0022  -25.7071 C.3     1  UNL1        0.0005
     31 C          48.8939   10.4772  -23.6551 C.3     1  UNL1        0.1746
     32 C          48.0013   11.4095  -22.8580 C.2     1  UNL1        0.3320
     33 O          48.4265   12.5497  -22.5332 O.2     1  UNL1       -0.2485
     34 O          46.6723   11.0966  -22.5746 O.3     1  UNL1       -0.4790
     35 H          46.2316   10.2423  -22.8866 H       1  UNL1        0.2951
     36 C          49.9093    9.6426  -22.8061 C.3     1  UNL1        0.0292
     37 C          49.6034    9.7278  -21.3036 C.3     1  UNL1        0.0023
     38 C          50.0619    8.1737  -23.2364 C.3     1  UNL1        0.0023
@<TRIPOS>BOND
     1    29    30    1
     2    30    28    1
     3    28    27    1
     4    27    24    1
     5    24    25    2
     6    24    26   am
     7    26    23    1
     8    23     1    1
     9     1     2   ar
    10     2     3   ar
    11     3     4   ar
    12     4     7    1
    13     7     8   ar
    14     8     9   ar
    15     9    19    1
    16    19    20    2
    17    19    21    1
    18     9    10   ar
    19    10    11   ar
    20    11    12   ar
    21    12    13    1
    22    13    14   ar
    23    14    15   ar
    24    15    16   ar
    25    16    17   ar
    26     4     5   ar
    27     5     6   ar
    28    26    31    1
    29    31    32    1
    30    32    33    2
    31    32    34    1
    32    31    36    1
    33    36    37    1
    34    36    38    1
    35     6     1   ar
    36    12     7   ar
    37    17    13   ar
    38    21    22    1
    39    17    18    1
    40    34    35    1
@<TRIPOS>MOLECULE
*****
 38 40 0 0 0
SMALL
GASTEIGER

@<TRIPOS>ATOM
      1 C          49.4352   14.2554  -23.4371 C.ar    1  UNL1       -0.0023
      2 C          49.9257   12.9604  -23.2100 C.ar    1  UNL1       -0.0026
      3 C          50.2362   12.5396  -21.9144 C.ar    1  UNL1       -0.0003
      4 C          50.0482   13.4033  -20.8237 C.ar    1  UNL1        0.0001
      5 C          49.5577   14.6986  -21.0503 C.ar    1  UNL1       -0.0003
      6 C          49.2482   15.1195  -22.3461 C.ar    1  UNL1       -0.0026
      7 C          50.3959   12.9664  -19.4514 C.ar    1  UNL1        0.0032
      8 C          49.3509   12.7764  -18.5298 C.ar    1  UNL1        0.0065
      9 C          49.6169   12.4581  -17.1880 C.ar    1  UNL1        0.0755
     10 C          50.9489   12.3361  -16.7692 C.ar    1  UNL1        0.0065
     11 C          51.9954   12.5104  -17.6754 C.ar    1  UNL1        0.0033
     12 C          51.7389   12.8051  -19.0237 C.ar    1  UNL1        0.0371
     13 C          52.8909   12.9036  -19.9501 C.ar    1  UNL1        0.1806
     14 N          52.8156   13.3868  -21.2049 N.ar    1  UNL1       -0.1084
     15 N          54.0592   13.3510  -21.6626 N.ar    1  UNL1       -0.0229
     16 N          54.8712   12.8792  -20.7287 N.ar    1  UNL1       -0.0464
     17 N          54.1647   12.5965  -19.6497 N.ar    1  UNL1       -0.2388
     18 H          54.5588   12.2472  -18.7489 H       1  UNL1        0.1923
     19 C          48.5110   12.2666  -16.2230 C.2     1  UNL1        0.3380
     20 O          48.1084   13.2279  -15.5134 O.2     1  UNL1       -0.2451
     21 O          47.9031   11.0208  -16.0900 O.3     1  UNL1       -0.4771
     22 H          47.1453   10.8790  -15.4328 H       1  UNL1        0.2954
     23 C          49.1548   14.7268  -24.8400 C.3     1  UNL1        0.1206
     24 C          47.0677   13.3846  -25.1058 C.2     1  UNL1        0.2262
     25 O          47.5186   12.4490  -25.8193 O.2     1  UNL1       -0.2749
     26 N          47.7146   14.6734  -25.1370 N.am    1  UNL1       -0.2673
     27 C          45.9512   13.0820  -24.1474 C.3     1  UNL1        0.0853
     28 C          46.3672   11.9627  -23.1843 C.3     1  UNL1        0.0096
     29 C          46.8112   11.3165  -20.7567 C.3     1  UNL1        0.0000
     30 C          46.4575   12.4429  -21.7279 C.3     1  UNL1        0.0005
     31 C          46.9895   15.9338  -25.4361 C.3     1  UNL1        0.1746
     32 C          46.8815   16.1688  -26.9309 C.2     1  UNL1        0.3320
     33 O          45.7830   16.5387  -27.4238 O.2     1  UNL1       -0.2485
     34 O          47.9933   16.1090  -27.7703 O.3     1  UNL1       -0.4790
     35 H          48.9256   15.9139  -27.4324 H       1  UNL1        0.2951
     36 C          47.5034   17.1572  -24.6069 C.3     1  UNL1        0.0292
     37 C          47.7783   18.3768  -25.4985 C.3     1  UNL1        0.0023
     38 C          46.6121   17.5561  -23.4183 C.3     1  UNL1        0.0023
@<TRIPOS>BOND
     1    29    30    1
     2    30    28    1
     3    28    27    1
     4    27    24    1
     5    24    25    2
     6    24    26   am
     7    26    23    1
     8    23     1    1
     9     1     2   ar
    10     2     3   ar
    11     3     4   ar
    12     4     7    1
    13     7     8   ar
    14     8     9   ar
    15     9    19    1
    16    19    20    2
    17    19    21    1
    18     9    10   ar
    19    10    11   ar
    20    11    12   ar
    21    12    13    1
    22    13    14   ar
    23    14    15   ar
    24    15    16   ar
    25    16    17   ar
    26     4     5   ar
    27     5     6   ar
    28    26    31    1
    29    31    32    1
    30    32    33    2
    31    32    34    1
    32    31    36    1
    33    36    37    1
    34    36    38    1
    35     6     1   ar
    36    12     7   ar
    37    17    13   ar
    38    21    22    1
    39    17    18    1
    40    34    35    1
@<TRIPOS>MOLECULE
*****
 38 40 0 0 0
SMALL
GASTEIGER

@<TRIPOS>ATOM
      1 C          48.9976   11.0365  -23.4433 C.ar    1  UNL1       -0.0023
      2 C          49.7121   11.2191  -24.6372 C.ar    1  UNL1       -0.0026
      3 C          49.0681   11.7017  -25.7792 C.ar    1  UNL1       -0.0003
      4 C          47.7017   12.0219  -25.7414 C.ar    1  UNL1        0.0001
      5 C          46.9866   11.8395  -24.5476 C.ar    1  UNL1       -0.0003
      6 C          47.6307   11.3560  -23.4059 C.ar    1  UNL1       -0.0026
      7 C          47.0120   12.5145  -26.9566 C.ar    1  UNL1        0.0032
      8 C          46.9131   11.6498  -28.0611 C.ar    1  UNL1        0.0065
      9 C          46.3594   12.0862  -29.2758 C.ar    1  UNL1        0.0755
     10 C          45.9069   13.4086  -29.3807 C.ar    1  UNL1        0.0065
     11 C          45.9883   14.2741  -28.2894 C.ar    1  UNL1        0.0033
     12 C          46.5180   13.8400  -27.0640 C.ar    1  UNL1        0.0371
     13 C          46.5069   14.7847  -25.9228 C.ar    1  UNL1        0.1806
     14 N          45.8134   14.5908  -24.7848 N.ar    1  UNL1       -0.1084
     15 N          46.1165   15.6276  -24.0162 N.ar    1  UNL1       -0.0229
     16 N          46.9703   16.4217  -24.6444 N.ar    1  UNL1       -0.0464
     17 N          47.2313   15.9139  -25.8350 N.ar    1  UNL1       -0.2388
     18 H          47.9042   16.3151  -26.5242 H       1  UNL1        0.1923
     19 C          46.2654   11.1713  -30.4355 C.2     1  UNL1        0.3380
     20 O          46.3683   11.6165  -31.6107 O.2     1  UNL1       -0.2451
     21 O          46.0626    9.8076  -30.2393 O.3     1  UNL1       -0.4771
     22 H          45.9970    9.1727  -31.0260 H       1  UNL1        0.2954
     23 C          49.6801   10.4628  -22.2292 C.3     1  UNL1        0.1206
     24 C          50.6230   12.7162  -21.7181 C.2     1  UNL1        0.2262
     25 O          51.7105   12.6280  -22.3485 O.2     1  UNL1       -0.2749
     26 N          49.9795   11.5150  -21.2452 N.am    1  UNL1       -0.2673
     27 C          49.9699   14.0638  -21.5991 C.3     1  UNL1        0.0853
     28 C          49.3834   14.4905  -22.9509 C.3     1  UNL1        0.0096
     29 C          50.4781   15.0060  -25.1968 C.3     1  UNL1        0.0000
     30 C          50.3236   15.4199  -23.7332 C.3     1  UNL1        0.0005
     31 C          49.5971   11.3092  -19.8256 C.3     1  UNL1        0.1746
     32 C          49.3724    9.8404  -19.5202 C.2     1  UNL1        0.3320
     33 O          48.2543    9.3177  -19.7711 O.2     1  UNL1       -0.2485
     34 O          50.4043    9.0107  -19.0828 O.3     1  UNL1       -0.4790
     35 H          51.3519    9.3367  -18.9519 H       1  UNL1        0.2951
     36 C          48.4591   12.2694  -19.3441 C.3     1  UNL1        0.0292
     37 C          47.0920   11.8670  -19.9162 C.3     1  UNL1        0.0023
     38 C          48.3660   12.4522  -17.8196 C.3     1  UNL1        0.0023
@<TRIPOS>BOND
     1    29    30    1
     2    30    28    1
     3    28    27    1
     4    27    24    1
     5    24    25    2
     6    24    26   am
     7    26    23    1
     8    23     1    1
     9     1     2   ar
    10     2     3   ar
    11     3     4   ar
    12     4     7    1
    13     7     8   ar
    14     8     9   ar
    15     9    19    1
    16    19    20    2
    17    19    21    1
    18     9    10   ar
    19    10    11   ar
    20    11    12   ar
    21    12    13    1
    22    13    14   ar
    23    14    15   ar
    24    15    16   ar
    25    16    17   ar
    26     4     5   ar
    27     5     6   ar
    28    26    31    1
    29    31    32    1
    30    32    33    2
    31    32    34    1
    32    31    36    1
    33    36    37    1
    34    36    38    1
    35     6     1   ar
    36    12     7   ar
    37    17    13   ar
    38    21    22    1
    39    17    18    1
    40    34    35    1
@<TRIPOS>MOLECULE
*****
 38 40 0 0 0
SMALL
GASTEIGER

@<TRIPOS>ATOM
      1 C          48.6000    9.7568  -22.7197 C.ar    1  UNL1       -0.0023
      2 C          48.4003   10.7524  -23.6883 C.ar    1  UNL1       -0.0026
      3 C          49.1315   10.7369  -24.8787 C.ar    1  UNL1       -0.0003
      4 C          50.0649    9.7175  -25.1248 C.ar    1  UNL1        0.0001
      5 C          50.2651    8.7215  -24.1564 C.ar    1  UNL1       -0.0003
      6 C          49.5344    8.7378  -22.9657 C.ar    1  UNL1       -0.0026
      7 C          50.8561    9.7103  -26.3774 C.ar    1  UNL1        0.0032
      8 C          50.3812    8.9473  -27.4590 C.ar    1  UNL1        0.0065
      9 C          51.1308    8.8187  -28.6396 C.ar    1  UNL1        0.0755
     10 C          52.3740    9.4600  -28.7291 C.ar    1  UNL1        0.0065
     11 C          52.8523   10.2297  -27.6682 C.ar    1  UNL1        0.0033
     12 C          52.0993   10.3837  -26.4935 C.ar    1  UNL1        0.0371
     13 C          52.6286   11.2747  -25.4347 C.ar    1  UNL1        0.1806
     14 N          52.4388   12.6075  -25.4005 N.ar    1  UNL1       -0.1084
     15 N          53.0200   13.0092  -24.2788 N.ar    1  UNL1       -0.0229
     16 N          53.5354   11.9701  -23.6395 N.ar    1  UNL1       -0.0464
     17 N          53.3002   10.8761  -24.3404 N.ar    1  UNL1       -0.2388
     18 H          53.5611    9.9088  -24.0487 H       1  UNL1        0.1923
     19 C          50.6265    8.0080  -29.7706 C.2     1  UNL1        0.3380
     20 O          51.2788    7.9376  -30.8474 O.2     1  UNL1       -0.2451
     21 O          49.4251    7.3133  -29.6557 O.3     1  UNL1       -0.4771
     22 H          49.0711    6.7553  -30.4236 H       1  UNL1        0.2954
     23 C          47.8523    9.8067  -21.4131 C.3     1  UNL1        0.1206
     24 C          47.2723   11.9527  -20.2790 C.2     1  UNL1        0.2262
     25 O          46.6128   12.4982  -21.2038 O.2     1  UNL1       -0.2749
     26 N          48.2710   10.9656  -20.6090 N.am    1  UNL1       -0.2673
     27 C          46.8986   12.2560  -18.8559 C.3     1  UNL1        0.0853
     28 C          45.4462   12.7439  -18.7811 C.3     1  UNL1        0.0096
     29 C          43.0081   11.9930  -18.7853 C.3     1  UNL1        0.0000
     30 C          44.4401   11.6644  -19.2080 C.3     1  UNL1        0.0005
     31 C          49.6825   11.0637  -20.1599 C.3     1  UNL1        0.1746
     32 C          49.9380   10.1944  -18.9432 C.2     1  UNL1        0.3320
     33 O          50.3961    9.0312  -19.0961 O.2     1  UNL1       -0.2485
     34 O          49.7995   10.6825  -17.6444 O.3     1  UNL1       -0.4790
     35 H          49.5298   11.6355  -17.4426 H       1  UNL1        0.2951
     36 C          50.1955   12.5374  -20.0428 C.3     1  UNL1        0.0292
     37 C          51.4231   12.6440  -19.1264 C.3     1  UNL1        0.0023
     38 C          50.4697   13.2377  -21.3847 C.3     1  UNL1        0.0023
@<TRIPOS>BOND
     1    29    30    1
     2    30    28    1
     3    28    27    1
     4    27    24    1
     5    24    25    2
     6    24    26   am
     7    26    23    1
     8    23     1    1
     9     1     2   ar
    10     2     3   ar
    11     3     4   ar
    12     4     7    1
    13     7     8   ar
    14     8     9   ar
    15     9    19    1
    16    19    20    2
    17    19    21    1
    18     9    10   ar
    19    10    11   ar
    20    11    12   ar
    21    12    13    1
    22    13    14   ar
    23    14    15   ar
    24    15    16   ar
    25    16    17   ar
    26     4     5   ar
    27     5     6   ar
    28    26    31    1
    29    31    32    1
    30    32    33    2
    31    32    34    1
    32    31    36    1
    33    36    37    1
    34    36    38    1
    35     6     1   ar
    36    12     7   ar
    37    17    13   ar
    38    21    22    1
    39    17    18    1
    40    34    35    1
@<TRIPOS>MOLECULE
*****
 38 40 0 0 0
SMALL
GASTEIGER

@<TRIPOS>ATOM
      1 C          48.0525   13.5768  -23.2076 C.ar    1  UNL1       -0.0023
      2 C          46.7028   13.3372  -23.5077 C.ar    1  UNL1       -0.0026
      3 C          46.3091   13.0588  -24.8189 C.ar    1  UNL1       -0.0003
      4 C          47.2615   13.0026  -25.8489 C.ar    1  UNL1        0.0001
      5 C          48.6116   13.2422  -25.5494 C.ar    1  UNL1       -0.0003
      6 C          49.0049   13.5214  -24.2381 C.ar    1  UNL1       -0.0026
      7 C          46.8438   12.7277  -27.2435 C.ar    1  UNL1        0.0032
      8 C          47.0792   11.4439  -27.7668 C.ar    1  UNL1        0.0065
      9 C          46.7975   11.1460  -29.1101 C.ar    1  UNL1        0.0755
     10 C          46.2795   12.1532  -29.9358 C.ar    1  UNL1        0.0065
     11 C          46.0301   13.4282  -29.4270 C.ar    1  UNL1        0.0033
     12 C          46.2859   13.7286  -28.0798 C.ar    1  UNL1        0.0371
     13 C          45.9289   15.0782  -27.5837 C.ar    1  UNL1        0.1806
     14 N          46.7431   15.8531  -26.8417 N.ar    1  UNL1       -0.1084
     15 N          46.0721   16.9818  -26.6597 N.ar    1  UNL1       -0.0229
     16 N          44.9000   16.9148  -27.2728 N.ar    1  UNL1       -0.0464
     17 N          44.7900   15.7371  -27.8594 N.ar    1  UNL1       -0.2388
     18 H          43.9834   15.4323  -28.4470 H       1  UNL1        0.1923
     19 C          47.0548    9.7939  -29.6545 C.2     1  UNL1        0.3380
     20 O          47.7639    8.9713  -29.0140 O.2     1  UNL1       -0.2451
     21 O          46.5144    9.4165  -30.8812 O.3     1  UNL1       -0.4771
     22 H          46.6840    8.4935  -31.2628 H       1  UNL1        0.2954
     23 C          48.4676   13.9326  -21.8040 C.3     1  UNL1        0.1206
     24 C          47.9000   11.7834  -20.6696 C.2     1  UNL1        0.2262
     25 O          46.9150   12.1700  -19.9854 O.2     1  UNL1       -0.2749
     26 N          48.9062   12.7386  -21.0644 N.am    1  UNL1       -0.2673
     27 C          47.9193   10.3640  -21.1614 C.3     1  UNL1        0.0853
     28 C          48.2604   10.3250  -22.6565 C.3     1  UNL1        0.0096
     29 C          50.4876   10.0624  -23.8724 C.3     1  UNL1        0.0000
     30 C          49.4493    9.4024  -22.9650 C.3     1  UNL1        0.0005
     31 C          50.3504   12.5573  -20.7722 C.3     1  UNL1        0.1746
     32 C          50.5772   12.1644  -19.3247 C.2     1  UNL1        0.3320
     33 O          51.4417   11.2917  -19.0461 O.2     1  UNL1       -0.2485
     34 O          49.9464   12.8264  -18.2720 O.3     1  UNL1       -0.4790
     35 H          49.3135   13.6018  -18.4126 H       1  UNL1        0.2951
     36 C          51.2405   13.7365  -21.2877 C.3     1  UNL1        0.0292
     37 C          52.1320   14.3079  -20.1755 C.3     1  UNL1        0.0023
     38 C          52.0829   13.4169  -22.5345 C.3     1  UNL1        0.0023
@<TRIPOS>BOND
     1    29    30    1
     2    30    28    1
     3    28    27    1
     4    27    24    1
     5    24    25    2
     6    24    26   am
     7    26    23    1
     8    23     1    1
     9     1     2   ar
    10     2     3   ar
    11     3     4   ar
    12     4     7    1
    13     7     8   ar
    14     8     9   ar
    15     9    19    1
    16    19    20    2
    17    19    21    1
    18     9    10   ar
    19    10    11   ar
    20    11    12   ar
    21    12    13    1
    22    13    14   ar
    23    14    15   ar
    24    15    16   ar
    25    16    17   ar
    26     4     5   ar
    27     5     6   ar
    28    26    31    1
    29    31    32    1
    30    32    33    2
    31    32    34    1
    32    31    36    1
    33    36    37    1
    34    36    38    1
    35     6     1   ar
    36    12     7   ar
    37    17    13   ar
    38    21    22    1
    39    17    18    1
    40    34    35    1
@<TRIPOS>MOLECULE
*****
 38 40 0 0 0
SMALL
GASTEIGER

@<TRIPOS>ATOM
      1 C          48.3158   11.4260  -21.7434 C.ar    1  UNL1       -0.0023
      2 C          48.1356   12.6201  -21.0287 C.ar    1  UNL1       -0.0026
      3 C          48.7333   12.7918  -19.7776 C.ar    1  UNL1       -0.0003
      4 C          49.5319   11.7766  -19.2275 C.ar    1  UNL1        0.0001
      5 C          49.7125   10.5821  -19.9419 C.ar    1  UNL1       -0.0003
      6 C          49.1139   10.4103  -21.1926 C.ar    1  UNL1       -0.0026
      7 C          50.1502   11.9483  -17.8921 C.ar    1  UNL1        0.0032
      8 C          49.4100   11.5579  -16.7620 C.ar    1  UNL1        0.0065
      9 C          49.8964   11.7832  -15.4639 C.ar    1  UNL1        0.0755
     10 C          51.1378   12.4137  -15.3027 C.ar    1  UNL1        0.0065
     11 C          51.8882   12.7960  -16.4151 C.ar    1  UNL1        0.0033
     12 C          51.4213   12.5534  -17.7166 C.ar    1  UNL1        0.0371
     13 C          52.2992   12.9151  -18.8539 C.ar    1  UNL1        0.1806
     14 N          52.0983   13.9756  -19.6592 N.ar    1  UNL1       -0.1084
     15 N          53.1245   13.9694  -20.4986 N.ar    1  UNL1       -0.0229
     16 N          53.9324   12.9583  -20.2175 N.ar    1  UNL1       -0.0464
     17 N          53.4394   12.2882  -19.1921 N.ar    1  UNL1       -0.2388
     18 H          53.8952   11.4677  -18.7364 H       1  UNL1        0.1923
     19 C          49.1076   11.3752  -14.2797 C.2     1  UNL1        0.3380
     20 O          47.9732   11.8809  -14.0623 O.2     1  UNL1       -0.2451
     21 O          49.6115   10.4267  -13.3934 O.3     1  UNL1       -0.4771
     22 H          49.0798   10.1402  -12.5801 H       1  UNL1        0.2954
     23 C          47.6248   11.2200  -23.0659 C.3     1  UNL1        0.1206
     24 C          49.6109   12.1458  -24.2602 C.2     1  UNL1        0.2262
     25 O          50.3418   12.4043  -23.2668 O.2     1  UNL1       -0.2749
     26 N          48.1783   12.1135  -24.0957 N.am    1  UNL1       -0.2673
     27 C          50.2688   11.7495  -25.5512 C.3     1  UNL1        0.0853
     28 C          50.3434   10.2212  -25.6616 C.3     1  UNL1        0.0096
     29 C          50.3919    8.4056  -23.8702 C.3     1  UNL1        0.0000
     30 C          51.1288    9.5854  -24.5045 C.3     1  UNL1        0.0005
     31 C          47.2517   12.9234  -24.9260 C.3     1  UNL1        0.1746
     32 C          47.1338   14.3417  -24.4007 C.2     1  UNL1        0.3320
     33 O          47.1163   15.3051  -25.2118 O.2     1  UNL1       -0.2485
     34 O          46.9185   14.6136  -23.0501 O.3     1  UNL1       -0.4790
     35 H          46.8236   13.8880  -22.3530 H       1  UNL1        0.2951
     36 C          45.8910   12.2071  -25.2158 C.3     1  UNL1        0.0292
     37 C          44.6913   13.0657  -24.7897 C.3     1  UNL1        0.0023
     38 C          45.7099   11.7191  -26.6633 C.3     1  UNL1        0.0023
@<TRIPOS>BOND
     1    29    30    1
     2    30    28    1
     3    28    27    1
     4    27    24    1
     5    24    25    2
     6    24    26   am
     7    26    23    1
     8    23     1    1
     9     1     2   ar
    10     2     3   ar
    11     3     4   ar
    12     4     7    1
    13     7     8   ar
    14     8     9   ar
    15     9    19    1
    16    19    20    2
    17    19    21    1
    18     9    10   ar
    19    10    11   ar
    20    11    12   ar
    21    12    13    1
    22    13    14   ar
    23    14    15   ar
    24    15    16   ar
    25    16    17   ar
    26     4     5   ar
    27     5     6   ar
    28    26    31    1
    29    31    32    1
    30    32    33    2
    31    32    34    1
    32    31    36    1
    33    36    37    1
    34    36    38    1
    35     6     1   ar
    36    12     7   ar
    37    17    13   ar
    38    21    22    1
    39    17    18    1
    40    34    35    1
@<TRIPOS>MOLECULE
*****
 38 40 0 0 0
SMALL
GASTEIGER

@<TRIPOS>ATOM
      1 C          49.4643   15.3241  -24.4031 C.ar    1  UNL1       -0.0023
      2 C          49.0173   16.0217  -23.2705 C.ar    1  UNL1       -0.0026
      3 C          48.6659   15.3307  -22.1082 C.ar    1  UNL1       -0.0003
      4 C          48.7689   13.9315  -22.0560 C.ar    1  UNL1        0.0001
      5 C          49.2159   13.2333  -23.1884 C.ar    1  UNL1       -0.0003
      6 C          49.5663   13.9245  -24.3510 C.ar    1  UNL1       -0.0026
      7 C          48.3776   13.1951  -20.8314 C.ar    1  UNL1        0.0032
      8 C          47.0238   12.8524  -20.6662 C.ar    1  UNL1        0.0065
      9 C          46.5698   12.2415  -19.4859 C.ar    1  UNL1        0.0755
     10 C          47.4876   11.9790  -18.4595 C.ar    1  UNL1        0.0065
     11 C          48.8358   12.3031  -18.6145 C.ar    1  UNL1        0.0033
     12 C          49.3032   12.8920  -19.8000 C.ar    1  UNL1        0.0371
     13 C          50.7576   13.1422  -19.9310 C.ar    1  UNL1        0.1806
     14 N          51.2994   14.3488  -20.1843 N.ar    1  UNL1       -0.1084
     15 N          52.6097   14.1477  -20.1681 N.ar    1  UNL1       -0.0229
     16 N          52.8687   12.8761  -19.9034 N.ar    1  UNL1       -0.0464
     17 N          51.7279   12.2298  -19.7480 N.ar    1  UNL1       -0.2388
     18 H          51.6390   11.2222  -19.4919 H       1  UNL1        0.1923
     19 C          45.1418   11.8904  -19.3175 C.2     1  UNL1        0.3380
     20 O          44.6849   11.6006  -18.1786 O.2     1  UNL1       -0.2451
     21 O          44.2876   11.8774  -20.4172 O.3     1  UNL1       -0.4771
     22 H          43.3086   11.6388  -20.3130 H       1  UNL1        0.2954
     23 C          49.7885   16.0655  -25.6735 C.3     1  UNL1        0.1206
     24 C          47.6925   15.5219  -26.9142 C.2     1  UNL1        0.2262
     25 O          48.1583   14.6989  -27.7471 O.2     1  UNL1       -0.2749
     26 N          48.5621   16.5226  -26.3458 N.am    1  UNL1       -0.2673
     27 C          46.2767   15.3441  -26.4447 C.3     1  UNL1        0.0853
     28 C          45.9766   13.8574  -26.2148 C.3     1  UNL1        0.0096
     29 C          45.5847   12.4879  -24.0984 C.3     1  UNL1        0.0000
     30 C          45.0782   13.6207  -24.9913 C.3     1  UNL1        0.0005
     31 C          48.2627   17.9757  -26.3971 C.3     1  UNL1        0.1746
     32 C          49.3841   18.7487  -27.0651 C.2     1  UNL1        0.3320
     33 O          50.5806   18.4797  -26.7783 O.2     1  UNL1       -0.2485
     34 O          49.1418   19.6692  -28.0842 O.3     1  UNL1       -0.4790
     35 H          48.2150   19.8665  -28.4358 H       1  UNL1        0.2951
     36 C          47.7783   18.5582  -25.0279 C.3     1  UNL1        0.0292
     37 C          47.8714   20.0906  -24.9939 C.3     1  UNL1        0.0023
     38 C          46.3780   18.0995  -24.5864 C.3     1  UNL1        0.0023
@<TRIPOS>BOND
     1    29    30    1
     2    30    28    1
     3    28    27    1
     4    27    24    1
     5    24    25    2
     6    24    26   am
     7    26    23    1
     8    23     1    1
     9     1     2   ar
    10     2     3   ar
    11     3     4   ar
    12     4     7    1
    13     7     8   ar
    14     8     9   ar
    15     9    19    1
    16    19    20    2
    17    19    21    1
    18     9    10   ar
    19    10    11   ar
    20    11    12   ar
    21    12    13    1
    22    13    14   ar
    23    14    15   ar
    24    15    16   ar
    25    16    17   ar
    26     4     5   ar
    27     5     6   ar
    28    26    31    1
    29    31    32    1
    30    32    33    2
    31    32    34    1
    32    31    36    1
    33    36    37    1
    34    36    38    1
    35     6     1   ar
    36    12     7   ar
    37    17    13   ar
    38    21    22    1
    39    17    18    1
    40    34    35    1
@<TRIPOS>MOLECULE
*****
 38 40 0 0 0
SMALL
GASTEIGER

@<TRIPOS>ATOM
      1 C          48.0710   14.3574  -22.4884 C.ar    1  UNL1       -0.0023
      2 C          49.0885   15.1257  -21.9021 C.ar    1  UNL1       -0.0026
      3 C          49.7170   14.6913  -20.7325 C.ar    1  UNL1       -0.0003
      4 C          49.3468   13.4745  -20.1379 C.ar    1  UNL1        0.0001
      5 C          48.3292   12.7057  -20.7238 C.ar    1  UNL1       -0.0003
      6 C          47.7002   13.1408  -21.8931 C.ar    1  UNL1       -0.0026
      7 C          49.9978   13.0216  -18.8865 C.ar    1  UNL1        0.0032
      8 C          49.1931   12.8366  -17.7482 C.ar    1  UNL1        0.0065
      9 C          49.7592   12.5035  -16.5069 C.ar    1  UNL1        0.0755
     10 C          51.1503   12.3618  -16.4100 C.ar    1  UNL1        0.0065
     11 C          51.9599   12.5311  -17.5337 C.ar    1  UNL1        0.0033
     12 C          51.4010   12.8404  -18.7837 C.ar    1  UNL1        0.0371
     13 C          52.3074   12.9327  -19.9520 C.ar    1  UNL1        0.1806
     14 N          51.8910   13.0082  -21.2305 N.ar    1  UNL1       -0.1084
     15 N          52.9998   13.1299  -21.9469 N.ar    1  UNL1       -0.0229
     16 N          54.0555   13.1428  -21.1472 N.ar    1  UNL1       -0.0464
     17 N          53.6475   13.0247  -19.8971 N.ar    1  UNL1       -0.2388
     18 H          54.2683   13.0463  -19.0586 H       1  UNL1        0.1923
     19 C          48.9054   12.3173  -15.3123 C.2     1  UNL1        0.3380
     20 O          48.9648   13.1312  -14.3510 O.2     1  UNL1       -0.2451
     21 O          48.0262   11.2398  -15.2388 O.3     1  UNL1       -0.4771
     22 H          47.4372   11.1032  -14.4259 H       1  UNL1        0.2954
     23 C          47.3555   14.8544  -23.7172 C.3     1  UNL1        0.1206
     24 C          48.8350   13.4135  -25.1182 C.2     1  UNL1        0.2262
     25 O          49.7711   14.2302  -25.3297 O.2     1  UNL1       -0.2749
     26 N          47.5111   13.9118  -24.8363 N.am    1  UNL1       -0.2673
     27 C          49.1643   11.9500  -25.0367 C.3     1  UNL1        0.0853
     28 C          50.4744   11.7430  -24.2661 C.3     1  UNL1        0.0096
     29 C          49.0337    9.9517  -23.1599 C.3     1  UNL1        0.0000
     30 C          50.4493   10.4804  -23.3913 C.3     1  UNL1        0.0005
     31 C          46.3124   13.5023  -25.6105 C.3     1  UNL1        0.1746
     32 C          45.4498   12.5335  -24.8240 C.2     1  UNL1        0.3320
     33 O          45.9954   11.7073  -24.0454 O.2     1  UNL1       -0.2485
     34 O          44.0574   12.6057  -24.8375 O.3     1  UNL1       -0.4790
     35 H          43.5496   13.3046  -25.3621 H       1  UNL1        0.2951
     36 C          46.6409   13.0607  -27.0754 C.3     1  UNL1        0.0292
     37 C          46.1202   11.6478  -27.3764 C.3     1  UNL1        0.0023
     38 C          46.1815   14.0419  -28.1674 C.3     1  UNL1        0.0023
@<TRIPOS>BOND
     1    29    30    1
     2    30    28    1
     3    28    27    1
     4    27    24    1
     5    24    25    2
     6    24    26   am
     7    26    23    1
     8    23     1    1
     9     1     2   ar
    10     2     3   ar
    11     3     4   ar
    12     4     7    1
    13     7     8   ar
    14     8     9   ar
    15     9    19    1
    16    19    20    2
    17    19    21    1
    18     9    10   ar
    19    10    11   ar
    20    11    12   ar
    21    12    13    1
    22    13    14   ar
    23    14    15   ar
    24    15    16   ar
    25    16    17   ar
    26     4     5   ar
    27     5     6   ar
    28    26    31    1
    29    31    32    1
    30    32    33    2
    31    32    34    1
    32    31    36    1
    33    36    37    1
    34    36    38    1
    35     6     1   ar
    36    12     7   ar
    37    17    13   ar
    38    21    22    1
    39    17    18    1
    40    34    35    1
