@<TRIPOS>MOLECULE
*****
 51 56 0 0 0
SMALL
GASTEIGER

@<TRIPOS>ATOM
      1 N           9.9437   76.7099   26.4190 N.am    1  UNL1       -0.2945
      2 C           9.9305   75.6927   25.4054 C.2     1  UNL1        0.2483
      3 O          10.9272   74.9310   25.2728 O.2     1  UNL1       -0.2701
      4 H           9.0300   77.1097   26.7193 H       1  UNL1        0.1501
      5 C           8.7591   75.5400   24.5089 C.ar    1  UNL1        0.0808
      6 C           8.9409   75.4544   23.1171 C.ar    1  UNL1        0.0080
      7 C           7.8457   75.3043   22.2638 C.ar    1  UNL1        0.0148
      8 C           6.5410   75.2332   22.7796 C.ar    1  UNL1        0.0502
      9 C           6.3592   75.3053   24.1721 C.ar    1  UNL1        0.0443
     10 C           7.4538   75.4548   25.0297 C.ar    1  UNL1        0.1457
     11 F           7.2301   75.5344   26.3662 F       1  UNL1       -0.2040
     12 N           5.4092   75.0752   21.8948 N.pl3   1  UNL1       -0.3040
     13 C           4.4457   76.1769   21.7437 C.3     1  UNL1        0.1123
     14 C           3.6018   76.0200   20.4751 C.3     1  UNL1        0.1136
     15 N           3.0175   74.6728   20.4079 N.pl3   1  UNL1       -0.2897
     16 C           3.8123   73.5110   20.8413 C.3     1  UNL1        0.1136
     17 C           5.2856   73.8742   21.0565 C.3     1  UNL1        0.1123
     18 C           1.7235   74.4852   19.7911 C.ar    1  UNL1        0.1318
     19 C           1.0820   75.5291   19.1015 C.ar    1  UNL1        0.0343
     20 C          -0.1673   75.3082   18.5198 C.ar    1  UNL1        0.0083
     21 C          -0.7730   74.0461   18.6023 C.ar    1  UNL1        0.0906
     22 C          -0.1122   73.0360   19.3174 C.ar    1  UNL1        0.1041
     23 N           1.1026   73.2751   19.8777 N.ar    1  UNL1       -0.2292
     24 C          -2.1438   73.8094   18.0215 C.3     1  UNL1        0.4200
     25 F          -2.5196   72.4868   18.1811 F       1  UNL1       -0.1658
     26 F          -2.1255   74.1130   16.6732 F       1  UNL1       -0.1658
     27 F          -3.0850   74.6057   18.6507 F       1  UNL1       -0.1658
     28 C          11.1777   77.1468   27.0831 C.3     1  UNL1        0.1535
     29 C          12.0587   77.9204   26.1307 C.2     1  UNL1        0.2443
     30 O          11.5946   78.9503   25.5709 O.2     1  UNL1       -0.2730
     31 N          13.3746   77.4417   25.7991 N.am    1  UNL1       -0.2825
     32 H          13.6272   76.4655   26.0744 H       1  UNL1        0.1549
     33 C          14.3092   78.1634   24.9817 C.ar    1  UNL1        0.0535
     34 C          14.8421   77.5497   23.8403 C.ar    1  UNL1        0.0353
     35 C          15.7688   78.2388   23.0546 C.ar    1  UNL1        0.1002
     36 N          16.1628   79.4914   23.4058 N.ar    1  UNL1       -0.2422
     37 C          15.6778   80.1048   24.5178 C.ar    1  UNL1        0.1002
     38 C          14.7480   79.4514   25.3305 C.ar    1  UNL1        0.0353
     39 C          10.8764   77.9653   28.3612 C.3     1  UNL1        0.0569
     40 C           5.8434   76.6384   29.5714 C.ar    1  UNL1       -0.0208
     41 C           7.0053   75.8511   29.7719 C.ar    1  UNL1       -0.0042
     42 C           8.2776   76.3555   29.4521 C.ar    1  UNL1        0.0008
     43 C           8.3562   77.6416   28.9170 C.ar    1  UNL1        0.0131
     44 C           9.4343   78.3894   28.4771 C.ar    1  UNL1       -0.0017
     45 C           8.8981   79.6042   28.0562 C.ar    1  UNL1        0.0681
     46 N           7.5553   79.6085   28.2095 N.ar    1  UNL1       -0.3523
     47 C           7.2369   78.4113   28.7301 C.ar    1  UNL1        0.0560
     48 C           5.9619   77.9405   29.0376 C.ar    1  UNL1        0.0127
     49 H           6.9003   80.3814   27.9565 H       1  UNL1        0.1660
     50 C           3.5868   77.1148   30.5130 C.3     1  UNL1        0.0050
     51 C           4.4843   76.0650   29.8658 C.3     1  UNL1        0.0264
@<TRIPOS>BOND
     1    50    51    1
     2    51    40    1
     3    40    41   ar
     4    41    42   ar
     5    42    43   ar
     6    43    44   ar
     7    44    39    1
     8    39    28    1
     9    28     1    1
    10     1     2   am
    11     2     3    2
    12     2     5    1
    13     5     6   ar
    14     6     7   ar
    15     7     8   ar
    16     8    12    1
    17    12    13    1
    18    13    14    1
    19    14    15    1
    20    15    18    1
    21    18    19   ar
    22    19    20   ar
    23    20    21   ar
    24    21    24    1
    25    24    25    1
    26    24    26    1
    27    24    27    1
    28    21    22   ar
    29    22    23   ar
    30    15    16    1
    31    16    17    1
    32     8     9   ar
    33     9    10   ar
    34    10    11    1
    35    28    29    1
    36    29    30    2
    37    29    31   am
    38    31    33    1
    39    33    34   ar
    40    34    35   ar
    41    35    36   ar
    42    36    37   ar
    43    37    38   ar
    44    44    45   ar
    45    45    46   ar
    46    46    47   ar
    47    47    48   ar
    48    48    40   ar
    49    47    43   ar
    50    10     5   ar
    51    38    33   ar
    52    17    12    1
    53    23    18   ar
    54     1     4    1
    55    31    32    1
    56    46    49    1
@<TRIPOS>MOLECULE
*****
 51 56 0 0 0
SMALL
GASTEIGER

@<TRIPOS>ATOM
      1 N           8.1117   74.8957   24.5298 N.am    1  UNL1       -0.2945
      2 C           8.7933   75.4651   25.6584 C.2     1  UNL1        0.2483
      3 O           8.7369   74.8869   26.7781 O.2     1  UNL1       -0.2701
      4 H           8.4122   75.1944   23.5784 H       1  UNL1        0.1501
      5 C           9.5522   76.7314   25.5177 C.ar    1  UNL1        0.0808
      6 C          10.8127   76.8709   26.1253 C.ar    1  UNL1        0.0080
      7 C          11.5390   78.0565   25.9944 C.ar    1  UNL1        0.0148
      8 C          11.0256   79.1319   25.2506 C.ar    1  UNL1        0.0502
      9 C           9.7712   78.9885   24.6315 C.ar    1  UNL1        0.0443
     10 C           9.0415   77.8024   24.7598 C.ar    1  UNL1        0.1457
     11 F           7.8285   77.7135   24.1569 F       1  UNL1       -0.2040
     12 N          11.7801   80.3569   25.1142 N.pl3   1  UNL1       -0.3040
     13 C          11.0771   81.6134   24.8112 C.3     1  UNL1        0.1123
     14 C          11.9371   82.8367   25.1428 C.3     1  UNL1        0.1136
     15 N          13.2694   82.7105   24.5347 N.pl3   1  UNL1       -0.2897
     16 C          13.9381   81.3984   24.5098 C.3     1  UNL1        0.1136
     17 C          13.2222   80.3748   25.3979 C.3     1  UNL1        0.1123
     18 C          13.9677   83.8962   24.0912 C.ar    1  UNL1        0.1318
     19 C          13.9988   85.0641   24.8734 C.ar    1  UNL1        0.0343
     20 C          14.6837   86.1884   24.4100 C.ar    1  UNL1        0.0083
     21 C          15.3567   86.1500   23.1803 C.ar    1  UNL1        0.0906
     22 C          15.2843   84.9742   22.4183 C.ar    1  UNL1        0.1041
     23 N          14.6093   83.8926   22.8888 N.ar    1  UNL1       -0.2292
     24 C          16.0574   87.3732   22.6463 C.3     1  UNL1        0.4200
     25 F          15.2052   88.4639   22.6491 F       1  UNL1       -0.1658
     26 F          16.4739   87.1301   21.3509 F       1  UNL1       -0.1658
     27 F          17.1597   87.6832   23.4241 F       1  UNL1       -0.1658
     28 C           7.0697   73.8715   24.6711 C.3     1  UNL1        0.1535
     29 C           6.2037   74.1451   25.8780 C.2     1  UNL1        0.2443
     30 O           5.4309   75.1413   25.8609 O.2     1  UNL1       -0.2730
     31 N           6.3220   73.3357   27.0618 N.am    1  UNL1       -0.2825
     32 H           7.1408   72.6904   27.1372 H       1  UNL1        0.1549
     33 C           5.4725   73.4666   28.2123 C.ar    1  UNL1        0.0535
     34 C           4.4643   72.5192   28.4347 C.ar    1  UNL1        0.0353
     35 C           3.6207   72.6547   29.5397 C.ar    1  UNL1        0.1002
     36 N           3.7679   73.7094   30.3845 N.ar    1  UNL1       -0.2422
     37 C           4.7242   74.6544   30.1838 C.ar    1  UNL1        0.1002
     38 C           5.5898   74.5559   29.0915 C.ar    1  UNL1        0.0353
     39 C           6.2186   73.7452   23.3851 C.3     1  UNL1        0.0569
     40 C           3.3696   78.0745   22.0824 C.ar    1  UNL1       -0.0208
     41 C           3.0589   77.1171   23.0807 C.ar    1  UNL1       -0.0042
     42 C           3.9351   76.0517   23.3505 C.ar    1  UNL1        0.0008
     43 C           5.1043   75.9587   22.5950 C.ar    1  UNL1        0.0131
     44 C           6.1275   75.0270   22.5965 C.ar    1  UNL1       -0.0017
     45 C           7.0297   75.4629   21.6289 C.ar    1  UNL1        0.0681
     46 N           6.5857   76.5970   21.0429 N.ar    1  UNL1       -0.3523
     47 C           5.4148   76.8872   21.6350 C.ar    1  UNL1        0.0560
     48 C           4.5677   77.9548   21.3444 C.ar    1  UNL1        0.0127
     49 H           7.0528   77.1267   20.2737 H       1  UNL1        0.1660
     50 C           0.9766   78.7643   22.1408 C.3     1  UNL1        0.0050
     51 C           2.3964   79.1770   21.7664 C.3     1  UNL1        0.0264
@<TRIPOS>BOND
     1    50    51    1
     2    51    40    1
     3    40    41   ar
     4    41    42   ar
     5    42    43   ar
     6    43    44   ar
     7    44    39    1
     8    39    28    1
     9    28     1    1
    10     1     2   am
    11     2     3    2
    12     2     5    1
    13     5     6   ar
    14     6     7   ar
    15     7     8   ar
    16     8    12    1
    17    12    13    1
    18    13    14    1
    19    14    15    1
    20    15    18    1
    21    18    19   ar
    22    19    20   ar
    23    20    21   ar
    24    21    24    1
    25    24    25    1
    26    24    26    1
    27    24    27    1
    28    21    22   ar
    29    22    23   ar
    30    15    16    1
    31    16    17    1
    32     8     9   ar
    33     9    10   ar
    34    10    11    1
    35    28    29    1
    36    29    30    2
    37    29    31   am
    38    31    33    1
    39    33    34   ar
    40    34    35   ar
    41    35    36   ar
    42    36    37   ar
    43    37    38   ar
    44    44    45   ar
    45    45    46   ar
    46    46    47   ar
    47    47    48   ar
    48    48    40   ar
    49    47    43   ar
    50    10     5   ar
    51    38    33   ar
    52    17    12    1
    53    23    18   ar
    54     1     4    1
    55    31    32    1
    56    46    49    1
@<TRIPOS>MOLECULE
*****
 51 56 0 0 0
SMALL
GASTEIGER

@<TRIPOS>ATOM
      1 N           7.6948   75.4801   25.4486 N.am    1  UNL1       -0.2945
      2 C           9.0822   75.5056   25.0787 C.2     1  UNL1        0.2483
      3 O           9.6756   74.4260   24.8078 O.2     1  UNL1       -0.2701
      4 H           7.1525   76.3654   25.3650 H       1  UNL1        0.1501
      5 C           9.8220   76.7897   25.0239 C.ar    1  UNL1        0.0808
      6 C          10.9926   76.9637   25.7834 C.ar    1  UNL1        0.0080
      7 C          11.7008   78.1663   25.7348 C.ar    1  UNL1        0.0148
      8 C          11.2589   79.2249   24.9240 C.ar    1  UNL1        0.0502
      9 C          10.0959   79.0472   24.1539 C.ar    1  UNL1        0.0443
     10 C           9.3846   77.8439   24.1994 C.ar    1  UNL1        0.1457
     11 F           8.2593   77.7218   23.4502 F       1  UNL1       -0.2040
     12 N          11.9949   80.4676   24.8733 N.pl3   1  UNL1       -0.3040
     13 C          11.2719   81.7323   24.6663 C.3     1  UNL1        0.1123
     14 C          12.1162   82.9408   25.0817 C.3     1  UNL1        0.1136
     15 N          13.4464   82.8789   24.4590 N.pl3   1  UNL1       -0.2897
     16 C          14.1337   81.5822   24.3351 C.3     1  UNL1        0.1136
     17 C          13.4383   80.4862   25.1500 C.3     1  UNL1        0.1123
     18 C          14.1247   84.1040   24.0994 C.ar    1  UNL1        0.1318
     19 C          14.1347   85.2159   24.9598 C.ar    1  UNL1        0.0343
     20 C          14.8007   86.3809   24.5761 C.ar    1  UNL1        0.0083
     21 C          15.4759   86.4383   23.3483 C.ar    1  UNL1        0.0906
     22 C          15.4248   85.3164   22.5075 C.ar    1  UNL1        0.1041
     23 N          14.7679   84.1937   22.9012 N.ar    1  UNL1       -0.2292
     24 C          16.1561   87.7070   22.9011 C.3     1  UNL1        0.4200
     25 F          16.8901   87.4869   21.7484 F       1  UNL1       -0.1658
     26 F          17.0058   88.1443   23.8997 F       1  UNL1       -0.1658
     27 F          15.2229   88.6948   22.6379 F       1  UNL1       -0.1658
     28 C           7.0118   74.2502   25.8675 C.3     1  UNL1        0.1535
     29 C           6.2327   74.4726   27.1423 C.2     1  UNL1        0.2443
     30 O           5.6400   73.4945   27.6732 O.2     1  UNL1       -0.2730
     31 N           6.0948   75.7943   27.6942 N.am    1  UNL1       -0.2825
     32 H           6.3752   76.6075   27.1003 H       1  UNL1        0.1549
     33 C           5.4557   76.0781   28.9486 C.ar    1  UNL1        0.0535
     34 C           4.1988   76.6974   28.9559 C.ar    1  UNL1        0.0353
     35 C           3.5831   76.9963   30.1735 C.ar    1  UNL1        0.1002
     36 N           4.2085   76.7021   31.3440 N.ar    1  UNL1       -0.2422
     37 C           5.4362   76.1189   31.3684 C.ar    1  UNL1        0.1002
     38 C           6.0864   75.8020   30.1730 C.ar    1  UNL1        0.0353
     39 C           6.1053   73.6924   24.7444 C.3     1  UNL1        0.0569
     40 C           3.3392   77.8828   22.9153 C.ar    1  UNL1       -0.0208
     41 C           3.3017   77.3414   24.2250 C.ar    1  UNL1       -0.0042
     42 C           4.1302   76.2628   24.5795 C.ar    1  UNL1        0.0008
     43 C           4.9718   75.7347   23.6001 C.ar    1  UNL1        0.0131
     44 C           5.8603   74.6742   23.6267 C.ar    1  UNL1       -0.0017
     45 C           6.4228   74.6273   22.3532 C.ar    1  UNL1        0.0681
     46 N           5.9013   75.5962   21.5684 N.ar    1  UNL1       -0.3523
     47 C           5.0196   76.2605   22.3346 C.ar    1  UNL1        0.0560
     48 C           4.2117   77.3296   21.9524 C.ar    1  UNL1        0.0127
     49 H           6.1278   75.7766   20.5651 H       1  UNL1        0.1660
     50 C           1.0204   78.4557   22.2077 C.3     1  UNL1        0.0050
     51 C           2.4071   79.0003   22.5345 C.3     1  UNL1        0.0264
@<TRIPOS>BOND
     1    50    51    1
     2    51    40    1
     3    40    41   ar
     4    41    42   ar
     5    42    43   ar
     6    43    44   ar
     7    44    39    1
     8    39    28    1
     9    28     1    1
    10     1     2   am
    11     2     3    2
    12     2     5    1
    13     5     6   ar
    14     6     7   ar
    15     7     8   ar
    16     8    12    1
    17    12    13    1
    18    13    14    1
    19    14    15    1
    20    15    18    1
    21    18    19   ar
    22    19    20   ar
    23    20    21   ar
    24    21    24    1
    25    24    25    1
    26    24    26    1
    27    24    27    1
    28    21    22   ar
    29    22    23   ar
    30    15    16    1
    31    16    17    1
    32     8     9   ar
    33     9    10   ar
    34    10    11    1
    35    28    29    1
    36    29    30    2
    37    29    31   am
    38    31    33    1
    39    33    34   ar
    40    34    35   ar
    41    35    36   ar
    42    36    37   ar
    43    37    38   ar
    44    44    45   ar
    45    45    46   ar
    46    46    47   ar
    47    47    48   ar
    48    48    40   ar
    49    47    43   ar
    50    10     5   ar
    51    38    33   ar
    52    17    12    1
    53    23    18   ar
    54     1     4    1
    55    31    32    1
    56    46    49    1
@<TRIPOS>MOLECULE
*****
 51 56 0 0 0
SMALL
GASTEIGER

@<TRIPOS>ATOM
      1 N           9.9996   75.3679   26.5045 N.am    1  UNL1       -0.2945
      2 C          10.1226   75.1580   25.0891 C.2     1  UNL1        0.2483
      3 O          11.2677   75.0432   24.5726 O.2     1  UNL1       -0.2701
      4 H           9.0832   75.1530   26.9505 H       1  UNL1        0.1501
      5 C           8.9144   75.0865   24.2320 C.ar    1  UNL1        0.0808
      6 C           9.0109   75.3406   22.8523 C.ar    1  UNL1        0.0080
      7 C           7.8811   75.2700   22.0346 C.ar    1  UNL1        0.0148
      8 C           6.6265   74.9410   22.5741 C.ar    1  UNL1        0.0502
      9 C           6.5315   74.6736   23.9513 C.ar    1  UNL1        0.0443
     10 C           7.6610   74.7425   24.7732 C.ar    1  UNL1        0.1457
     11 F           7.5199   74.4906   26.0995 F       1  UNL1       -0.2040
     12 N           5.4591   74.8659   21.7255 N.pl3   1  UNL1       -0.3040
     13 C           4.4905   75.9735   21.7226 C.3     1  UNL1        0.1123
     14 C           3.5948   75.9381   20.4806 C.3     1  UNL1        0.1136
     15 N           3.0078   74.6017   20.3062 N.pl3   1  UNL1       -0.2897
     16 C           3.8195   73.4062   20.5909 C.3     1  UNL1        0.1136
     17 C           5.3005   73.7521   20.7797 C.3     1  UNL1        0.1123
     18 C           1.6893   74.4704   19.7278 C.ar    1  UNL1        0.1318
     19 C           1.0479   75.5589   19.1109 C.ar    1  UNL1        0.0343
     20 C          -0.2255   75.3917   18.5644 C.ar    1  UNL1        0.0083
     21 C          -0.8561   74.1399   18.6096 C.ar    1  UNL1        0.0906
     22 C          -0.1937   73.0837   19.2529 C.ar    1  UNL1        0.1041
     23 N           1.0449   73.2707   19.7801 N.ar    1  UNL1       -0.2292
     24 C          -2.2511   73.9594   18.0676 C.3     1  UNL1        0.4200
     25 F          -3.1291   74.8388   18.6775 F       1  UNL1       -0.1658
     26 F          -2.6695   72.6645   18.3099 F       1  UNL1       -0.1658
     27 F          -2.2796   74.1953   16.7040 F       1  UNL1       -0.1658
     28 C          11.1262   75.8022   27.3392 C.3     1  UNL1        0.1535
     29 C          11.5531   77.2064   26.9819 C.2     1  UNL1        0.2443
     30 O          11.2486   78.1524   27.7579 O.2     1  UNL1       -0.2730
     31 N          12.2185   77.4735   25.7343 N.am    1  UNL1       -0.2825
     32 H          12.2253   76.7210   25.0090 H       1  UNL1        0.1549
     33 C          12.7418   78.7582   25.3623 C.ar    1  UNL1        0.0535
     34 C          14.1292   78.9460   25.3063 C.ar    1  UNL1        0.0353
     35 C          14.6434   80.1997   24.9673 C.ar    1  UNL1        0.1002
     36 N          13.8011   81.2350   24.7093 N.ar    1  UNL1       -0.2422
     37 C          12.4513   81.0879   24.7745 C.ar    1  UNL1        0.1002
     38 C          11.8956   79.8503   25.1086 C.ar    1  UNL1        0.0353
     39 C          10.7974   75.6806   28.8462 C.3     1  UNL1        0.0569
     40 C           5.5366   76.6064   28.9990 C.ar    1  UNL1       -0.0208
     41 C           6.5407   77.4701   28.4933 C.ar    1  UNL1       -0.0042
     42 C           7.8873   77.0680   28.4692 C.ar    1  UNL1        0.0008
     43 C           8.2025   75.8059   28.9734 C.ar    1  UNL1        0.0131
     44 C           9.4125   75.1503   29.1181 C.ar    1  UNL1       -0.0017
     45 C           9.1010   73.9117   29.6742 C.ar    1  UNL1        0.0681
     46 N           7.7695   73.8060   29.8810 N.ar    1  UNL1       -0.3523
     47 C           7.2344   74.9625   29.4547 C.ar    1  UNL1        0.0560
     48 C           5.8911   75.3312   29.4915 C.ar    1  UNL1        0.0127
     49 H           7.2656   72.9947   30.3034 H       1  UNL1        0.1660
     50 C           3.5827   76.9784   30.4989 C.3     1  UNL1        0.0050
     51 C           4.1080   77.0717   29.0700 C.3     1  UNL1        0.0264
@<TRIPOS>BOND
     1    50    51    1
     2    51    40    1
     3    40    41   ar
     4    41    42   ar
     5    42    43   ar
     6    43    44   ar
     7    44    39    1
     8    39    28    1
     9    28     1    1
    10     1     2   am
    11     2     3    2
    12     2     5    1
    13     5     6   ar
    14     6     7   ar
    15     7     8   ar
    16     8    12    1
    17    12    13    1
    18    13    14    1
    19    14    15    1
    20    15    18    1
    21    18    19   ar
    22    19    20   ar
    23    20    21   ar
    24    21    24    1
    25    24    25    1
    26    24    26    1
    27    24    27    1
    28    21    22   ar
    29    22    23   ar
    30    15    16    1
    31    16    17    1
    32     8     9   ar
    33     9    10   ar
    34    10    11    1
    35    28    29    1
    36    29    30    2
    37    29    31   am
    38    31    33    1
    39    33    34   ar
    40    34    35   ar
    41    35    36   ar
    42    36    37   ar
    43    37    38   ar
    44    44    45   ar
    45    45    46   ar
    46    46    47   ar
    47    47    48   ar
    48    48    40   ar
    49    47    43   ar
    50    10     5   ar
    51    38    33   ar
    52    17    12    1
    53    23    18   ar
    54     1     4    1
    55    31    32    1
    56    46    49    1
@<TRIPOS>MOLECULE
*****
 51 56 0 0 0
SMALL
GASTEIGER

@<TRIPOS>ATOM
      1 N           8.1058   74.8918   24.5179 N.am    1  UNL1       -0.2945
      2 C           8.7988   75.4514   25.6444 C.2     1  UNL1        0.2483
      3 O           8.7562   74.8618   26.7588 O.2     1  UNL1       -0.2701
      4 H           8.3949   75.2008   23.5662 H       1  UNL1        0.1501
      5 C           9.5533   76.7207   25.5081 C.ar    1  UNL1        0.0808
      6 C          10.8894   76.7984   25.9397 C.ar    1  UNL1        0.0080
      7 C          11.6115   77.9867   25.8105 C.ar    1  UNL1        0.0148
      8 C          11.0179   79.1270   25.2442 C.ar    1  UNL1        0.0502
      9 C           9.6862   79.0464   24.8000 C.ar    1  UNL1        0.0443
     10 C           8.9602   77.8578   24.9270 C.ar    1  UNL1        0.1457
     11 F           7.6728   77.8299   24.4977 F       1  UNL1       -0.2040
     12 N          11.7679   80.3549   25.1091 N.pl3   1  UNL1       -0.3040
     13 C          11.0629   81.6051   24.7854 C.3     1  UNL1        0.1123
     14 C          11.9114   82.8357   25.1198 C.3     1  UNL1        0.1136
     15 N          13.2533   82.7116   24.5326 N.pl3   1  UNL1       -0.2897
     16 C          13.9292   81.4031   24.5284 C.3     1  UNL1        0.1136
     17 C          13.2055   80.3828   25.4141 C.3     1  UNL1        0.1123
     18 C          13.9519   83.8975   24.0899 C.ar    1  UNL1        0.1318
     19 C          13.9636   85.0724   24.8621 C.ar    1  UNL1        0.0343
     20 C          14.6495   86.1966   24.3998 C.ar    1  UNL1        0.0083
     21 C          15.3426   86.1513   23.1816 C.ar    1  UNL1        0.0906
     22 C          15.2894   84.9684   22.4291 C.ar    1  UNL1        0.1041
     23 N          14.6130   83.8871   22.8982 N.ar    1  UNL1       -0.2292
     24 C          16.0449   87.3738   22.6481 C.3     1  UNL1        0.4200
     25 F          16.3013   87.2376   21.2947 F       1  UNL1       -0.1658
     26 F          17.2419   87.5401   23.3189 F       1  UNL1       -0.1658
     27 F          15.2652   88.5030   22.8295 F       1  UNL1       -0.1658
     28 C           7.0677   73.8639   24.6605 C.3     1  UNL1        0.1535
     29 C           6.1836   74.1507   25.8512 C.2     1  UNL1        0.2443
     30 O           5.4210   75.1541   25.8168 O.2     1  UNL1       -0.2730
     31 N           6.2736   73.3449   27.0400 N.am    1  UNL1       -0.2825
     32 H           7.0847   72.6921   27.1320 H       1  UNL1        0.1549
     33 C           5.4057   73.4887   28.1751 C.ar    1  UNL1        0.0535
     34 C           4.4695   72.4849   28.4570 C.ar    1  UNL1        0.0353
     35 C           3.6076   72.6305   29.5465 C.ar    1  UNL1        0.1002
     36 N           3.6670   73.7480   30.3181 N.ar    1  UNL1       -0.2422
     37 C           4.5514   74.7469   30.0578 C.ar    1  UNL1        0.1002
     38 C           5.4324   74.6406   28.9786 C.ar    1  UNL1        0.0353
     39 C           6.2350   73.7132   23.3651 C.3     1  UNL1        0.0569
     40 C           7.4613   78.2405   20.8045 C.ar    1  UNL1       -0.0208
     41 C           8.3075   77.1224   21.0140 C.ar    1  UNL1       -0.0042
     42 C           7.8281   75.9715   21.6629 C.ar    1  UNL1        0.0008
     43 C           6.5056   75.9737   22.1072 C.ar    1  UNL1        0.0131
     44 C           5.7662   75.0282   22.7958 C.ar    1  UNL1       -0.0017
     45 C           4.5002   75.5876   22.9532 C.ar    1  UNL1        0.0681
     46 N           4.4563   76.8230   22.4068 N.ar    1  UNL1       -0.3523
     47 C           5.6797   77.0482   21.8987 C.ar    1  UNL1        0.0560
     48 C           6.1245   78.2032   21.2584 C.ar    1  UNL1        0.0127
     49 H           3.6398   77.4739   22.3994 H       1  UNL1        0.1660
     50 C           7.6340   79.5291   18.6796 C.3     1  UNL1        0.0050
     51 C           8.0038   79.4859   20.1587 C.3     1  UNL1        0.0264
@<TRIPOS>BOND
     1    50    51    1
     2    51    40    1
     3    40    41   ar
     4    41    42   ar
     5    42    43   ar
     6    43    44   ar
     7    44    39    1
     8    39    28    1
     9    28     1    1
    10     1     2   am
    11     2     3    2
    12     2     5    1
    13     5     6   ar
    14     6     7   ar
    15     7     8   ar
    16     8    12    1
    17    12    13    1
    18    13    14    1
    19    14    15    1
    20    15    18    1
    21    18    19   ar
    22    19    20   ar
    23    20    21   ar
    24    21    24    1
    25    24    25    1
    26    24    26    1
    27    24    27    1
    28    21    22   ar
    29    22    23   ar
    30    15    16    1
    31    16    17    1
    32     8     9   ar
    33     9    10   ar
    34    10    11    1
    35    28    29    1
    36    29    30    2
    37    29    31   am
    38    31    33    1
    39    33    34   ar
    40    34    35   ar
    41    35    36   ar
    42    36    37   ar
    43    37    38   ar
    44    44    45   ar
    45    45    46   ar
    46    46    47   ar
    47    47    48   ar
    48    48    40   ar
    49    47    43   ar
    50    10     5   ar
    51    38    33   ar
    52    17    12    1
    53    23    18   ar
    54     1     4    1
    55    31    32    1
    56    46    49    1
@<TRIPOS>MOLECULE
*****
 51 56 0 0 0
SMALL
GASTEIGER

@<TRIPOS>ATOM
      1 N           9.0606   74.7255   23.9567 N.am    1  UNL1       -0.2945
      2 C           9.1776   75.5487   25.1276 C.2     1  UNL1        0.2483
      3 O           8.6421   75.1770   26.2076 O.2     1  UNL1       -0.2701
      4 H           9.7441   74.8764   23.1854 H       1  UNL1        0.1501
      5 C           9.9134   76.8351   25.0717 C.ar    1  UNL1        0.0808
      6 C          11.2833   76.8797   25.3864 C.ar    1  UNL1        0.0080
      7 C          11.9876   78.0843   25.3311 C.ar    1  UNL1        0.0148
      8 C          11.3419   79.2745   24.9573 C.ar    1  UNL1        0.0502
      9 C           9.9752   79.2285   24.6296 C.ar    1  UNL1        0.0443
     10 C           9.2668   78.0238   24.6830 C.ar    1  UNL1        0.1457
     11 F           7.9455   78.0289   24.3720 F       1  UNL1       -0.2040
     12 N          12.0734   80.5195   24.8982 N.pl3   1  UNL1       -0.3040
     13 C          11.3499   81.7764   24.6500 C.3     1  UNL1        0.1123
     14 C          12.1795   82.9969   25.0600 C.3     1  UNL1        0.1136
     15 N          13.5235   82.9289   24.4684 N.pl3   1  UNL1       -0.2897
     16 C          14.2190   81.6333   24.3857 C.3     1  UNL1        0.1136
     17 C          13.5102   80.5504   25.2065 C.3     1  UNL1        0.1123
     18 C          14.2044   84.1498   24.0997 C.ar    1  UNL1        0.1318
     19 C          14.2085   85.2715   24.9474 C.ar    1  UNL1        0.0343
     20 C          14.8772   86.4321   24.5552 C.ar    1  UNL1        0.0083
     21 C          15.5610   86.4754   23.3316 C.ar    1  UNL1        0.0906
     22 C          15.5158   85.3440   22.5032 C.ar    1  UNL1        0.1041
     23 N          14.8560   84.2259   22.9051 N.ar    1  UNL1       -0.2292
     24 C          16.2445   87.7390   22.8747 C.3     1  UNL1        0.4200
     25 F          15.4637   88.8461   23.1588 F       1  UNL1       -0.1658
     26 F          16.4553   87.6745   21.5102 F       1  UNL1       -0.1658
     27 F          17.4630   87.8933   23.5129 F       1  UNL1       -0.1658
     28 C           8.0682   73.6499   23.8436 C.3     1  UNL1        0.1535
     29 C           6.7268   74.0944   24.3772 C.2     1  UNL1        0.2443
     30 O           5.9568   73.2342   24.8840 O.2     1  UNL1       -0.2730
     31 N           6.2971   75.4597   24.2302 N.am    1  UNL1       -0.2825
     32 H           6.8389   76.0797   23.5862 H       1  UNL1        0.1549
     33 C           5.0842   75.9848   24.7920 C.ar    1  UNL1        0.0535
     34 C           3.9906   76.2379   23.9534 C.ar    1  UNL1        0.0353
     35 C           2.8163   76.7699   24.4911 C.ar    1  UNL1        0.1002
     36 N           2.7423   77.0553   25.8181 N.ar    1  UNL1       -0.2422
     37 C           3.7932   76.8384   26.6527 C.ar    1  UNL1        0.1002
     38 C           4.9857   76.3062   26.1559 C.ar    1  UNL1        0.0353
     39 C           7.9522   73.1339   22.3896 C.3     1  UNL1        0.0569
     40 C           7.1421   77.9928   20.3181 C.ar    1  UNL1       -0.0208
     41 C           8.2599   77.5645   21.0777 C.ar    1  UNL1       -0.0042
     42 C           8.3625   76.2325   21.5145 C.ar    1  UNL1        0.0008
     43 C           7.3253   75.3566   21.1930 C.ar    1  UNL1        0.0131
     44 C           7.1199   74.0232   21.5010 C.ar    1  UNL1       -0.0017
     45 C           5.9107   73.6836   20.8986 C.ar    1  UNL1        0.0681
     46 N           5.3811   74.7520   20.2625 N.ar    1  UNL1       -0.3523
     47 C           6.2466   75.7627   20.4501 C.ar    1  UNL1        0.0560
     48 C           6.1159   77.0756   20.0019 C.ar    1  UNL1        0.0127
     49 H           4.4740   74.7851   19.7464 H       1  UNL1        0.1660
     50 C           7.6241   79.6506   18.5222 C.3     1  UNL1        0.0050
     51 C           7.0189   79.4339   19.9053 C.3     1  UNL1        0.0264
@<TRIPOS>BOND
     1    50    51    1
     2    51    40    1
     3    40    41   ar
     4    41    42   ar
     5    42    43   ar
     6    43    44   ar
     7    44    39    1
     8    39    28    1
     9    28     1    1
    10     1     2   am
    11     2     3    2
    12     2     5    1
    13     5     6   ar
    14     6     7   ar
    15     7     8   ar
    16     8    12    1
    17    12    13    1
    18    13    14    1
    19    14    15    1
    20    15    18    1
    21    18    19   ar
    22    19    20   ar
    23    20    21   ar
    24    21    24    1
    25    24    25    1
    26    24    26    1
    27    24    27    1
    28    21    22   ar
    29    22    23   ar
    30    15    16    1
    31    16    17    1
    32     8     9   ar
    33     9    10   ar
    34    10    11    1
    35    28    29    1
    36    29    30    2
    37    29    31   am
    38    31    33    1
    39    33    34   ar
    40    34    35   ar
    41    35    36   ar
    42    36    37   ar
    43    37    38   ar
    44    44    45   ar
    45    45    46   ar
    46    46    47   ar
    47    47    48   ar
    48    48    40   ar
    49    47    43   ar
    50    10     5   ar
    51    38    33   ar
    52    17    12    1
    53    23    18   ar
    54     1     4    1
    55    31    32    1
    56    46    49    1
@<TRIPOS>MOLECULE
*****
 51 56 0 0 0
SMALL
GASTEIGER

@<TRIPOS>ATOM
      1 N          12.9127   84.3578   24.6791 N.am    1  UNL1       -0.2945
      2 C          13.3969   83.0167   24.5075 C.2     1  UNL1        0.2483
      3 O          14.5405   82.8251   24.0109 O.2     1  UNL1       -0.2701
      4 H          12.1338   84.5115   25.3533 H       1  UNL1        0.1501
      5 C          12.5578   81.8586   24.9000 C.ar    1  UNL1        0.0808
      6 C          11.1855   82.0336   25.1524 C.ar    1  UNL1        0.0080
      7 C          10.3845   80.9493   25.5165 C.ar    1  UNL1        0.0148
      8 C          10.9336   79.6617   25.6351 C.ar    1  UNL1        0.0502
      9 C          12.3030   79.4833   25.3699 C.ar    1  UNL1        0.0443
     10 C          13.1080   80.5669   25.0042 C.ar    1  UNL1        0.1457
     11 F          14.4278   80.3507   24.7716 F       1  UNL1       -0.2040
     12 N          10.1022   78.5405   26.0095 N.pl3   1  UNL1       -0.3040
     13 C           8.8101   78.3370   25.3358 C.3     1  UNL1        0.1123
     14 C           8.2942   76.9070   25.5222 C.3     1  UNL1        0.1136
     15 N           8.3174   76.5317   26.9433 N.pl3   1  UNL1       -0.2897
     16 C           9.4401   76.9634   27.7931 C.3     1  UNL1        0.1136
     17 C          10.5949   77.5391   26.9660 C.3     1  UNL1        0.1123
     18 C           7.3123   75.6304   27.4608 C.ar    1  UNL1        0.1318
     19 C           6.7175   74.6506   26.6466 C.ar    1  UNL1        0.0343
     20 C           5.7505   73.7994   27.1837 C.ar    1  UNL1        0.0083
     21 C           5.3870   73.9041   28.5341 C.ar    1  UNL1        0.0906
     22 C           5.9865   74.9084   29.3088 C.ar    1  UNL1        0.1041
     23 N           6.9240   75.7274   28.7635 N.ar    1  UNL1       -0.2292
     24 C           4.3084   73.0242   29.1126 C.3     1  UNL1        0.4200
     25 F           4.5159   71.7020   28.7597 F       1  UNL1       -0.1658
     26 F           3.0797   73.4323   28.6286 F       1  UNL1       -0.1658
     27 F           4.2994   73.1072   30.4943 F       1  UNL1       -0.1658
     28 C          13.5171   85.5088   23.9975 C.3     1  UNL1        0.1535
     29 C          14.4480   86.2565   24.9226 C.2     1  UNL1        0.2443
     30 O          14.3992   86.0184   26.1598 O.2     1  UNL1       -0.2730
     31 N          15.3138   87.2867   24.4130 N.am    1  UNL1       -0.2825
     32 H          15.1473   87.6336   23.4412 H       1  UNL1        0.1549
     33 C          16.2944   87.9757   25.2044 C.ar    1  UNL1        0.0535
     34 C          17.6119   88.0717   24.7370 C.ar    1  UNL1        0.0353
     35 C          18.5746   88.7209   25.5134 C.ar    1  UNL1        0.1002
     36 N          18.2372   89.2418   26.7228 N.ar    1  UNL1       -0.2422
     37 C          16.9720   89.1472   27.2108 C.ar    1  UNL1        0.1002
     38 C          15.9784   88.5072   26.4657 C.ar    1  UNL1        0.0353
     39 C          14.2385   85.0845   22.6962 C.3     1  UNL1        0.0569
     40 C          14.4996   85.7494   17.4003 C.ar    1  UNL1       -0.0208
     41 C          15.0830   84.7033   18.1589 C.ar    1  UNL1       -0.0042
     42 C          14.8842   84.6277   19.5482 C.ar    1  UNL1        0.0008
     43 C          14.1137   85.6204   20.1541 C.ar    1  UNL1        0.0131
     44 C          13.7723   85.8392   21.4771 C.ar    1  UNL1       -0.0017
     45 C          12.9768   86.9827   21.4725 C.ar    1  UNL1        0.0681
     46 N          12.8424   87.4619   20.2159 N.ar    1  UNL1       -0.3523
     47 C          13.5388   86.6289   19.4242 C.ar    1  UNL1        0.0560
     48 C          13.7164   86.7313   18.0459 C.ar    1  UNL1        0.0127
     49 H          12.3173   88.3168   19.9264 H       1  UNL1        0.1660
     50 C          14.7117   87.3025   15.4642 C.3     1  UNL1        0.0050
     51 C          14.7669   85.8491   15.9235 C.3     1  UNL1        0.0264
@<TRIPOS>BOND
     1    50    51    1
     2    51    40    1
     3    40    41   ar
     4    41    42   ar
     5    42    43   ar
     6    43    44   ar
     7    44    39    1
     8    39    28    1
     9    28     1    1
    10     1     2   am
    11     2     3    2
    12     2     5    1
    13     5     6   ar
    14     6     7   ar
    15     7     8   ar
    16     8    12    1
    17    12    13    1
    18    13    14    1
    19    14    15    1
    20    15    18    1
    21    18    19   ar
    22    19    20   ar
    23    20    21   ar
    24    21    24    1
    25    24    25    1
    26    24    26    1
    27    24    27    1
    28    21    22   ar
    29    22    23   ar
    30    15    16    1
    31    16    17    1
    32     8     9   ar
    33     9    10   ar
    34    10    11    1
    35    28    29    1
    36    29    30    2
    37    29    31   am
    38    31    33    1
    39    33    34   ar
    40    34    35   ar
    41    35    36   ar
    42    36    37   ar
    43    37    38   ar
    44    44    45   ar
    45    45    46   ar
    46    46    47   ar
    47    47    48   ar
    48    48    40   ar
    49    47    43   ar
    50    10     5   ar
    51    38    33   ar
    52    17    12    1
    53    23    18   ar
    54     1     4    1
    55    31    32    1
    56    46    49    1
@<TRIPOS>MOLECULE
*****
 51 56 0 0 0
SMALL
GASTEIGER

@<TRIPOS>ATOM
      1 N          10.5180   76.3396   25.8153 N.am    1  UNL1       -0.2945
      2 C           9.7222   77.4150   25.2932 C.2     1  UNL1        0.2483
      3 O          10.0310   78.6078   25.5636 O.2     1  UNL1       -0.2701
      4 H          10.4484   75.4113   25.3480 H       1  UNL1        0.1501
      5 C           8.5363   77.1315   24.4491 C.ar    1  UNL1        0.0808
      6 C           7.3599   76.6257   25.0304 C.ar    1  UNL1        0.0080
      7 C           6.2351   76.3610   24.2463 C.ar    1  UNL1        0.0148
      8 C           6.2561   76.5973   22.8617 C.ar    1  UNL1        0.0502
      9 C           7.4275   77.1156   22.2816 C.ar    1  UNL1        0.0443
     10 C           8.5556   77.3828   23.0639 C.ar    1  UNL1        0.1457
     11 F           9.6693   77.8691   22.4592 F       1  UNL1       -0.2040
     12 N           5.0900   76.3250   22.0525 N.pl3   1  UNL1       -0.3040
     13 C           3.7504   76.4186   22.6538 C.3     1  UNL1        0.1123
     14 C           2.6590   76.5438   21.5865 C.3     1  UNL1        0.1136
     15 N           2.8093   75.4927   20.5698 N.pl3   1  UNL1       -0.2897
     16 C           4.1559   75.1010   20.1197 C.3     1  UNL1        0.1136
     17 C           5.2296   76.0784   20.6103 C.3     1  UNL1        0.1123
     18 C           1.6352   74.9511   19.9231 C.ar    1  UNL1        0.1318
     19 C           1.3002   73.5900   20.0327 C.ar    1  UNL1        0.0343
     20 C           0.1582   73.1054   19.3931 C.ar    1  UNL1        0.0083
     21 C          -0.6652   73.9735   18.6617 C.ar    1  UNL1        0.0906
     22 C          -0.2863   75.3202   18.5571 C.ar    1  UNL1        0.1041
     23 N           0.8316   75.7689   19.1864 N.ar    1  UNL1       -0.2292
     24 C          -1.8733   73.4528   17.9255 C.3     1  UNL1        0.4200
     25 F          -3.0377   73.9454   18.4888 F       1  UNL1       -0.1658
     26 F          -1.8882   72.0724   17.9945 F       1  UNL1       -0.1658
     27 F          -1.8387   73.8379   16.5964 F       1  UNL1       -0.1658
     28 C          11.4622   76.5221   26.9243 C.3     1  UNL1        0.1535
     29 C          12.7083   77.2387   26.4602 C.2     1  UNL1        0.2443
     30 O          13.6580   77.3993   27.2737 O.2     1  UNL1       -0.2730
     31 N          12.7766   77.8065   25.1398 N.am    1  UNL1       -0.2825
     32 H          11.8911   77.8809   24.5894 H       1  UNL1        0.1549
     33 C          13.9539   78.4165   24.5880 C.ar    1  UNL1        0.0535
     34 C          14.2493   79.7499   24.9013 C.ar    1  UNL1        0.0353
     35 C          15.3807   80.3549   24.3491 C.ar    1  UNL1        0.1002
     36 N          16.1807   79.6576   23.4997 N.ar    1  UNL1       -0.2422
     37 C          15.9090   78.3691   23.1622 C.ar    1  UNL1        0.1002
     38 C          14.7881   77.7260   23.6933 C.ar    1  UNL1        0.0353
     39 C          10.8034   77.2549   28.1172 C.3     1  UNL1        0.0569
     40 C           5.6351   77.6073   29.4291 C.ar    1  UNL1       -0.0208
     41 C           6.4216   78.5961   28.7861 C.ar    1  UNL1       -0.0042
     42 C           7.7632   78.3412   28.4535 C.ar    1  UNL1        0.0008
     43 C           8.2963   77.0971   28.7918 C.ar    1  UNL1        0.0131
     44 C           9.5652   76.5678   28.6348 C.ar    1  UNL1       -0.0017
     45 C           9.4980   75.2778   29.1563 C.ar    1  UNL1        0.0681
     46 N           8.2579   75.0212   29.6287 N.ar    1  UNL1       -0.3523
     47 C           7.5376   76.1334   29.4049 C.ar    1  UNL1        0.0560
     48 C           6.2051   76.3549   29.7469 C.ar    1  UNL1        0.0127
     49 H           7.9348   74.1417   30.0896 H       1  UNL1        0.1660
     50 C           3.6104   76.7436   30.5955 C.3     1  UNL1        0.0050
     51 C           4.2178   77.9140   29.8290 C.3     1  UNL1        0.0264
@<TRIPOS>BOND
     1    50    51    1
     2    51    40    1
     3    40    41   ar
     4    41    42   ar
     5    42    43   ar
     6    43    44   ar
     7    44    39    1
     8    39    28    1
     9    28     1    1
    10     1     2   am
    11     2     3    2
    12     2     5    1
    13     5     6   ar
    14     6     7   ar
    15     7     8   ar
    16     8    12    1
    17    12    13    1
    18    13    14    1
    19    14    15    1
    20    15    18    1
    21    18    19   ar
    22    19    20   ar
    23    20    21   ar
    24    21    24    1
    25    24    25    1
    26    24    26    1
    27    24    27    1
    28    21    22   ar
    29    22    23   ar
    30    15    16    1
    31    16    17    1
    32     8     9   ar
    33     9    10   ar
    34    10    11    1
    35    28    29    1
    36    29    30    2
    37    29    31   am
    38    31    33    1
    39    33    34   ar
    40    34    35   ar
    41    35    36   ar
    42    36    37   ar
    43    37    38   ar
    44    44    45   ar
    45    45    46   ar
    46    46    47   ar
    47    47    48   ar
    48    48    40   ar
    49    47    43   ar
    50    10     5   ar
    51    38    33   ar
    52    17    12    1
    53    23    18   ar
    54     1     4    1
    55    31    32    1
    56    46    49    1
@<TRIPOS>MOLECULE
*****
 51 56 0 0 0
SMALL
GASTEIGER

@<TRIPOS>ATOM
      1 N          10.0392   75.2948   26.4171 N.am    1  UNL1       -0.2945
      2 C          10.1097   75.5310   25.0023 C.2     1  UNL1        0.2483
      3 O          11.2022   75.8892   24.4833 O.2     1  UNL1       -0.2701
      4 H           9.2500   74.7172   26.7753 H       1  UNL1        0.1501
      5 C           8.9059   75.3669   24.1519 C.ar    1  UNL1        0.0808
      6 C           7.9389   76.3861   24.0920 C.ar    1  UNL1        0.0080
      7 C           6.8045   76.2451   23.2899 C.ar    1  UNL1        0.0148
      8 C           6.6087   75.0833   22.5249 C.ar    1  UNL1        0.0502
      9 C           7.5816   74.0693   22.5738 C.ar    1  UNL1        0.0443
     10 C           8.7194   74.2074   23.3753 C.ar    1  UNL1        0.1457
     11 F           9.6254   73.1970   23.4028 F       1  UNL1       -0.2040
     12 N           5.4352   74.9406   21.6934 N.pl3   1  UNL1       -0.3040
     13 C           4.4790   76.0540   21.5890 C.3     1  UNL1        0.1123
     14 C           3.5753   75.9099   20.3608 C.3     1  UNL1        0.1136
     15 N           2.9724   74.5698   20.3187 N.pl3   1  UNL1       -0.2897
     16 C           3.7725   73.3978   20.7129 C.3     1  UNL1        0.1136
     17 C           5.2585   73.7430   20.8599 C.3     1  UNL1        0.1123
     18 C           1.6490   74.3989   19.7624 C.ar    1  UNL1        0.1318
     19 C           0.9996   73.1521   19.7854 C.ar    1  UNL1        0.0343
     20 C          -0.2781   73.0279   19.2376 C.ar    1  UNL1        0.0083
     21 C          -0.9228   74.1442   18.6855 C.ar    1  UNL1        0.0906
     22 C          -0.2341   75.3662   18.6611 C.ar    1  UNL1        0.1041
     23 N           1.0106   75.4627   19.1982 N.ar    1  UNL1       -0.2292
     24 C          -2.2816   74.0118   18.0463 C.3     1  UNL1        0.4200
     25 F          -2.8023   72.7480   18.2642 F       1  UNL1       -0.1658
     26 F          -2.1669   74.2234   16.6852 F       1  UNL1       -0.1658
     27 F          -3.1623   74.9398   18.5746 F       1  UNL1       -0.1658
     28 C          11.0653   75.7758   27.3500 C.3     1  UNL1        0.1535
     29 C          11.6046   77.1179   26.9146 C.2     1  UNL1        0.2443
     30 O          12.8153   77.3901   27.1379 O.2     1  UNL1       -0.2730
     31 N          10.7316   78.1039   26.3349 N.am    1  UNL1       -0.2825
     32 H           9.7002   77.9473   26.3998 H       1  UNL1        0.1549
     33 C          11.1796   79.3623   25.8075 C.ar    1  UNL1        0.0535
     34 C          10.3546   80.4892   25.9220 C.ar    1  UNL1        0.0353
     35 C          10.7757   81.7104   25.3906 C.ar    1  UNL1        0.1002
     36 N          11.9723   81.7996   24.7518 N.ar    1  UNL1       -0.2422
     37 C          12.7852   80.7195   24.6086 C.ar    1  UNL1        0.1002
     38 C          12.4026   79.4796   25.1266 C.ar    1  UNL1        0.0353
     39 C          10.5341   75.8274   28.8023 C.3     1  UNL1        0.0569
     40 C           5.4286   76.9568   27.7001 C.ar    1  UNL1       -0.0208
     41 C           6.1269   75.7648   27.3816 C.ar    1  UNL1       -0.0042
     42 C           7.4614   75.5856   27.7847 C.ar    1  UNL1        0.0008
     43 C           8.0771   76.6211   28.4883 C.ar    1  UNL1        0.0131
     44 C           9.3628   76.7598   28.9809 C.ar    1  UNL1       -0.0017
     45 C           9.3917   78.0067   29.6012 C.ar    1  UNL1        0.0681
     46 N           8.1931   78.6209   29.4876 N.ar    1  UNL1       -0.3523
     47 C           7.4037   77.7720   28.8079 C.ar    1  UNL1        0.0560
     48 C           6.0805   77.9797   28.4234 C.ar    1  UNL1        0.0127
     49 H           7.9418   79.5703   29.8423 H       1  UNL1        0.1660
     50 C           3.8907   76.7422   25.7522 C.3     1  UNL1        0.0050
     51 C           4.0194   77.1576   27.2141 C.3     1  UNL1        0.0264
@<TRIPOS>BOND
     1    50    51    1
     2    51    40    1
     3    40    41   ar
     4    41    42   ar
     5    42    43   ar
     6    43    44   ar
     7    44    39    1
     8    39    28    1
     9    28     1    1
    10     1     2   am
    11     2     3    2
    12     2     5    1
    13     5     6   ar
    14     6     7   ar
    15     7     8   ar
    16     8    12    1
    17    12    13    1
    18    13    14    1
    19    14    15    1
    20    15    18    1
    21    18    19   ar
    22    19    20   ar
    23    20    21   ar
    24    21    24    1
    25    24    25    1
    26    24    26    1
    27    24    27    1
    28    21    22   ar
    29    22    23   ar
    30    15    16    1
    31    16    17    1
    32     8     9   ar
    33     9    10   ar
    34    10    11    1
    35    28    29    1
    36    29    30    2
    37    29    31   am
    38    31    33    1
    39    33    34   ar
    40    34    35   ar
    41    35    36   ar
    42    36    37   ar
    43    37    38   ar
    44    44    45   ar
    45    45    46   ar
    46    46    47   ar
    47    47    48   ar
    48    48    40   ar
    49    47    43   ar
    50    10     5   ar
    51    38    33   ar
    52    17    12    1
    53    23    18   ar
    54     1     4    1
    55    31    32    1
    56    46    49    1
