@<TRIPOS>MOLECULE
*****
 46 51 0 0 0
SMALL
GASTEIGER

@<TRIPOS>ATOM
      1 C         -71.3272  -56.3218  -21.9211 C.ar    1  UNL1        0.0743
      2 C         -70.1588  -56.1108  -22.6676 C.ar    1  UNL1        0.0196
      3 C         -70.1883  -56.1916  -24.0599 C.ar    1  UNL1        0.0356
      4 C         -71.3942  -56.4960  -24.7133 C.ar    1  UNL1        0.1323
      5 N         -72.5107  -56.7174  -23.9647 N.ar    1  UNL1       -0.2235
      6 C         -72.5105  -56.6468  -22.6072 C.ar    1  UNL1        0.1179
      7 S         -74.0464  -56.9412  -21.7317 S.3     1  UNL1       -0.1215
      8 H         -73.7758  -58.3172  -21.6123 H       1  UNL1        0.1086
      9 N         -71.4668  -56.5884  -26.1536 N.pl3   1  UNL1       -0.2932
     10 C         -70.2475  -56.8079  -26.9506 C.3     1  UNL1        0.0923
     11 C         -70.4539  -56.3995  -28.4128 C.3     1  UNL1        0.0252
     12 C         -71.6637  -57.1253  -29.0412 C.3     1  UNL1        0.0472
     13 C         -72.8742  -57.2341  -28.0705 C.3     1  UNL1        0.0252
     14 C         -72.7428  -56.3312  -26.8392 C.3     1  UNL1        0.0923
     15 C         -72.0575  -56.4433  -30.3611 C.3     1  UNL1        0.2054
     16 O         -72.2534  -55.0468  -30.1461 O.3     1  UNL1       -0.4755
     17 C         -73.2940  -54.2949  -30.7106 C.ar    1  UNL1        0.1388
     18 C         -74.2319  -53.5978  -29.9266 C.ar    1  UNL1        0.0369
     19 C         -75.2502  -52.8637  -30.5381 C.ar    1  UNL1        0.0033
     20 C         -75.3449  -52.8162  -31.9306 C.ar    1  UNL1        0.0066
     21 C         -74.4168  -53.5062  -32.7300 C.ar    1  UNL1        0.0785
     22 C         -73.3941  -54.2432  -32.1066 C.ar    1  UNL1        0.0433
     23 C         -74.5111  -53.4602  -34.2060 C.2     1  UNL1        0.3381
     24 O         -74.5108  -54.5262  -34.8796 O.2     1  UNL1       -0.2451
     25 O         -74.6011  -52.2374  -34.8662 O.3     1  UNL1       -0.4771
     26 H         -74.6662  -52.1948  -35.8762 H       1  UNL1        0.2954
     27 C         -70.6058  -55.2701  -19.7321 C.2     1  UNL1        0.2840
     28 O         -69.8917  -54.4152  -20.3214 O.2     1  UNL1       -0.2665
     29 N         -71.3038  -56.2769  -20.4844 N.am    1  UNL1       -0.2763
     30 H         -71.8402  -57.0086  -19.9702 H       1  UNL1        0.1553
     31 C         -72.5822  -53.4658  -17.9124 C.3     1  UNL1        0.0345
     32 C         -71.5512  -54.4609  -17.4729 C.ar    1  UNL1        0.0202
     33 C         -70.6833  -55.2261  -18.2617 C.ar    1  UNL1        0.1946
     34 O         -69.8787  -55.9358  -17.4903 O.2     1  UNL1       -0.4492
     35 C         -70.1962  -55.6892  -16.2427 C.ar    1  UNL1        0.1452
     36 C         -69.6138  -56.2257  -15.0997 C.ar    1  UNL1        0.0375
     37 C         -70.1150  -55.8189  -13.8506 C.ar    1  UNL1        0.0031
     38 C         -71.1842  -54.8864  -13.7629 C.ar    1  UNL1        0.0002
     39 C         -71.7471  -54.3631  -14.9517 C.ar    1  UNL1        0.0028
     40 C         -71.2257  -54.7908  -16.1727 C.ar    1  UNL1        0.0337
     41 C         -71.7055  -54.4640  -12.4382 C.ar    1  UNL1        0.0000
     42 C         -72.4246  -55.3660  -11.6310 C.ar    1  UNL1        0.0000
     43 C         -72.9153  -54.9650  -10.3845 C.ar    1  UNL1        0.0000
     44 C         -72.6943  -53.6631   -9.9299 C.ar    1  UNL1        0.0000
     45 C         -71.9823  -52.7589  -10.7210 C.ar    1  UNL1        0.0000
     46 C         -71.4902  -53.1541  -11.9687 C.ar    1  UNL1        0.0000
@<TRIPOS>BOND
     1    31    32    1
     2    32    33   ar
     3    33    27    1
     4    27    28    2
     5    27    29   am
     6    29     1    1
     7     1     2   ar
     8     2     3   ar
     9     3     4   ar
    10     4     9    1
    11     9    10    1
    12    10    11    1
    13    11    12    1
    14    12    15    1
    15    15    16    1
    16    16    17    1
    17    17    18   ar
    18    18    19   ar
    19    19    20   ar
    20    20    21   ar
    21    21    23    1
    22    23    24    2
    23    23    25    1
    24    21    22   ar
    25    12    13    1
    26    13    14    1
    27     4     5   ar
    28     5     6   ar
    29     6     7    1
    30    33    34   ar
    31    34    35   ar
    32    35    36   ar
    33    36    37   ar
    34    37    38   ar
    35    38    41    1
    36    41    42   ar
    37    42    43   ar
    38    43    44   ar
    39    44    45   ar
    40    45    46   ar
    41    38    39   ar
    42    39    40   ar
    43    40    32   ar
    44     6     1   ar
    45    40    35   ar
    46    14     9    1
    47    46    41   ar
    48    22    17   ar
    49    29    30    1
    50    25    26    1
    51     7     8    1
@<TRIPOS>MOLECULE
*****
 46 51 0 0 0
SMALL
GASTEIGER

@<TRIPOS>ATOM
      1 C         -64.1553  -51.9044  -24.5338 C.ar    1  UNL1        0.0743
      2 C         -65.3227  -52.5348  -24.9883 C.ar    1  UNL1        0.0196
      3 C         -65.9817  -53.4628  -24.1818 C.ar    1  UNL1        0.0356
      4 C         -65.4647  -53.7720  -22.9126 C.ar    1  UNL1        0.1323
      5 N         -64.3178  -53.1617  -22.5026 N.ar    1  UNL1       -0.2235
      6 C         -63.6543  -52.2553  -23.2680 C.ar    1  UNL1        0.1179
      7 S         -62.1639  -51.5054  -22.6133 S.3     1  UNL1       -0.1215
      8 H         -61.3499  -52.5055  -23.1771 H       1  UNL1        0.1086
      9 N         -66.1176  -54.7271  -22.0466 N.pl3   1  UNL1       -0.2932
     10 C         -65.7997  -56.1623  -22.1431 C.3     1  UNL1        0.0923
     11 C         -66.9025  -57.0227  -21.5178 C.3     1  UNL1        0.0252
     12 C         -67.1816  -56.6151  -20.0545 C.3     1  UNL1        0.0472
     13 C         -67.1626  -55.0743  -19.8422 C.3     1  UNL1        0.0252
     14 C         -67.2005  -54.2841  -21.1547 C.3     1  UNL1        0.0923
     15 C         -68.5061  -57.2343  -19.5804 C.3     1  UNL1        0.2054
     16 O         -69.4682  -56.2061  -19.3523 O.3     1  UNL1       -0.4755
     17 C         -70.2299  -56.0770  -18.1819 C.ar    1  UNL1        0.1388
     18 C         -71.6194  -55.8561  -18.2069 C.ar    1  UNL1        0.0369
     19 C         -72.3321  -55.7341  -17.0123 C.ar    1  UNL1        0.0033
     20 C         -71.6715  -55.8304  -15.7856 C.ar    1  UNL1        0.0066
     21 C         -70.2838  -56.0511  -15.7411 C.ar    1  UNL1        0.0785
     22 C         -69.5732  -56.1730  -16.9486 C.ar    1  UNL1        0.0433
     23 C         -69.5775  -56.1543  -14.4449 C.2     1  UNL1        0.3381
     24 O         -70.0756  -56.8207  -13.4973 O.2     1  UNL1       -0.2451
     25 O         -68.3543  -55.5152  -14.2590 O.3     1  UNL1       -0.4771
     26 H         -67.8625  -55.5795  -13.3757 H       1  UNL1        0.2954
     27 C         -63.7804  -49.5780  -25.4641 C.2     1  UNL1        0.2840
     28 O         -64.7951  -49.1237  -24.8707 O.2     1  UNL1       -0.2665
     29 N         -63.4463  -50.9730  -25.3683 N.am    1  UNL1       -0.2763
     30 H         -62.6364  -51.3357  -25.9161 H       1  UNL1        0.1553
     31 C         -64.0643  -48.9510  -28.6263 C.3     1  UNL1        0.0345
     32 C         -63.1023  -48.3655  -27.6374 C.ar    1  UNL1        0.0202
     33 C         -62.9683  -48.6530  -26.2734 C.ar    1  UNL1        0.1946
     34 O         -61.9563  -47.9718  -25.7653 O.2     1  UNL1       -0.4492
     35 C         -61.4429  -47.2392  -26.7232 C.ar    1  UNL1        0.1452
     36 C         -60.3677  -46.3619  -26.6334 C.ar    1  UNL1        0.0375
     37 C         -59.9805  -45.6716  -27.7955 C.ar    1  UNL1        0.0031
     38 C         -60.6691  -45.8679  -29.0234 C.ar    1  UNL1        0.0002
     39 C         -61.7573  -46.7721  -29.0713 C.ar    1  UNL1        0.0028
     40 C         -62.1144  -47.4377  -27.8987 C.ar    1  UNL1        0.0337
     41 C         -60.2515  -45.1332  -30.2445 C.ar    1  UNL1        0.0000
     42 C         -58.9183  -45.1905  -30.6937 C.ar    1  UNL1        0.0000
     43 C         -58.5278  -44.4968  -31.8431 C.ar    1  UNL1        0.0000
     44 C         -59.4604  -43.7404  -32.5563 C.ar    1  UNL1        0.0000
     45 C         -60.7859  -43.6757  -32.1213 C.ar    1  UNL1        0.0000
     46 C         -61.1819  -44.3666  -30.9719 C.ar    1  UNL1        0.0000
@<TRIPOS>BOND
     1    31    32    1
     2    32    33   ar
     3    33    27    1
     4    27    28    2
     5    27    29   am
     6    29     1    1
     7     1     2   ar
     8     2     3   ar
     9     3     4   ar
    10     4     9    1
    11     9    10    1
    12    10    11    1
    13    11    12    1
    14    12    15    1
    15    15    16    1
    16    16    17    1
    17    17    18   ar
    18    18    19   ar
    19    19    20   ar
    20    20    21   ar
    21    21    23    1
    22    23    24    2
    23    23    25    1
    24    21    22   ar
    25    12    13    1
    26    13    14    1
    27     4     5   ar
    28     5     6   ar
    29     6     7    1
    30    33    34   ar
    31    34    35   ar
    32    35    36   ar
    33    36    37   ar
    34    37    38   ar
    35    38    41    1
    36    41    42   ar
    37    42    43   ar
    38    43    44   ar
    39    44    45   ar
    40    45    46   ar
    41    38    39   ar
    42    39    40   ar
    43    40    32   ar
    44     6     1   ar
    45    40    35   ar
    46    14     9    1
    47    46    41   ar
    48    22    17   ar
    49    29    30    1
    50    25    26    1
    51     7     8    1
@<TRIPOS>MOLECULE
*****
 46 51 0 0 0
SMALL
GASTEIGER

@<TRIPOS>ATOM
      1 C         -64.1692  -51.8894  -24.4735 C.ar    1  UNL1        0.0743
      2 C         -65.4038  -52.4207  -24.8741 C.ar    1  UNL1        0.0196
      3 C         -66.0669  -53.3465  -24.0685 C.ar    1  UNL1        0.0356
      4 C         -65.4871  -53.7536  -22.8553 C.ar    1  UNL1        0.1323
      5 N         -64.2772  -53.2388  -22.4985 N.ar    1  UNL1       -0.2235
      6 C         -63.6083  -52.3369  -23.2645 C.ar    1  UNL1        0.1179
      7 S         -62.0309  -51.7173  -22.6816 S.3     1  UNL1       -0.1215
      8 H         -61.3247  -52.7356  -23.3488 H       1  UNL1        0.1086
      9 N         -66.1419  -54.7100  -21.9921 N.pl3   1  UNL1       -0.2932
     10 C         -65.8024  -56.1414  -22.0697 C.3     1  UNL1        0.0923
     11 C         -66.9040  -57.0115  -21.4559 C.3     1  UNL1        0.0252
     12 C         -67.2147  -56.5947  -20.0016 C.3     1  UNL1        0.0472
     13 C         -67.2209  -55.0519  -19.8033 C.3     1  UNL1        0.0252
     14 C         -67.2465  -54.2743  -21.1236 C.3     1  UNL1        0.0923
     15 C         -68.5387  -57.2282  -19.5453 C.3     1  UNL1        0.2054
     16 O         -69.5836  -56.2585  -19.5964 O.3     1  UNL1       -0.4755
     17 C         -70.3497  -55.8579  -18.4921 C.ar    1  UNL1        0.1388
     18 C         -70.2909  -56.5217  -17.2528 C.ar    1  UNL1        0.0369
     19 C         -71.0751  -56.0832  -16.1839 C.ar    1  UNL1        0.0033
     20 C         -71.9225  -54.9836  -16.3373 C.ar    1  UNL1        0.0066
     21 C         -71.9942  -54.3079  -17.5680 C.ar    1  UNL1        0.0785
     22 C         -71.2012  -54.7557  -18.6396 C.ar    1  UNL1        0.0433
     23 C         -72.8898  -53.1422  -17.7376 C.2     1  UNL1        0.3381
     24 O         -73.7547  -52.8684  -16.8617 O.2     1  UNL1       -0.2451
     25 O         -72.7859  -52.3354  -18.8678 O.3     1  UNL1       -0.4771
     26 H         -73.3940  -51.5350  -18.9936 H       1  UNL1        0.2954
     27 C         -63.8151  -49.5754  -25.4423 C.2     1  UNL1        0.2840
     28 O         -64.8514  -49.1284  -24.8817 O.2     1  UNL1       -0.2665
     29 N         -63.4580  -50.9618  -25.3104 N.am    1  UNL1       -0.2763
     30 H         -62.6290  -51.3203  -25.8319 H       1  UNL1        0.1553
     31 C         -64.0094  -49.0473  -28.6293 C.3     1  UNL1        0.0345
     32 C         -63.0970  -48.4073  -27.6270 C.ar    1  UNL1        0.0202
     33 C         -63.0012  -48.6519  -26.2515 C.ar    1  UNL1        0.1946
     34 O         -62.0254  -47.9288  -25.7309 O.2     1  UNL1       -0.4492
     35 C         -61.4999  -47.2099  -26.6926 C.ar    1  UNL1        0.1452
     36 C         -60.4521  -46.3010  -26.5936 C.ar    1  UNL1        0.0375
     37 C         -60.0448  -45.6337  -27.7622 C.ar    1  UNL1        0.0031
     38 C         -60.6863  -45.8840  -29.0057 C.ar    1  UNL1        0.0002
     39 C         -61.7478  -46.8189  -29.0625 C.ar    1  UNL1        0.0028
     40 C         -62.1260  -47.4604  -27.8831 C.ar    1  UNL1        0.0337
     41 C         -60.2477  -45.1733  -30.2336 C.ar    1  UNL1        0.0000
     42 C         -58.9294  -45.3112  -30.7084 C.ar    1  UNL1        0.0000
     43 C         -58.5190  -44.6398  -31.8642 C.ar    1  UNL1        0.0000
     44 C         -59.4168  -43.8258  -32.5583 C.ar    1  UNL1        0.0000
     45 C         -60.7273  -43.6809  -32.0977 C.ar    1  UNL1        0.0000
     46 C         -61.1430  -44.3491  -30.9419 C.ar    1  UNL1        0.0000
@<TRIPOS>BOND
     1    31    32    1
     2    32    33   ar
     3    33    27    1
     4    27    28    2
     5    27    29   am
     6    29     1    1
     7     1     2   ar
     8     2     3   ar
     9     3     4   ar
    10     4     9    1
    11     9    10    1
    12    10    11    1
    13    11    12    1
    14    12    15    1
    15    15    16    1
    16    16    17    1
    17    17    18   ar
    18    18    19   ar
    19    19    20   ar
    20    20    21   ar
    21    21    23    1
    22    23    24    2
    23    23    25    1
    24    21    22   ar
    25    12    13    1
    26    13    14    1
    27     4     5   ar
    28     5     6   ar
    29     6     7    1
    30    33    34   ar
    31    34    35   ar
    32    35    36   ar
    33    36    37   ar
    34    37    38   ar
    35    38    41    1
    36    41    42   ar
    37    42    43   ar
    38    43    44   ar
    39    44    45   ar
    40    45    46   ar
    41    38    39   ar
    42    39    40   ar
    43    40    32   ar
    44     6     1   ar
    45    40    35   ar
    46    14     9    1
    47    46    41   ar
    48    22    17   ar
    49    29    30    1
    50    25    26    1
    51     7     8    1
@<TRIPOS>MOLECULE
*****
 46 51 0 0 0
SMALL
GASTEIGER

@<TRIPOS>ATOM
      1 C         -64.1137  -51.8672  -24.5562 C.ar    1  UNL1        0.0743
      2 C         -65.2998  -52.4746  -24.9935 C.ar    1  UNL1        0.0196
      3 C         -65.9536  -53.4055  -24.1861 C.ar    1  UNL1        0.0356
      4 C         -65.4126  -53.7410  -22.9337 C.ar    1  UNL1        0.1323
      5 N         -64.2483  -53.1528  -22.5407 N.ar    1  UNL1       -0.2235
      6 C         -63.5894  -52.2441  -23.3073 C.ar    1  UNL1        0.1179
      7 S         -62.0744  -51.5248  -22.6755 S.3     1  UNL1       -0.1215
      8 H         -61.2874  -52.5274  -23.2723 H       1  UNL1        0.1086
      9 N         -66.0594  -54.7000  -22.0674 N.pl3   1  UNL1       -0.2932
     10 C         -65.6972  -56.1266  -22.1300 C.3     1  UNL1        0.0923
     11 C         -66.7901  -57.0085  -21.5173 C.3     1  UNL1        0.0252
     12 C         -67.1186  -56.5841  -20.0691 C.3     1  UNL1        0.0472
     13 C         -67.1501  -55.0401  -19.8841 C.3     1  UNL1        0.0252
     14 C         -67.1774  -54.2741  -21.2112 C.3     1  UNL1        0.0923
     15 C         -68.4361  -57.2342  -19.6176 C.3     1  UNL1        0.2054
     16 O         -69.4437  -56.2356  -19.4682 O.3     1  UNL1       -0.4755
     17 C         -70.6029  -56.1536  -20.2534 C.ar    1  UNL1        0.1388
     18 C         -70.5823  -56.3310  -21.6492 C.ar    1  UNL1        0.0369
     19 C         -71.7649  -56.2387  -22.3858 C.ar    1  UNL1        0.0033
     20 C         -72.9753  -55.9700  -21.7429 C.ar    1  UNL1        0.0066
     21 C         -73.0152  -55.7900  -20.3492 C.ar    1  UNL1        0.0785
     22 C         -71.8198  -55.8847  -19.6145 C.ar    1  UNL1        0.0433
     23 C         -74.2941  -55.5051  -19.6616 C.2     1  UNL1        0.3381
     24 O         -75.0767  -54.6229  -20.1081 O.2     1  UNL1       -0.2451
     25 O         -74.6460  -56.2095  -18.5130 O.3     1  UNL1       -0.4771
     26 H         -75.5191  -56.0222  -18.0347 H       1  UNL1        0.2954
     27 C         -63.7808  -49.5503  -25.5254 C.2     1  UNL1        0.2840
     28 O         -64.8219  -49.1131  -24.9661 O.2     1  UNL1       -0.2665
     29 N         -63.4106  -50.9331  -25.3927 N.am    1  UNL1       -0.2763
     30 H         -62.5776  -51.2838  -25.9131 H       1  UNL1        0.1553
     31 C         -64.0430  -48.9524  -28.6951 C.3     1  UNL1        0.0345
     32 C         -63.0999  -48.3444  -27.7015 C.ar    1  UNL1        0.0202
     33 C         -62.9750  -48.6192  -26.3340 C.ar    1  UNL1        0.1946
     34 O         -61.9787  -47.9186  -25.8215 O.2     1  UNL1       -0.4492
     35 C         -61.4671  -47.1856  -26.7800 C.ar    1  UNL1        0.1452
     36 C         -60.4065  -46.2912  -26.6867 C.ar    1  UNL1        0.0375
     37 C         -60.0184  -45.6039  -27.8504 C.ar    1  UNL1        0.0031
     38 C         -60.6918  -45.8204  -29.0834 C.ar    1  UNL1        0.0002
     39 C         -61.7654  -46.7416  -29.1347 C.ar    1  UNL1        0.0028
     40 C         -62.1238  -47.4035  -27.9604 C.ar    1  UNL1        0.0337
     41 C         -60.2734  -45.0889  -30.3061 C.ar    1  UNL1        0.0000
     42 C         -58.9675  -45.2299  -30.8131 C.ar    1  UNL1        0.0000
     43 C         -58.5761  -44.5389  -31.9640 C.ar    1  UNL1        0.0000
     44 C         -59.4808  -43.7020  -32.6210 C.ar    1  UNL1        0.0000
     45 C         -60.7791  -43.5538  -32.1282 C.ar    1  UNL1        0.0000
     46 C         -61.1757  -44.2415  -30.9772 C.ar    1  UNL1        0.0000
@<TRIPOS>BOND
     1    31    32    1
     2    32    33   ar
     3    33    27    1
     4    27    28    2
     5    27    29   am
     6    29     1    1
     7     1     2   ar
     8     2     3   ar
     9     3     4   ar
    10     4     9    1
    11     9    10    1
    12    10    11    1
    13    11    12    1
    14    12    15    1
    15    15    16    1
    16    16    17    1
    17    17    18   ar
    18    18    19   ar
    19    19    20   ar
    20    20    21   ar
    21    21    23    1
    22    23    24    2
    23    23    25    1
    24    21    22   ar
    25    12    13    1
    26    13    14    1
    27     4     5   ar
    28     5     6   ar
    29     6     7    1
    30    33    34   ar
    31    34    35   ar
    32    35    36   ar
    33    36    37   ar
    34    37    38   ar
    35    38    41    1
    36    41    42   ar
    37    42    43   ar
    38    43    44   ar
    39    44    45   ar
    40    45    46   ar
    41    38    39   ar
    42    39    40   ar
    43    40    32   ar
    44     6     1   ar
    45    40    35   ar
    46    14     9    1
    47    46    41   ar
    48    22    17   ar
    49    29    30    1
    50    25    26    1
    51     7     8    1
@<TRIPOS>MOLECULE
*****
 46 51 0 0 0
SMALL
GASTEIGER

@<TRIPOS>ATOM
      1 C         -71.4747  -56.4442  -21.9314 C.ar    1  UNL1        0.0743
      2 C         -70.3311  -56.6678  -22.7118 C.ar    1  UNL1        0.0196
      3 C         -70.4324  -56.7578  -24.1001 C.ar    1  UNL1        0.0356
      4 C         -71.6894  -56.6333  -24.7152 C.ar    1  UNL1        0.1323
      5 N         -72.7880  -56.4374  -23.9336 N.ar    1  UNL1       -0.2235
      6 C         -72.7188  -56.3474  -22.5791 C.ar    1  UNL1        0.1179
      7 S         -74.2315  -56.0711  -21.6584 S.3     1  UNL1       -0.1215
      8 H         -74.4539  -57.4526  -21.5071 H       1  UNL1        0.1086
      9 N         -71.8367  -56.7200  -26.1502 N.pl3   1  UNL1       -0.2932
     10 C         -70.6978  -57.1187  -26.9953 C.3     1  UNL1        0.0923
     11 C         -70.9052  -56.6905  -28.4517 C.3     1  UNL1        0.0252
     12 C         -72.2339  -57.2342  -29.0212 C.3     1  UNL1        0.0472
     13 C         -73.4044  -57.1609  -27.9995 C.3     1  UNL1        0.0252
     14 C         -73.0898  -56.2819  -26.7841 C.3     1  UNL1        0.0923
     15 C         -72.5805  -56.5073  -30.3304 C.3     1  UNL1        0.2054
     16 O         -72.0996  -55.1652  -30.2822 O.3     1  UNL1       -0.4755
     17 C         -72.1085  -54.3594  -29.1345 C.ar    1  UNL1        0.1388
     18 C         -70.9425  -54.0871  -28.3952 C.ar    1  UNL1        0.0369
     19 C         -71.0051  -53.2784  -27.2586 C.ar    1  UNL1        0.0033
     20 C         -72.2243  -52.7348  -26.8480 C.ar    1  UNL1        0.0066
     21 C         -73.3994  -52.9958  -27.5741 C.ar    1  UNL1        0.0785
     22 C         -73.3280  -53.8110  -28.7178 C.ar    1  UNL1        0.0433
     23 C         -74.6945  -52.4230  -27.1447 C.2     1  UNL1        0.3381
     24 O         -75.2170  -51.4723  -27.7875 O.2     1  UNL1       -0.2451
     25 O         -75.3494  -52.9292  -26.0248 O.3     1  UNL1       -0.4771
     26 H         -76.2363  -52.5444  -25.7225 H       1  UNL1        0.2954
     27 C         -70.8501  -55.2628  -19.7791 C.2     1  UNL1        0.2840
     28 O         -70.3318  -54.2975  -20.4017 O.2     1  UNL1       -0.2665
     29 N         -71.3902  -56.3848  -20.4976 N.am    1  UNL1       -0.2763
     30 H         -71.7599  -57.1974  -19.9585 H       1  UNL1        0.1553
     31 C         -72.6608  -53.3771  -17.8716 C.3     1  UNL1        0.0345
     32 C         -71.6598  -54.4213  -17.4793 C.ar    1  UNL1        0.0202
     33 C         -70.8629  -55.2222  -18.3066 C.ar    1  UNL1        0.1946
     34 O         -70.0603  -55.9724  -17.5722 O.2     1  UNL1       -0.4492
     35 C         -70.3127  -55.7173  -16.3116 C.ar    1  UNL1        0.1452
     36 C         -69.7080  -56.2859  -15.1959 C.ar    1  UNL1        0.0375
     37 C         -70.1361  -55.8622  -13.9254 C.ar    1  UNL1        0.0031
     38 C         -71.1558  -54.8813  -13.7896 C.ar    1  UNL1        0.0002
     39 C         -71.7436  -54.3266  -14.9518 C.ar    1  UNL1        0.0028
     40 C         -71.2952  -54.7722  -16.1951 C.ar    1  UNL1        0.0337
     41 C         -71.6001  -54.4414  -12.4427 C.ar    1  UNL1        0.0000
     42 C         -70.9877  -53.3427  -11.8101 C.ar    1  UNL1        0.0000
     43 C         -71.4074  -52.9315  -10.5413 C.ar    1  UNL1        0.0000
     44 C         -72.4408  -53.6095   -9.8909 C.ar    1  UNL1        0.0000
     45 C         -73.0565  -54.7007  -10.5077 C.ar    1  UNL1        0.0000
     46 C         -72.6402  -55.1170  -11.7760 C.ar    1  UNL1        0.0000
@<TRIPOS>BOND
     1    31    32    1
     2    32    33   ar
     3    33    27    1
     4    27    28    2
     5    27    29   am
     6    29     1    1
     7     1     2   ar
     8     2     3   ar
     9     3     4   ar
    10     4     9    1
    11     9    10    1
    12    10    11    1
    13    11    12    1
    14    12    15    1
    15    15    16    1
    16    16    17    1
    17    17    18   ar
    18    18    19   ar
    19    19    20   ar
    20    20    21   ar
    21    21    23    1
    22    23    24    2
    23    23    25    1
    24    21    22   ar
    25    12    13    1
    26    13    14    1
    27     4     5   ar
    28     5     6   ar
    29     6     7    1
    30    33    34   ar
    31    34    35   ar
    32    35    36   ar
    33    36    37   ar
    34    37    38   ar
    35    38    41    1
    36    41    42   ar
    37    42    43   ar
    38    43    44   ar
    39    44    45   ar
    40    45    46   ar
    41    38    39   ar
    42    39    40   ar
    43    40    32   ar
    44     6     1   ar
    45    40    35   ar
    46    14     9    1
    47    46    41   ar
    48    22    17   ar
    49    29    30    1
    50    25    26    1
    51     7     8    1
@<TRIPOS>MOLECULE
*****
 46 51 0 0 0
SMALL
GASTEIGER

@<TRIPOS>ATOM
      1 C         -63.0810  -41.2278  -20.8601 C.ar    1  UNL1        0.0743
      2 C         -62.0384  -41.7897  -20.1091 C.ar    1  UNL1        0.0196
      3 C         -61.3069  -42.8649  -20.6138 C.ar    1  UNL1        0.0356
      4 C         -61.6259  -43.3910  -21.8769 C.ar    1  UNL1        0.1323
      5 N         -62.6566  -42.8411  -22.5777 N.ar    1  UNL1       -0.2235
      6 C         -63.3870  -41.7946  -22.1098 C.ar    1  UNL1        0.1179
      7 S         -64.7088  -41.1450  -23.1309 S.3     1  UNL1       -0.1215
      8 H         -65.6557  -42.0056  -22.5449 H       1  UNL1        0.1086
      9 N         -60.8921  -44.5037  -22.4355 N.pl3   1  UNL1       -0.2932
     10 C         -60.3012  -44.4085  -23.7816 C.3     1  UNL1        0.0923
     11 C         -60.0074  -45.7954  -24.3627 C.3     1  UNL1        0.0252
     12 C         -59.1093  -46.6282  -23.4219 C.3     1  UNL1        0.0472
     13 C         -59.4862  -46.4612  -21.9221 C.3     1  UNL1        0.0252
     14 C         -60.8454  -45.7847  -21.7136 C.3     1  UNL1        0.0923
     15 C         -59.1288  -48.1047  -23.8483 C.3     1  UNL1        0.2054
     16 O         -59.8124  -48.8838  -22.8682 O.3     1  UNL1       -0.4755
     17 C         -60.9025  -49.7232  -23.1402 C.ar    1  UNL1        0.1388
     18 C         -61.0060  -51.0214  -22.6072 C.ar    1  UNL1        0.0369
     19 C         -62.1124  -51.8179  -22.9095 C.ar    1  UNL1        0.0033
     20 C         -63.1229  -51.3320  -23.7421 C.ar    1  UNL1        0.0066
     21 C         -63.0366  -50.0375  -24.2836 C.ar    1  UNL1        0.0785
     22 C         -61.9193  -49.2416  -23.9743 C.ar    1  UNL1        0.0433
     23 C         -64.1037  -49.5164  -25.1665 C.2     1  UNL1        0.3381
     24 O         -63.9212  -49.4386  -26.4117 O.2     1  UNL1       -0.2451
     25 O         -65.3214  -49.1061  -24.6295 O.3     1  UNL1       -0.4771
     26 H         -66.0584  -48.7479  -25.2250 H       1  UNL1        0.2954
     27 C         -63.5131  -38.7583  -20.4953 C.2     1  UNL1        0.2840
     28 O         -62.4215  -38.4370  -21.0369 O.2     1  UNL1       -0.2665
     29 N         -63.8661  -40.1429  -20.3373 N.am    1  UNL1       -0.2763
     30 H         -64.7468  -40.3839  -19.8333 H       1  UNL1        0.1553
     31 C         -66.7402  -38.6172  -20.6945 C.3     1  UNL1        0.0345
     32 C         -65.7953  -37.6317  -20.0762 C.ar    1  UNL1        0.0202
     33 C         -64.3975  -37.6854  -20.0088 C.ar    1  UNL1        0.1946
     34 O         -63.9301  -36.5882  -19.4396 O.2     1  UNL1       -0.4492
     35 C         -64.9533  -35.8372  -19.1124 C.ar    1  UNL1        0.1452
     36 C         -64.9258  -34.5971  -18.4839 C.ar    1  UNL1        0.0375
     37 C         -66.1527  -33.9610  -18.2253 C.ar    1  UNL1        0.0031
     38 C         -67.3821  -34.5698  -18.5975 C.ar    1  UNL1        0.0002
     39 C         -67.3647  -35.8324  -19.2375 C.ar    1  UNL1        0.0028
     40 C         -66.1293  -36.4344  -19.4762 C.ar    1  UNL1        0.0337
     41 C         -68.6720  -33.8888  -18.3192 C.ar    1  UNL1        0.0000
     42 C         -69.8704  -34.3677  -18.8820 C.ar    1  UNL1        0.0000
     43 C         -71.0833  -33.7236  -18.6191 C.ar    1  UNL1        0.0000
     44 C         -71.1147  -32.5978  -17.7933 C.ar    1  UNL1        0.0000
     45 C         -69.9329  -32.1130  -17.2288 C.ar    1  UNL1        0.0000
     46 C         -68.7170  -32.7524  -17.4890 C.ar    1  UNL1        0.0000
@<TRIPOS>BOND
     1    31    32    1
     2    32    33   ar
     3    33    27    1
     4    27    28    2
     5    27    29   am
     6    29     1    1
     7     1     2   ar
     8     2     3   ar
     9     3     4   ar
    10     4     9    1
    11     9    10    1
    12    10    11    1
    13    11    12    1
    14    12    15    1
    15    15    16    1
    16    16    17    1
    17    17    18   ar
    18    18    19   ar
    19    19    20   ar
    20    20    21   ar
    21    21    23    1
    22    23    24    2
    23    23    25    1
    24    21    22   ar
    25    12    13    1
    26    13    14    1
    27     4     5   ar
    28     5     6   ar
    29     6     7    1
    30    33    34   ar
    31    34    35   ar
    32    35    36   ar
    33    36    37   ar
    34    37    38   ar
    35    38    41    1
    36    41    42   ar
    37    42    43   ar
    38    43    44   ar
    39    44    45   ar
    40    45    46   ar
    41    38    39   ar
    42    39    40   ar
    43    40    32   ar
    44     6     1   ar
    45    40    35   ar
    46    14     9    1
    47    46    41   ar
    48    22    17   ar
    49    29    30    1
    50    25    26    1
    51     7     8    1
@<TRIPOS>MOLECULE
*****
 46 51 0 0 0
SMALL
GASTEIGER

@<TRIPOS>ATOM
      1 C         -61.5638  -45.0269  -22.3624 C.ar    1  UNL1        0.0743
      2 C         -61.0666  -45.8782  -21.3649 C.ar    1  UNL1        0.0196
      3 C         -60.8372  -47.2265  -21.6397 C.ar    1  UNL1        0.0356
      4 C         -61.1161  -47.7323  -22.9204 C.ar    1  UNL1        0.1323
      5 N         -61.6182  -46.8896  -23.8659 N.ar    1  UNL1       -0.2235
      6 C         -61.8530  -45.5726  -23.6254 C.ar    1  UNL1        0.1179
      7 S         -62.4993  -44.5587  -24.9545 S.3     1  UNL1       -0.1215
      8 H         -63.8298  -44.8159  -24.5745 H       1  UNL1        0.1086
      9 N         -60.8918  -49.1224  -23.2455 N.pl3   1  UNL1       -0.2932
     10 C         -60.3912  -49.5070  -24.5765 C.3     1  UNL1        0.0923
     11 C         -60.6782  -50.9817  -24.8774 C.3     1  UNL1        0.0252
     12 C         -60.1057  -51.9080  -23.7821 C.3     1  UNL1        0.0472
     13 C         -60.3004  -51.3396  -22.3474 C.3     1  UNL1        0.0252
     14 C         -61.2885  -50.1695  -22.2912 C.3     1  UNL1        0.0923
     15 C         -60.7068  -53.3160  -23.9183 C.3     1  UNL1        0.2054
     16 O         -61.6789  -53.5295  -22.8964 O.3     1  UNL1       -0.4755
     17 C         -63.0640  -53.5655  -23.1133 C.ar    1  UNL1        0.1388
     18 C         -63.7101  -52.6932  -24.0088 C.ar    1  UNL1        0.0369
     19 C         -65.0927  -52.7697  -24.1884 C.ar    1  UNL1        0.0033
     20 C         -65.8433  -53.7115  -23.4813 C.ar    1  UNL1        0.0066
     21 C         -65.2151  -54.5913  -22.5826 C.ar    1  UNL1        0.0785
     22 C         -63.8222  -54.5081  -22.4074 C.ar    1  UNL1        0.0433
     23 C         -66.0042  -55.5916  -21.8301 C.2     1  UNL1        0.3381
     24 O         -66.6794  -56.4637  -22.4414 O.2     1  UNL1       -0.2451
     25 O         -66.0088  -55.5792  -20.4376 O.3     1  UNL1       -0.4771
     26 H         -66.5455  -56.2595  -19.9129 H       1  UNL1        0.2954
     27 C         -62.9356  -43.2007  -21.2662 C.2     1  UNL1        0.2840
     28 O         -63.7762  -44.0292  -20.8246 O.2     1  UNL1       -0.2665
     29 N         -61.8386  -43.6438  -22.0831 N.am    1  UNL1       -0.2763
     30 H         -61.1905  -42.9325  -22.4851 H       1  UNL1        0.1553
     31 C         -65.3609  -41.8496  -19.6032 C.3     1  UNL1        0.0345
     32 C         -64.1597  -41.1906  -20.2109 C.ar    1  UNL1        0.0202
     33 C         -63.1216  -41.7747  -20.9472 C.ar    1  UNL1        0.1946
     34 O         -62.2838  -40.8421  -21.3652 O.2     1  UNL1       -0.4492
     35 C         -62.7115  -39.6868  -20.9175 C.ar    1  UNL1        0.1452
     36 C         -62.1319  -38.4377  -21.1107 C.ar    1  UNL1        0.0375
     37 C         -62.7639  -37.3209  -20.5358 C.ar    1  UNL1        0.0031
     38 C         -63.9596  -37.4683  -19.7815 C.ar    1  UNL1        0.0002
     39 C         -64.5174  -38.7582  -19.6110 C.ar    1  UNL1        0.0028
     40 C         -63.8621  -39.8429  -20.1938 C.ar    1  UNL1        0.0337
     41 C         -64.6184  -36.2818  -19.1788 C.ar    1  UNL1        0.0000
     42 C         -65.8918  -35.8704  -19.6165 C.ar    1  UNL1        0.0000
     43 C         -66.5091  -34.7521  -19.0479 C.ar    1  UNL1        0.0000
     44 C         -65.8653  -34.0335  -18.0382 C.ar    1  UNL1        0.0000
     45 C         -64.6022  -34.4315  -17.5949 C.ar    1  UNL1        0.0000
     46 C         -63.9796  -35.5484  -18.1606 C.ar    1  UNL1        0.0000
@<TRIPOS>BOND
     1    31    32    1
     2    32    33   ar
     3    33    27    1
     4    27    28    2
     5    27    29   am
     6    29     1    1
     7     1     2   ar
     8     2     3   ar
     9     3     4   ar
    10     4     9    1
    11     9    10    1
    12    10    11    1
    13    11    12    1
    14    12    15    1
    15    15    16    1
    16    16    17    1
    17    17    18   ar
    18    18    19   ar
    19    19    20   ar
    20    20    21   ar
    21    21    23    1
    22    23    24    2
    23    23    25    1
    24    21    22   ar
    25    12    13    1
    26    13    14    1
    27     4     5   ar
    28     5     6   ar
    29     6     7    1
    30    33    34   ar
    31    34    35   ar
    32    35    36   ar
    33    36    37   ar
    34    37    38   ar
    35    38    41    1
    36    41    42   ar
    37    42    43   ar
    38    43    44   ar
    39    44    45   ar
    40    45    46   ar
    41    38    39   ar
    42    39    40   ar
    43    40    32   ar
    44     6     1   ar
    45    40    35   ar
    46    14     9    1
    47    46    41   ar
    48    22    17   ar
    49    29    30    1
    50    25    26    1
    51     7     8    1
