@<TRIPOS>MOLECULE
*****
 47 52 0 0 0
SMALL
GASTEIGER

@<TRIPOS>ATOM
      1 C          -8.3647  -16.8164   24.8042 C.ar    1  UNL1        0.1318
      2 C          -7.5127  -15.7184   24.5960 C.ar    1  UNL1        0.0356
      3 C          -7.1706  -14.8966   25.6710 C.ar    1  UNL1        0.0191
      4 C          -7.6799  -15.1618   26.9517 C.ar    1  UNL1        0.0702
      5 C          -8.5003  -16.2836   27.1242 C.ar    1  UNL1        0.1149
      6 N          -8.8211  -17.0696   26.0629 N.ar    1  UNL1       -0.2279
      7 C          -9.1911  -19.6723   21.5769 C.3     1  UNL1        0.0471
      8 C          -8.8774  -18.1854   21.3015 C.3     1  UNL1        0.0252
      9 C          -8.0476  -17.5646   22.4285 C.3     1  UNL1        0.0923
     10 N          -8.7356  -17.6956   23.7220 N.pl3   1  UNL1       -0.2932
     11 C          -9.7936  -18.7055   23.8887 C.3     1  UNL1        0.0923
     12 C          -9.4657  -19.9646   23.0784 C.3     1  UNL1        0.0252
     13 C         -10.3632  -20.1365   20.6891 C.3     1  UNL1        0.2054
     14 O         -11.1535  -19.0265   20.2587 O.3     1  UNL1       -0.4757
     15 C         -12.0089  -16.8039   20.7161 C.ar    1  UNL1        0.0413
     16 C         -12.7276  -15.9207   21.5338 C.ar    1  UNL1        0.0014
     17 C         -13.3202  -16.3681   22.7141 C.ar    1  UNL1        0.0064
     18 C         -13.1974  -17.7085   23.1097 C.ar    1  UNL1        0.0785
     19 C         -12.4865  -18.5995   22.2873 C.ar    1  UNL1        0.0431
     20 C         -11.8798  -18.1566   21.0933 C.ar    1  UNL1        0.1371
     21 C         -13.8305  -18.1682   24.3697 C.2     1  UNL1        0.3381
     22 O         -13.1113  -18.6033   25.3082 O.2     1  UNL1       -0.2451
     23 O         -15.2139  -18.1504   24.5448 O.3     1  UNL1       -0.4771
     24 H         -15.8549  -17.9174   23.7974 H       1  UNL1        0.2954
     25 C         -11.3506  -16.2692   19.4659 C.3     1  UNL1        0.1717
     26 C          -9.7612  -14.7587   20.2190 C.3     1  UNL1        0.1746
     27 O         -11.0288  -14.8997   19.6148 O.3     1  UNL1       -0.3462
     28 N          -7.3295  -14.3530   28.0879 N.am    1  UNL1       -0.2766
     29 C          -8.2425  -13.4605   28.7438 C.2     1  UNL1        0.2839
     30 O          -9.4833  -13.6747   28.6865 O.2     1  UNL1       -0.2665
     31 H          -6.3942  -14.5025   28.5281 H       1  UNL1        0.1553
     32 C          -7.7548  -12.3345   29.5595 C.ar    1  UNL1        0.1946
     33 O          -8.4352  -11.8586   30.5876 O.2     1  UNL1       -0.4492
     34 C          -7.7421  -10.8765   31.1099 C.ar    1  UNL1        0.1452
     35 C          -8.0767  -10.0983   32.2126 C.ar    1  UNL1        0.0375
     36 C          -7.1773   -9.0926   32.6080 C.ar    1  UNL1        0.0031
     37 C          -5.9635   -8.8808   31.8994 C.ar    1  UNL1        0.0002
     38 C          -5.6624   -9.6945   30.7808 C.ar    1  UNL1        0.0028
     39 C          -6.5783  -10.6821   30.4171 C.ar    1  UNL1        0.0337
     40 C          -6.5689  -11.6080   29.3930 C.ar    1  UNL1        0.0202
     41 C          -5.5120  -11.7738   28.3431 C.3     1  UNL1        0.0345
     42 C          -5.0202   -7.8165   32.3268 C.ar    1  UNL1        0.0000
     43 C          -4.5174   -6.8890   31.3943 C.ar    1  UNL1        0.0000
     44 C          -3.6292   -5.8879   31.7996 C.ar    1  UNL1        0.0000
     45 C          -3.2328   -5.8014   33.1358 C.ar    1  UNL1        0.0000
     46 C          -3.7239   -6.7157   34.0703 C.ar    1  UNL1        0.0000
     47 C          -4.6131   -7.7183   33.6710 C.ar    1  UNL1        0.0000
@<TRIPOS>BOND
     1    26    27    1
     2    27    25    1
     3    25    15    1
     4    15    16   ar
     5    16    17   ar
     6    17    18   ar
     7    18    21    1
     8    21    22    2
     9    21    23    1
    10    18    19   ar
    11    19    20   ar
    12    20    14    1
    13    14    13    1
    14    13     7    1
    15     7     8    1
    16     8     9    1
    17     9    10    1
    18    10     1    1
    19     1     2   ar
    20     2     3   ar
    21     3     4   ar
    22     4    28    1
    23    28    29   am
    24    29    30    2
    25    29    32    1
    26    32    33   ar
    27    33    34   ar
    28    34    35   ar
    29    35    36   ar
    30    36    37   ar
    31    37    42    1
    32    42    43   ar
    33    43    44   ar
    34    44    45   ar
    35    45    46   ar
    36    46    47   ar
    37    37    38   ar
    38    38    39   ar
    39    39    40   ar
    40    40    41    1
    41     4     5   ar
    42     5     6   ar
    43    10    11    1
    44    11    12    1
    45    20    15   ar
    46    12     7    1
    47     6     1   ar
    48    40    32   ar
    49    39    34   ar
    50    47    42   ar
    51    23    24    1
    52    28    31    1
@<TRIPOS>MOLECULE
*****
 47 52 0 0 0
SMALL
GASTEIGER

@<TRIPOS>ATOM
      1 C          -8.3590  -12.8579   29.3217 C.ar    1  UNL1        0.1318
      2 C          -9.2179  -13.7754   28.6931 C.ar    1  UNL1        0.0356
      3 C          -8.7455  -14.5462   27.6297 C.ar    1  UNL1        0.0191
      4 C          -7.4216  -14.4011   27.1868 C.ar    1  UNL1        0.0702
      5 C          -6.5881  -13.4989   27.8596 C.ar    1  UNL1        0.1149
      6 N          -7.0697  -12.7580   28.8922 N.ar    1  UNL1       -0.2279
      7 C          -9.7616  -10.7004   32.8761 C.3     1  UNL1        0.0471
      8 C         -10.5713  -10.7378   31.5615 C.3     1  UNL1        0.0252
      9 C         -10.2433  -11.9812   30.7307 C.3     1  UNL1        0.0923
     10 N          -8.8051  -12.0487   30.4299 N.pl3   1  UNL1       -0.2932
     11 C          -7.8499  -11.2853   31.2495 C.3     1  UNL1        0.0923
     12 C          -8.3132  -11.2391   32.7099 C.3     1  UNL1        0.0252
     13 C          -9.7682   -9.2728   33.4585 C.3     1  UNL1        0.2054
     14 O          -9.5825   -8.2972   32.4310 O.3     1  UNL1       -0.4757
     15 C          -8.2513   -7.4069   30.6100 C.ar    1  UNL1        0.0413
     16 C          -7.0280   -6.9350   30.1140 C.ar    1  UNL1        0.0014
     17 C          -5.9046   -6.8713   30.9375 C.ar    1  UNL1        0.0064
     18 C          -5.9765   -7.2898   32.2747 C.ar    1  UNL1        0.0785
     19 C          -7.2039   -7.7538   32.7787 C.ar    1  UNL1        0.0431
     20 C          -8.3455   -7.8260   31.9532 C.ar    1  UNL1        0.1371
     21 C          -4.7719   -7.2193   33.1370 C.2     1  UNL1        0.3381
     22 O          -3.7834   -6.5271   32.7747 O.2     1  UNL1       -0.2451
     23 O          -4.6902   -7.9165   34.3420 O.3     1  UNL1       -0.4771
     24 H          -5.3991   -8.5740   34.6404 H       1  UNL1        0.2954
     25 C          -9.4334   -7.4953   29.6733 C.3     1  UNL1        0.1717
     26 C         -10.8153   -5.7113   30.2044 C.3     1  UNL1        0.1746
     27 O          -9.8643   -6.2048   29.2859 O.3     1  UNL1       -0.3462
     28 N          -6.8919  -15.1955   26.1116 N.am    1  UNL1       -0.2766
     29 C          -5.9471  -16.2602   26.2968 C.2     1  UNL1        0.2839
     30 O          -5.8915  -16.8683   27.3994 O.2     1  UNL1       -0.2665
     31 H          -7.2970  -15.0647   25.1578 H       1  UNL1        0.1553
     32 C          -5.0883  -16.7187   25.1907 C.ar    1  UNL1        0.1946
     33 O          -5.4271  -16.5676   23.9223 O.2     1  UNL1       -0.4492
     34 C          -4.4624  -17.0620   23.1857 C.ar    1  UNL1        0.1452
     35 C          -4.3960  -17.1058   21.7975 C.ar    1  UNL1        0.0375
     36 C          -3.2566  -17.6821   21.2091 C.ar    1  UNL1        0.0031
     37 C          -2.2061  -18.2032   22.0125 C.ar    1  UNL1        0.0002
     38 C          -2.3149  -18.1402   23.4225 C.ar    1  UNL1        0.0028
     39 C          -3.4598  -17.5620   23.9713 C.ar    1  UNL1        0.0337
     40 C          -3.8490  -17.3652   25.2812 C.ar    1  UNL1        0.0202
     41 C          -3.0949  -17.7700   26.5117 C.3     1  UNL1        0.0345
     42 C          -1.0065  -18.8085   21.3801 C.ar    1  UNL1        0.0000
     43 C          -0.4988  -20.0386   21.8400 C.ar    1  UNL1        0.0000
     44 C           0.6310  -20.6062   21.2427 C.ar    1  UNL1        0.0000
     45 C           1.2662  -19.9544   20.1836 C.ar    1  UNL1        0.0000
     46 C           0.7729  -18.7334   19.7187 C.ar    1  UNL1        0.0000
     47 C          -0.3572  -18.1615   20.3115 C.ar    1  UNL1        0.0000
@<TRIPOS>BOND
     1    26    27    1
     2    27    25    1
     3    25    15    1
     4    15    16   ar
     5    16    17   ar
     6    17    18   ar
     7    18    21    1
     8    21    22    2
     9    21    23    1
    10    18    19   ar
    11    19    20   ar
    12    20    14    1
    13    14    13    1
    14    13     7    1
    15     7     8    1
    16     8     9    1
    17     9    10    1
    18    10     1    1
    19     1     2   ar
    20     2     3   ar
    21     3     4   ar
    22     4    28    1
    23    28    29   am
    24    29    30    2
    25    29    32    1
    26    32    33   ar
    27    33    34   ar
    28    34    35   ar
    29    35    36   ar
    30    36    37   ar
    31    37    42    1
    32    42    43   ar
    33    43    44   ar
    34    44    45   ar
    35    45    46   ar
    36    46    47   ar
    37    37    38   ar
    38    38    39   ar
    39    39    40   ar
    40    40    41    1
    41     4     5   ar
    42     5     6   ar
    43    10    11    1
    44    11    12    1
    45    20    15   ar
    46    12     7    1
    47     6     1   ar
    48    40    32   ar
    49    39    34   ar
    50    47    42   ar
    51    23    24    1
    52    28    31    1
@<TRIPOS>MOLECULE
*****
 47 52 0 0 0
SMALL
GASTEIGER

@<TRIPOS>ATOM
      1 C          -8.6860  -16.9724   25.2655 C.ar    1  UNL1        0.1318
      2 C          -7.9790  -15.7914   24.9823 C.ar    1  UNL1        0.0356
      3 C          -7.6288  -14.9301   26.0232 C.ar    1  UNL1        0.0191
      4 C          -7.9862  -15.2390   27.3449 C.ar    1  UNL1        0.0702
      5 C          -8.6628  -16.4406   27.5895 C.ar    1  UNL1        0.1149
      6 N          -8.9944  -17.2638   26.5603 N.ar    1  UNL1       -0.2279
      7 C          -9.5904  -20.0080   22.2287 C.3     1  UNL1        0.0471
      8 C          -8.8757  -18.6834   21.8828 C.3     1  UNL1        0.0252
      9 C          -8.1373  -18.1065   23.0936 C.3     1  UNL1        0.0923
     10 N          -9.0592  -17.8939   24.2198 N.pl3   1  UNL1       -0.2932
     11 C         -10.3454  -18.6089   24.2573 C.3     1  UNL1        0.0923
     12 C         -10.1962  -20.0127   23.6600 C.3     1  UNL1        0.0252
     13 C         -10.6596  -20.3234   21.1635 C.3     1  UNL1        0.2054
     14 O         -11.8327  -19.5319   21.3619 O.3     1  UNL1       -0.4757
     15 C         -12.8280  -17.5892   22.4183 C.ar    1  UNL1        0.0413
     16 C         -12.8793  -16.2018   22.6127 C.ar    1  UNL1        0.0014
     17 C         -11.9858  -15.3585   21.9533 C.ar    1  UNL1        0.0064
     18 C         -11.0267  -15.8836   21.0743 C.ar    1  UNL1        0.0785
     19 C         -10.9651  -17.2750   20.8847 C.ar    1  UNL1        0.0431
     20 C         -11.8668  -18.1368   21.5437 C.ar    1  UNL1        0.1371
     21 C         -10.0856  -14.9732   20.3777 C.2     1  UNL1        0.3381
     22 O         -10.4536  -14.3744   19.3321 O.2     1  UNL1       -0.2451
     23 O          -8.7852  -14.7696   20.8384 O.3     1  UNL1       -0.4771
     24 H          -8.3896  -15.2982   21.6052 H       1  UNL1        0.2954
     25 C         -13.8395  -18.4627   23.1226 C.3     1  UNL1        0.1717
     26 C         -14.0753  -18.4610   25.4289 C.3     1  UNL1        0.1746
     27 O         -14.3998  -17.7873   24.2321 O.3     1  UNL1       -0.3462
     28 N          -7.6208  -14.3893   28.4460 N.am    1  UNL1       -0.2766
     29 C          -8.4786  -13.3750   28.9898 C.2     1  UNL1        0.2839
     30 O          -9.7294  -13.4793   28.8742 O.2     1  UNL1       -0.2665
     31 H          -6.7279  -14.5924   28.9483 H       1  UNL1        0.1553
     32 C          -7.9300  -12.2445   29.7595 C.ar    1  UNL1        0.1946
     33 O          -8.5509  -11.7357   30.8092 O.2     1  UNL1       -0.4492
     34 C          -7.8141  -10.7588   31.2789 C.ar    1  UNL1        0.1452
     35 C          -8.0800   -9.9535   32.3809 C.ar    1  UNL1        0.0375
     36 C          -7.1429   -8.9598   32.7137 C.ar    1  UNL1        0.0031
     37 C          -5.9603   -8.7864   31.9443 C.ar    1  UNL1        0.0002
     38 C          -5.7293   -9.6268   30.8288 C.ar    1  UNL1        0.0028
     39 C          -6.6810  -10.6015   30.5281 C.ar    1  UNL1        0.0337
     40 C          -6.7391  -11.5462   29.5229 C.ar    1  UNL1        0.0202
     41 C          -5.7371  -11.7534   28.4275 C.3     1  UNL1        0.0345
     42 C          -4.9766   -7.7344   32.3058 C.ar    1  UNL1        0.0000
     43 C          -4.4709   -6.8599   31.3250 C.ar    1  UNL1        0.0000
     44 C          -3.5447   -5.8701   31.6682 C.ar    1  UNL1        0.0000
     45 C          -3.1126   -5.7425   32.9900 C.ar    1  UNL1        0.0000
     46 C          -3.6060   -6.6042   33.9721 C.ar    1  UNL1        0.0000
     47 C          -4.5332   -7.5951   33.6348 C.ar    1  UNL1        0.0000
@<TRIPOS>BOND
     1    26    27    1
     2    27    25    1
     3    25    15    1
     4    15    16   ar
     5    16    17   ar
     6    17    18   ar
     7    18    21    1
     8    21    22    2
     9    21    23    1
    10    18    19   ar
    11    19    20   ar
    12    20    14    1
    13    14    13    1
    14    13     7    1
    15     7     8    1
    16     8     9    1
    17     9    10    1
    18    10     1    1
    19     1     2   ar
    20     2     3   ar
    21     3     4   ar
    22     4    28    1
    23    28    29   am
    24    29    30    2
    25    29    32    1
    26    32    33   ar
    27    33    34   ar
    28    34    35   ar
    29    35    36   ar
    30    36    37   ar
    31    37    42    1
    32    42    43   ar
    33    43    44   ar
    34    44    45   ar
    35    45    46   ar
    36    46    47   ar
    37    37    38   ar
    38    38    39   ar
    39    39    40   ar
    40    40    41    1
    41     4     5   ar
    42     5     6   ar
    43    10    11    1
    44    11    12    1
    45    20    15   ar
    46    12     7    1
    47     6     1   ar
    48    40    32   ar
    49    39    34   ar
    50    47    42   ar
    51    23    24    1
    52    28    31    1
@<TRIPOS>MOLECULE
*****
 47 52 0 0 0
SMALL
GASTEIGER

@<TRIPOS>ATOM
      1 C          -9.3914  -16.9311   25.4571 C.ar    1  UNL1        0.1318
      2 C          -9.1080  -15.5959   25.1230 C.ar    1  UNL1        0.0356
      3 C          -8.6749  -14.7134   26.1138 C.ar    1  UNL1        0.0191
      4 C          -8.5291  -15.1558   27.4378 C.ar    1  UNL1        0.0702
      5 C          -8.7912  -16.5014   27.7242 C.ar    1  UNL1        0.1149
      6 N          -9.2127  -17.3427   26.7437 N.ar    1  UNL1       -0.2279
      7 C         -10.9566  -19.9424   22.6755 C.3     1  UNL1        0.0471
      8 C          -9.5004  -19.9724   23.1890 C.3     1  UNL1        0.0252
      9 C          -9.3634  -19.2690   24.5420 C.3     1  UNL1        0.0923
     10 N          -9.8328  -17.8774   24.4614 N.pl3   1  UNL1       -0.2932
     11 C         -10.7292  -17.4700   23.3670 C.3     1  UNL1        0.0923
     12 C         -11.6871  -18.6108   23.0054 C.3     1  UNL1        0.0252
     13 C         -10.9883  -20.2426   21.1635 C.3     1  UNL1        0.2054
     14 O         -10.3026  -19.2304   20.4236 O.3     1  UNL1       -0.4757
     15 C          -8.6369  -17.5304   20.8884 C.ar    1  UNL1        0.0413
     16 C          -7.2966  -17.1495   21.0430 C.ar    1  UNL1        0.0014
     17 C          -6.2712  -18.0829   20.8950 C.ar    1  UNL1        0.0064
     18 C          -6.5631  -19.4178   20.5772 C.ar    1  UNL1        0.0785
     19 C          -7.9062  -19.8060   20.4317 C.ar    1  UNL1        0.0431
     20 C          -8.9509  -18.8691   20.5753 C.ar    1  UNL1        0.1371
     21 C          -5.4611  -20.3979   20.4196 C.2     1  UNL1        0.3381
     22 O          -5.7283  -21.6193   20.2635 O.2     1  UNL1       -0.2451
     23 O          -4.1224  -20.0091   20.4565 O.3     1  UNL1       -0.4771
     24 H          -3.8347  -19.0665   20.6859 H       1  UNL1        0.2954
     25 C          -9.7141  -16.4793   21.0193 C.3     1  UNL1        0.1717
     26 C         -11.7608  -16.1605   19.9782 C.3     1  UNL1        0.1746
     27 O         -10.3679  -16.2739   19.7818 O.3     1  UNL1       -0.3462
     28 N          -8.0608  -14.2828   28.4802 N.am    1  UNL1       -0.2766
     29 C          -8.8892  -13.3161   29.1432 C.2     1  UNL1        0.2839
     30 O         -10.1360  -13.4908   29.2039 O.2     1  UNL1       -0.2665
     31 H          -7.0963  -14.4337   28.8514 H       1  UNL1        0.1553
     32 C          -8.3021  -12.1538   29.8329 C.ar    1  UNL1        0.1946
     33 O          -8.9882  -11.4195   30.6911 O.2     1  UNL1       -0.4492
     34 C          -8.1956  -10.4763   31.1384 C.ar    1  UNL1        0.1452
     35 C          -8.4997   -9.4853   32.0652 C.ar    1  UNL1        0.0375
     36 C          -7.4890   -8.5704   32.4087 C.ar    1  UNL1        0.0031
     37 C          -6.1964   -8.6590   31.8239 C.ar    1  UNL1        0.0002
     38 C          -5.9297   -9.6824   30.8829 C.ar    1  UNL1        0.0028
     39 C          -6.9566  -10.5719   30.5659 C.ar    1  UNL1        0.0337
     40 C          -7.0034  -11.6464   29.7001 C.ar    1  UNL1        0.0202
     41 C          -5.8949  -12.1370   28.8184 C.3     1  UNL1        0.0345
     42 C          -5.1360   -7.6880   32.1952 C.ar    1  UNL1        0.0000
     43 C          -4.6087   -6.8025   31.2359 C.ar    1  UNL1        0.0000
     44 C          -3.6102   -5.8892   31.5882 C.ar    1  UNL1        0.0000
     45 C          -3.1268   -5.8497   32.8978 C.ar    1  UNL1        0.0000
     46 C          -3.6410   -6.7232   33.8584 C.ar    1  UNL1        0.0000
     47 C          -4.6404   -7.6380   33.5120 C.ar    1  UNL1        0.0000
@<TRIPOS>BOND
     1    26    27    1
     2    27    25    1
     3    25    15    1
     4    15    16   ar
     5    16    17   ar
     6    17    18   ar
     7    18    21    1
     8    21    22    2
     9    21    23    1
    10    18    19   ar
    11    19    20   ar
    12    20    14    1
    13    14    13    1
    14    13     7    1
    15     7     8    1
    16     8     9    1
    17     9    10    1
    18    10     1    1
    19     1     2   ar
    20     2     3   ar
    21     3     4   ar
    22     4    28    1
    23    28    29   am
    24    29    30    2
    25    29    32    1
    26    32    33   ar
    27    33    34   ar
    28    34    35   ar
    29    35    36   ar
    30    36    37   ar
    31    37    42    1
    32    42    43   ar
    33    43    44   ar
    34    44    45   ar
    35    45    46   ar
    36    46    47   ar
    37    37    38   ar
    38    38    39   ar
    39    39    40   ar
    40    40    41    1
    41     4     5   ar
    42     5     6   ar
    43    10    11    1
    44    11    12    1
    45    20    15   ar
    46    12     7    1
    47     6     1   ar
    48    40    32   ar
    49    39    34   ar
    50    47    42   ar
    51    23    24    1
    52    28    31    1
@<TRIPOS>MOLECULE
*****
 47 52 0 0 0
SMALL
GASTEIGER

@<TRIPOS>ATOM
      1 C          -6.9879  -16.6289   24.0630 C.ar    1  UNL1        0.1318
      2 C          -5.7898  -15.9373   24.3100 C.ar    1  UNL1        0.0356
      3 C          -5.6582  -15.1786   25.4741 C.ar    1  UNL1        0.0191
      4 C          -6.7190  -15.1019   26.3899 C.ar    1  UNL1        0.0702
      5 C          -7.8847  -15.8308   26.1230 C.ar    1  UNL1        0.1149
      6 N          -7.9912  -16.5623   24.9826 N.ar    1  UNL1       -0.2279
      7 C          -7.1917  -19.2077   20.5186 C.3     1  UNL1        0.0471
      8 C          -7.1125  -17.6688   20.4149 C.3     1  UNL1        0.0252
      9 C          -6.4466  -17.0527   21.6482 C.3     1  UNL1        0.0923
     10 N          -7.1614  -17.4314   22.8766 N.pl3   1  UNL1       -0.2932
     11 C          -8.0471  -18.6072   22.8745 C.3     1  UNL1        0.0923
     12 C          -7.4822  -19.7026   21.9630 C.3     1  UNL1        0.0252
     13 C          -8.2314  -19.7503   19.5175 C.3     1  UNL1        0.2054
     14 O          -9.4688  -20.0437   20.1692 O.3     1  UNL1       -0.4757
     15 C         -11.0035  -19.3255   21.9041 C.ar    1  UNL1        0.0413
     16 C         -11.9261  -18.3964   22.4048 C.ar    1  UNL1        0.0014
     17 C         -12.2407  -17.2468   21.6809 C.ar    1  UNL1        0.0064
     18 C         -11.6474  -17.0061   20.4325 C.ar    1  UNL1        0.0785
     19 C         -10.7140  -17.9301   19.9318 C.ar    1  UNL1        0.0431
     20 C         -10.3915  -19.0981   20.6541 C.ar    1  UNL1        0.1371
     21 C         -11.9951  -15.7805   19.6730 C.2     1  UNL1        0.3381
     22 O         -11.0861  -14.9777   19.3317 O.2     1  UNL1       -0.2451
     23 O         -13.3134  -15.4757   19.3355 O.3     1  UNL1       -0.4771
     24 H         -14.1006  -16.0166   19.6696 H       1  UNL1        0.2954
     25 C         -10.7205  -20.5762   22.7029 C.3     1  UNL1        0.1717
     26 C         -10.2292  -20.2450   24.9443 C.3     1  UNL1        0.1746
     27 O         -11.2594  -20.4714   24.0067 O.3     1  UNL1       -0.3462
     28 N          -6.6112  -14.3514   27.6118 N.am    1  UNL1       -0.2766
     29 C          -7.7330  -13.7688   28.2918 C.2     1  UNL1        0.2839
     30 O          -8.8838  -14.2617   28.1452 O.2     1  UNL1       -0.2665
     31 H          -5.6828  -14.3203   28.0893 H       1  UNL1        0.1553
     32 C          -7.5570  -12.6473   29.2311 C.ar    1  UNL1        0.1946
     33 O          -8.4315  -12.3793   30.1850 O.2     1  UNL1       -0.4492
     34 C          -7.9934  -11.3402   30.8531 C.ar    1  UNL1        0.1452
     35 C          -8.5933  -10.7229   31.9452 C.ar    1  UNL1        0.0375
     36 C          -7.9426   -9.6155   32.5169 C.ar    1  UNL1        0.0031
     37 C          -6.7088   -9.1441   31.9917 C.ar    1  UNL1        0.0002
     38 C          -6.1334   -9.8008   30.8773 C.ar    1  UNL1        0.0028
     39 C          -6.8073  -10.8957   30.3357 C.ar    1  UNL1        0.0337
     40 C          -6.5082  -11.7196   29.2690 C.ar    1  UNL1        0.0202
     41 C          -5.3187  -11.6177   28.3626 C.3     1  UNL1        0.0345
     42 C          -6.0296   -7.9744   32.6045 C.ar    1  UNL1        0.0000
     43 C          -6.7014   -6.7437   32.7342 C.ar    1  UNL1        0.0000
     44 C          -6.0594   -5.6438   33.3116 C.ar    1  UNL1        0.0000
     45 C          -4.7431   -5.7584   33.7640 C.ar    1  UNL1        0.0000
     46 C          -4.0657   -6.9734   33.6404 C.ar    1  UNL1        0.0000
     47 C          -4.7030   -8.0769   33.0647 C.ar    1  UNL1        0.0000
@<TRIPOS>BOND
     1    26    27    1
     2    27    25    1
     3    25    15    1
     4    15    16   ar
     5    16    17   ar
     6    17    18   ar
     7    18    21    1
     8    21    22    2
     9    21    23    1
    10    18    19   ar
    11    19    20   ar
    12    20    14    1
    13    14    13    1
    14    13     7    1
    15     7     8    1
    16     8     9    1
    17     9    10    1
    18    10     1    1
    19     1     2   ar
    20     2     3   ar
    21     3     4   ar
    22     4    28    1
    23    28    29   am
    24    29    30    2
    25    29    32    1
    26    32    33   ar
    27    33    34   ar
    28    34    35   ar
    29    35    36   ar
    30    36    37   ar
    31    37    42    1
    32    42    43   ar
    33    43    44   ar
    34    44    45   ar
    35    45    46   ar
    36    46    47   ar
    37    37    38   ar
    38    38    39   ar
    39    39    40   ar
    40    40    41    1
    41     4     5   ar
    42     5     6   ar
    43    10    11    1
    44    11    12    1
    45    20    15   ar
    46    12     7    1
    47     6     1   ar
    48    40    32   ar
    49    39    34   ar
    50    47    42   ar
    51    23    24    1
    52    28    31    1
@<TRIPOS>MOLECULE
*****
 47 52 0 0 0
SMALL
GASTEIGER

@<TRIPOS>ATOM
      1 C          -7.8406  -16.3506   24.3361 C.ar    1  UNL1        0.1318
      2 C          -8.5475  -16.6245   25.5193 C.ar    1  UNL1        0.0356
      3 C          -8.2356  -15.9265   26.6870 C.ar    1  UNL1        0.0191
      4 C          -7.2173  -14.9606   26.6808 C.ar    1  UNL1        0.0702
      5 C          -6.5578  -14.6943   25.4743 C.ar    1  UNL1        0.1149
      6 N          -6.8774  -15.3869   24.3495 N.ar    1  UNL1       -0.2279
      7 C          -8.4286  -18.3430   20.4709 C.3     1  UNL1        0.0471
      8 C          -9.2957  -17.1473   20.9222 C.3     1  UNL1        0.0252
      9 C          -8.5581  -16.2633   21.9315 C.3     1  UNL1        0.0923
     10 N          -8.1380  -17.0431   23.1057 N.pl3   1  UNL1       -0.2932
     11 C          -8.0400  -18.5090   23.0133 C.3     1  UNL1        0.0923
     12 C          -7.5597  -18.9277   21.6191 C.3     1  UNL1        0.0252
     13 C          -9.3187  -19.4268   19.8301 C.3     1  UNL1        0.2054
     14 O         -10.6687  -19.3197   20.2863 O.3     1  UNL1       -0.4757
     15 C         -12.1609  -18.2200   21.8498 C.ar    1  UNL1        0.0413
     16 C         -12.5821  -17.9768   23.1646 C.ar    1  UNL1        0.0014
     17 C         -11.9421  -18.5906   24.2407 C.ar    1  UNL1        0.0064
     18 C         -10.8571  -19.4537   24.0265 C.ar    1  UNL1        0.0785
     19 C         -10.4383  -19.7084   22.7091 C.ar    1  UNL1        0.0431
     20 C         -11.0762  -19.0898   21.6135 C.ar    1  UNL1        0.1371
     21 C         -10.1845  -20.0962   25.1817 C.2     1  UNL1        0.3381
     22 O          -9.7924  -19.3901   26.1487 O.2     1  UNL1       -0.2451
     23 O          -9.9536  -21.4708   25.2249 O.3     1  UNL1       -0.4771
     24 H         -10.1429  -22.0802   24.4396 H       1  UNL1        0.2954
     25 C         -12.8574  -17.5046   20.7161 C.3     1  UNL1        0.1717
     26 C         -11.9766  -15.7958   19.4204 C.3     1  UNL1        0.1746
     27 O         -12.4952  -16.1374   20.6876 O.3     1  UNL1       -0.3462
     28 N          -6.8851  -14.2034   27.8573 N.am    1  UNL1       -0.2766
     29 C          -7.8326  -13.4138   28.5916 C.2     1  UNL1        0.2839
     30 O          -9.0588  -13.7031   28.5518 O.2     1  UNL1       -0.2665
     31 H          -5.9300  -14.3198   28.2634 H       1  UNL1        0.1553
     32 C          -7.3926  -12.3119   29.4653 C.ar    1  UNL1        0.1946
     33 O          -8.0517  -11.9691   30.5583 O.2     1  UNL1       -0.4492
     34 C          -7.4117  -10.9721   31.1188 C.ar    1  UNL1        0.1452
     35 C          -7.7467  -10.3051   32.2920 C.ar    1  UNL1        0.0375
     36 C          -6.9103   -9.2584   32.7180 C.ar    1  UNL1        0.0031
     37 C          -5.7577   -8.8958   31.9693 C.ar    1  UNL1        0.0002
     38 C          -5.4542   -9.5998   30.7792 C.ar    1  UNL1        0.0028
     39 C          -6.3067  -10.6321   30.3869 C.ar    1  UNL1        0.0337
     40 C          -6.2793  -11.4787   29.2967 C.ar    1  UNL1        0.0202
     41 C          -5.2715  -11.4804   28.1871 C.3     1  UNL1        0.0345
     42 C          -4.8806   -7.7895   32.4294 C.ar    1  UNL1        0.0000
     43 C          -4.6103   -7.6132   33.8000 C.ar    1  UNL1        0.0000
     44 C          -3.7840   -6.5705   34.2305 C.ar    1  UNL1        0.0000
     45 C          -3.2203   -5.6934   33.3013 C.ar    1  UNL1        0.0000
     46 C          -3.4813   -5.8572   31.9392 C.ar    1  UNL1        0.0000
     47 C          -4.3060   -6.8988   31.5028 C.ar    1  UNL1        0.0000
@<TRIPOS>BOND
     1    26    27    1
     2    27    25    1
     3    25    15    1
     4    15    16   ar
     5    16    17   ar
     6    17    18   ar
     7    18    21    1
     8    21    22    2
     9    21    23    1
    10    18    19   ar
    11    19    20   ar
    12    20    14    1
    13    14    13    1
    14    13     7    1
    15     7     8    1
    16     8     9    1
    17     9    10    1
    18    10     1    1
    19     1     2   ar
    20     2     3   ar
    21     3     4   ar
    22     4    28    1
    23    28    29   am
    24    29    30    2
    25    29    32    1
    26    32    33   ar
    27    33    34   ar
    28    34    35   ar
    29    35    36   ar
    30    36    37   ar
    31    37    42    1
    32    42    43   ar
    33    43    44   ar
    34    44    45   ar
    35    45    46   ar
    36    46    47   ar
    37    37    38   ar
    38    38    39   ar
    39    39    40   ar
    40    40    41    1
    41     4     5   ar
    42     5     6   ar
    43    10    11    1
    44    11    12    1
    45    20    15   ar
    46    12     7    1
    47     6     1   ar
    48    40    32   ar
    49    39    34   ar
    50    47    42   ar
    51    23    24    1
    52    28    31    1
@<TRIPOS>MOLECULE
*****
 47 52 0 0 0
SMALL
GASTEIGER

@<TRIPOS>ATOM
      1 C          -9.2927  -16.9418   25.4429 C.ar    1  UNL1        0.1318
      2 C          -9.1367  -17.4791   26.7320 C.ar    1  UNL1        0.0356
      3 C          -8.7416  -16.6495   27.7825 C.ar    1  UNL1        0.0191
      4 C          -8.4955  -15.2872   27.5512 C.ar    1  UNL1        0.0702
      5 C          -8.6926  -14.7836   26.2594 C.ar    1  UNL1        0.1149
      6 N          -9.0769  -15.6101   25.2513 N.ar    1  UNL1       -0.2279
      7 C         -10.8189  -19.5636   22.2725 C.3     1  UNL1        0.0471
      8 C          -9.4442  -19.7901   22.9389 C.3     1  UNL1        0.0252
      9 C          -9.3965  -19.2004   24.3510 C.3     1  UNL1        0.0923
     10 N          -9.7081  -17.7630   24.3317 N.pl3   1  UNL1       -0.2932
     11 C         -10.4226  -17.1849   23.1818 C.3     1  UNL1        0.0923
     12 C         -11.4429  -18.1849   22.6263 C.3     1  UNL1        0.0252
     13 C         -10.7025  -19.7544   20.7468 C.3     1  UNL1        0.2054
     14 O         -10.0044  -18.6631   20.1437 O.3     1  UNL1       -0.4757
     15 C          -7.6009  -18.9844   20.1574 C.ar    1  UNL1        0.0413
     16 C          -6.3160  -18.5448   20.5052 C.ar    1  UNL1        0.0014
     17 C          -6.1369  -17.3398   21.1838 C.ar    1  UNL1        0.0064
     18 C          -7.2415  -16.5519   21.5406 C.ar    1  UNL1        0.0785
     19 C          -8.5307  -16.9841   21.1845 C.ar    1  UNL1        0.0431
     20 C          -8.7234  -18.2032   20.5015 C.ar    1  UNL1        0.1371
     21 C          -7.0348  -15.2745   22.2654 C.2     1  UNL1        0.3381
     22 O          -5.8705  -14.8113   22.3964 O.2     1  UNL1       -0.2451
     23 O          -8.0985  -14.5698   22.8282 O.3     1  UNL1       -0.4771
     24 H          -9.0414  -14.9360   22.8554 H       1  UNL1        0.2954
     25 C          -7.7524  -20.3143   19.4567 C.3     1  UNL1        0.1717
     26 C          -6.0747  -21.3320   20.6913 C.3     1  UNL1        0.1746
     27 O          -6.5124  -20.9923   19.3934 O.3     1  UNL1       -0.3462
     28 N          -8.1120  -14.3965   28.6130 N.am    1  UNL1       -0.2766
     29 C          -8.9332  -13.3180   29.0854 C.2     1  UNL1        0.2839
     30 O         -10.1852  -13.3739   28.9505 O.2     1  UNL1       -0.2665
     31 H          -7.2381  -14.6110   29.1431 H       1  UNL1        0.1553
     32 C          -8.3484  -12.1730   29.8051 C.ar    1  UNL1        0.1946
     33 O          -9.0256  -11.4830   30.7062 O.2     1  UNL1       -0.4492
     34 C          -8.2377  -10.5443   31.1707 C.ar    1  UNL1        0.1452
     35 C          -8.5354   -9.5941   32.1413 C.ar    1  UNL1        0.0375
     36 C          -7.5314   -8.6761   32.4960 C.ar    1  UNL1        0.0031
     37 C          -6.2518   -8.7211   31.8788 C.ar    1  UNL1        0.0002
     38 C          -5.9912   -9.7037   30.8937 C.ar    1  UNL1        0.0028
     39 C          -7.0111  -10.5976   30.5667 C.ar    1  UNL1        0.0337
     40 C          -7.0613  -11.6393   29.6620 C.ar    1  UNL1        0.0202
     41 C          -5.9664  -12.0779   28.7370 C.3     1  UNL1        0.0345
     42 C          -5.1983   -7.7472   32.2623 C.ar    1  UNL1        0.0000
     43 C          -4.6457   -6.8762   31.3039 C.ar    1  UNL1        0.0000
     44 C          -3.6538   -5.9602   31.6678 C.ar    1  UNL1        0.0000
     45 C          -3.2023   -5.9035   32.9881 C.ar    1  UNL1        0.0000
     46 C          -3.7419   -6.7625   33.9479 C.ar    1  UNL1        0.0000
     47 C          -4.7348   -7.6799   33.5900 C.ar    1  UNL1        0.0000
@<TRIPOS>BOND
     1    26    27    1
     2    27    25    1
     3    25    15    1
     4    15    16   ar
     5    16    17   ar
     6    17    18   ar
     7    18    21    1
     8    21    22    2
     9    21    23    1
    10    18    19   ar
    11    19    20   ar
    12    20    14    1
    13    14    13    1
    14    13     7    1
    15     7     8    1
    16     8     9    1
    17     9    10    1
    18    10     1    1
    19     1     2   ar
    20     2     3   ar
    21     3     4   ar
    22     4    28    1
    23    28    29   am
    24    29    30    2
    25    29    32    1
    26    32    33   ar
    27    33    34   ar
    28    34    35   ar
    29    35    36   ar
    30    36    37   ar
    31    37    42    1
    32    42    43   ar
    33    43    44   ar
    34    44    45   ar
    35    45    46   ar
    36    46    47   ar
    37    37    38   ar
    38    38    39   ar
    39    39    40   ar
    40    40    41    1
    41     4     5   ar
    42     5     6   ar
    43    10    11    1
    44    11    12    1
    45    20    15   ar
    46    12     7    1
    47     6     1   ar
    48    40    32   ar
    49    39    34   ar
    50    47    42   ar
    51    23    24    1
    52    28    31    1
@<TRIPOS>MOLECULE
*****
 47 52 0 0 0
SMALL
GASTEIGER

@<TRIPOS>ATOM
      1 C          -6.7477  -10.8686   29.8651 C.ar    1  UNL1        0.1318
      2 C          -7.7807  -11.8173   29.9526 C.ar    1  UNL1        0.0356
      3 C          -7.7511  -12.9475   29.1342 C.ar    1  UNL1        0.0191
      4 C          -6.6985  -13.1323   28.2244 C.ar    1  UNL1        0.0702
      5 C          -5.6719  -12.1802   28.1897 C.ar    1  UNL1        0.1149
      6 N          -5.7219  -11.0868   28.9952 N.ar    1  UNL1       -0.2279
      7 C          -6.3703   -7.3635   32.4779 C.3     1  UNL1        0.0471
      8 C          -7.2799   -8.5607   32.8309 C.3     1  UNL1        0.0252
      9 C          -6.8017   -9.8511   32.1598 C.3     1  UNL1        0.0923
     10 N          -6.7359   -9.6913   30.6992 N.pl3   1  UNL1       -0.2932
     11 C          -6.6725   -8.3425   30.1130 C.3     1  UNL1        0.0923
     12 C          -5.8577   -7.4051   31.0113 C.3     1  UNL1        0.0252
     13 C          -7.1001   -6.0398   32.7823 C.3     1  UNL1        0.2054
     14 O          -8.5154   -6.1919   32.6563 O.3     1  UNL1       -0.4757
     15 C          -9.2425   -6.3036   30.3455 C.ar    1  UNL1        0.0413
     16 C          -9.9039   -6.9765   29.3088 C.ar    1  UNL1        0.0014
     17 C         -10.4999   -8.2170   29.5335 C.ar    1  UNL1        0.0064
     18 C         -10.4576   -8.8080   30.8052 C.ar    1  UNL1        0.0785
     19 C          -9.7864   -8.1414   31.8448 C.ar    1  UNL1        0.0431
     20 C          -9.1835   -6.8844   31.6293 C.ar    1  UNL1        0.1371
     21 C         -11.0993  -10.1263   31.0293 C.2     1  UNL1        0.3381
     22 O         -11.1271  -10.9743   30.0979 O.2     1  UNL1       -0.2451
     23 O         -11.6952  -10.4549   32.2465 O.3     1  UNL1       -0.4771
     24 H         -11.8050   -9.7859   32.9978 H       1  UNL1        0.2954
     25 C          -8.6440   -4.9444   30.0683 C.3     1  UNL1        0.1717
     26 C         -10.9158   -4.4824   30.0598 C.3     1  UNL1        0.1746
     27 O          -9.6419   -4.0321   29.6523 O.3     1  UNL1       -0.3462
     28 N          -6.6204  -14.2962   27.3836 N.am    1  UNL1       -0.2766
     29 C          -5.7254  -14.4157   26.2678 C.2     1  UNL1        0.2839
     30 O          -4.6566  -13.7481   26.2433 O.2     1  UNL1       -0.2665
     31 H          -7.1649  -15.1424   27.6636 H       1  UNL1        0.1553
     32 C          -5.9890  -15.3714   25.1776 C.ar    1  UNL1        0.1946
     33 O          -5.0198  -15.9070   24.4564 O.2     1  UNL1       -0.4492
     34 C          -5.5675  -16.7155   23.5822 C.ar    1  UNL1        0.1452
     35 C          -4.9203  -17.4939   22.6290 C.ar    1  UNL1        0.0375
     36 C          -5.7089  -18.2995   21.7888 C.ar    1  UNL1        0.0031
     37 C          -7.1247  -18.3150   21.9131 C.ar    1  UNL1        0.0002
     38 C          -7.7435  -17.5056   22.8960 C.ar    1  UNL1        0.0028
     39 C          -6.9297  -16.7188   23.7115 C.ar    1  UNL1        0.0337
     40 C          -7.2317  -15.8403   24.7328 C.ar    1  UNL1        0.0202
     41 C          -8.5985  -15.4807   25.2320 C.3     1  UNL1        0.0345
     42 C          -7.9476  -19.1708   21.0212 C.ar    1  UNL1        0.0000
     43 C          -9.3495  -19.0407   20.9981 C.ar    1  UNL1        0.0000
     44 C         -10.1219  -19.8480   20.1572 C.ar    1  UNL1        0.0000
     45 C          -9.5065  -20.7925   19.3329 C.ar    1  UNL1        0.0000
     46 C          -8.1170  -20.9318   19.3471 C.ar    1  UNL1        0.0000
     47 C          -7.3394  -20.1265   20.1852 C.ar    1  UNL1        0.0000
@<TRIPOS>BOND
     1    26    27    1
     2    27    25    1
     3    25    15    1
     4    15    16   ar
     5    16    17   ar
     6    17    18   ar
     7    18    21    1
     8    21    22    2
     9    21    23    1
    10    18    19   ar
    11    19    20   ar
    12    20    14    1
    13    14    13    1
    14    13     7    1
    15     7     8    1
    16     8     9    1
    17     9    10    1
    18    10     1    1
    19     1     2   ar
    20     2     3   ar
    21     3     4   ar
    22     4    28    1
    23    28    29   am
    24    29    30    2
    25    29    32    1
    26    32    33   ar
    27    33    34   ar
    28    34    35   ar
    29    35    36   ar
    30    36    37   ar
    31    37    42    1
    32    42    43   ar
    33    43    44   ar
    34    44    45   ar
    35    45    46   ar
    36    46    47   ar
    37    37    38   ar
    38    38    39   ar
    39    39    40   ar
    40    40    41    1
    41     4     5   ar
    42     5     6   ar
    43    10    11    1
    44    11    12    1
    45    20    15   ar
    46    12     7    1
    47     6     1   ar
    48    40    32   ar
    49    39    34   ar
    50    47    42   ar
    51    23    24    1
    52    28    31    1
@<TRIPOS>MOLECULE
*****
 47 52 0 0 0
SMALL
GASTEIGER

@<TRIPOS>ATOM
      1 C          -8.5938  -17.1297   24.8041 C.ar    1  UNL1        0.1318
      2 C          -8.8120  -17.4225   26.1611 C.ar    1  UNL1        0.0356
      3 C          -8.3684  -16.5314   27.1395 C.ar    1  UNL1        0.0191
      4 C          -7.7025  -15.3524   26.7701 C.ar    1  UNL1        0.0702
      5 C          -7.5324  -15.0815   25.4066 C.ar    1  UNL1        0.1149
      6 N          -7.9717  -15.9640   24.4711 N.ar    1  UNL1       -0.2279
      7 C          -9.7191  -20.0709   21.7483 C.3     1  UNL1        0.0471
      8 C          -9.0514  -18.7250   21.3907 C.3     1  UNL1        0.0252
      9 C          -8.2192  -18.1800   22.5545 C.3     1  UNL1        0.0923
     10 N          -9.0442  -18.0196   23.7615 N.pl3   1  UNL1       -0.2932
     11 C         -10.3144  -18.7538   23.8821 C.3     1  UNL1        0.0923
     12 C         -10.2008  -20.1338   23.2246 C.3     1  UNL1        0.0252
     13 C         -10.8715  -20.3644   20.7667 C.3     1  UNL1        0.2054
     14 O         -11.5652  -19.1657   20.4147 O.3     1  UNL1       -0.4757
     15 C         -12.2254  -16.9096   21.0104 C.ar    1  UNL1        0.0413
     16 C         -12.8552  -16.0177   21.8896 C.ar    1  UNL1        0.0014
     17 C         -13.4647  -16.4805   23.0553 C.ar    1  UNL1        0.0064
     18 C         -13.4478  -17.8466   23.3742 C.ar    1  UNL1        0.0785
     19 C         -12.8264  -18.7454   22.4901 C.ar    1  UNL1        0.0431
     20 C         -12.2035  -18.2874   21.3102 C.ar    1  UNL1        0.1371
     21 C         -14.0974  -18.3229   24.6196 C.2     1  UNL1        0.3381
     22 O         -15.3456  -18.4916   24.6485 O.2     1  UNL1       -0.2451
     23 O         -13.3646  -18.5767   25.7786 O.3     1  UNL1       -0.4771
     24 H         -12.3794  -18.3600   25.8590 H       1  UNL1        0.2954
     25 C         -11.5442  -16.3612   19.7785 C.3     1  UNL1        0.1717
     26 C          -9.8084  -15.1786   20.7598 C.3     1  UNL1        0.1746
     27 O         -10.1436  -16.2965   19.9664 O.3     1  UNL1       -0.3462
     28 N          -7.2539  -14.3984   27.7481 N.am    1  UNL1       -0.2766
     29 C          -8.1387  -13.6213   28.5688 C.2     1  UNL1        0.2839
     30 O          -9.2955  -14.0492   28.8287 O.2     1  UNL1       -0.2665
     31 H          -6.2306  -14.3458   27.9503 H       1  UNL1        0.1553
     32 C          -7.6938  -12.3607   29.1888 C.ar    1  UNL1        0.1946
     33 O          -6.4223  -12.1095   29.4471 O.2     1  UNL1       -0.4492
     34 C          -6.3482  -10.9157   29.9831 C.ar    1  UNL1        0.1452
     35 C          -5.2036  -10.2463   30.4017 C.ar    1  UNL1        0.0375
     36 C          -5.3541   -8.9601   30.9490 C.ar    1  UNL1        0.0031
     37 C          -6.6395   -8.3652   31.0693 C.ar    1  UNL1        0.0002
     38 C          -7.7791   -9.0824   30.6325 C.ar    1  UNL1        0.0028
     39 C          -7.5918  -10.3562   30.0951 C.ar    1  UNL1        0.0337
     40 C          -8.4877  -11.2824   29.5995 C.ar    1  UNL1        0.0202
     41 C          -9.9786  -11.1420   29.5329 C.3     1  UNL1        0.0345
     42 C          -6.7866   -7.0055   31.6477 C.ar    1  UNL1        0.0000
     43 C          -7.0092   -6.8349   33.0275 C.ar    1  UNL1        0.0000
     44 C          -7.1474   -5.5533   33.5695 C.ar    1  UNL1        0.0000
     45 C          -7.0664   -4.4303   32.7433 C.ar    1  UNL1        0.0000
     46 C          -6.8467   -4.5862   31.3730 C.ar    1  UNL1        0.0000
     47 C          -6.7067   -5.8653   30.8256 C.ar    1  UNL1        0.0000
@<TRIPOS>BOND
     1    26    27    1
     2    27    25    1
     3    25    15    1
     4    15    16   ar
     5    16    17   ar
     6    17    18   ar
     7    18    21    1
     8    21    22    2
     9    21    23    1
    10    18    19   ar
    11    19    20   ar
    12    20    14    1
    13    14    13    1
    14    13     7    1
    15     7     8    1
    16     8     9    1
    17     9    10    1
    18    10     1    1
    19     1     2   ar
    20     2     3   ar
    21     3     4   ar
    22     4    28    1
    23    28    29   am
    24    29    30    2
    25    29    32    1
    26    32    33   ar
    27    33    34   ar
    28    34    35   ar
    29    35    36   ar
    30    36    37   ar
    31    37    42    1
    32    42    43   ar
    33    43    44   ar
    34    44    45   ar
    35    45    46   ar
    36    46    47   ar
    37    37    38   ar
    38    38    39   ar
    39    39    40   ar
    40    40    41    1
    41     4     5   ar
    42     5     6   ar
    43    10    11    1
    44    11    12    1
    45    20    15   ar
    46    12     7    1
    47     6     1   ar
    48    40    32   ar
    49    39    34   ar
    50    47    42   ar
    51    23    24    1
    52    28    31    1
