@<TRIPOS>MOLECULE
*****
 50 56 0 0 0
SMALL
GASTEIGER

@<TRIPOS>ATOM
      1 C          59.3842   84.6727   13.4538 C.ar    1  UNL1        0.0481
      2 C          60.3822   83.6866   13.4217 C.ar    1  UNL1        0.0176
      3 C          60.1419   82.4516   12.8119 C.ar    1  UNL1        0.0382
      4 C          58.8922   82.1826   12.2169 C.ar    1  UNL1        0.1388
      5 C          57.9026   83.1719   12.2458 C.ar    1  UNL1        0.0382
      6 C          58.1432   84.4059   12.8550 C.ar    1  UNL1        0.0176
      7 N          60.9104   88.3936   14.1272 N.pl3   1  UNL1       -0.3041
      8 C          61.0275   87.5698   15.3389 C.3     1  UNL1        0.1122
      9 C          60.7784   86.0978   14.9904 C.3     1  UNL1        0.1122
     10 N          59.6377   85.9493   14.0714 N.pl3   1  UNL1       -0.3041
     11 C          58.8147   87.1207   13.7385 C.3     1  UNL1        0.1122
     12 C          59.7152   88.2720   13.2763 C.3     1  UNL1        0.1122
     13 C          64.1052   90.9484   12.9244 C.ar    1  UNL1        0.0699
     14 C          63.0527   90.6567   12.0399 C.ar    1  UNL1        0.0190
     15 C          62.0049   89.8202   12.4351 C.ar    1  UNL1        0.0160
     16 C          61.9833   89.2667   13.7248 C.ar    1  UNL1        0.0480
     17 C          63.0335   89.5581   14.6098 C.ar    1  UNL1        0.0160
     18 C          64.0813   90.3945   14.2153 C.ar    1  UNL1        0.0190
     19 N          66.5258   93.1643   11.3721 N.ar    1  UNL1       -0.2024
     20 N          67.0893   92.9874   12.5578 N.ar    1  UNL1       -0.1442
     21 C          66.2722   92.1648   13.2509 C.ar    1  UNL1        0.2073
     22 N          65.1862   91.8135   12.5256 N.ar    1  UNL1       -0.2398
     23 C          65.3822   92.4514   11.3547 C.ar    1  UNL1        0.3522
     24 O          64.6152   92.3642   10.3581 O.2     1  UNL1       -0.2444
     25 C          67.1118   93.9840   10.3049 C.3     1  UNL1        0.1099
     26 C          66.0402   94.8923    9.6864 C.3     1  UNL1        0.0265
     27 C          68.7714   92.0845    9.8848 C.3     1  UNL1        0.0021
     28 C          67.7981   93.0826    9.2573 C.3     1  UNL1        0.0245
     29 O          58.5802   80.9661   11.5839 O.3     1  UNL1       -0.4727
     30 C          58.4958   80.7282   10.1766 C.3     1  UNL1        0.2374
     31 C          58.1861   82.0247    9.4116 C.3     1  UNL1        0.1909
     32 C          58.3705   81.9108    7.9245 C.3     1  UNL1        0.1783
     33 O          59.6483   82.3914    7.6697 O.3     1  UNL1       -0.3266
     34 C          59.9397   83.2754    8.7323 C.3     1  UNL1        0.2315
     35 O          59.0725   83.0201    9.8237 O.3     1  UNL1       -0.3254
     36 C          59.7812   84.7245    8.2554 C.ar    1  UNL1        0.0410
     37 C          58.8100   85.5557    8.8571 C.ar    1  UNL1        0.0022
     38 C          58.6620   86.8876    8.4672 C.ar    1  UNL1        0.0113
     39 C          59.4860   87.4244    7.4798 C.ar    1  UNL1        0.0585
     40 CL         59.2987   89.0999    6.9951 Cl      1  UNL1       -0.0822
     41 C          60.4680   86.6307    6.8864 C.ar    1  UNL1        0.0226
     42 C          60.6309   85.2929    7.2677 C.ar    1  UNL1        0.0591
     43 CL         61.9294   84.3930    6.4862 Cl      1  UNL1       -0.0824
     44 C          61.3892   83.0192    9.1939 C.3     1  UNL1        0.1911
     45 N          61.8546   84.0517   10.1224 N.ar    1  UNL1       -0.2116
     46 N          61.1363   85.0963   10.4952 N.ar    1  UNL1       -0.0430
     47 N          61.8305   85.7981   11.3784 N.ar    1  UNL1       -0.0230
     48 N          63.0046   85.2206   11.5965 N.ar    1  UNL1       -0.1127
     49 C          63.0155   84.1345   10.8016 C.ar    1  UNL1        0.1615
     50 C          64.1327   83.1406   10.7686 C.3     1  UNL1        0.0754
@<TRIPOS>BOND
     1    27    28    1
     2    28    25    1
     3    25    26    1
     4    25    19    1
     5    19    20   ar
     6    20    21   ar
     7    21    22   ar
     8    22    13    1
     9    13    14   ar
    10    14    15   ar
    11    15    16   ar
    12    16     7    1
    13     7     8    1
    14     8     9    1
    15     9    10    1
    16    10     1    1
    17     1     2   ar
    18     2     3   ar
    19     3     4   ar
    20     4    29    1
    21    29    30    1
    22    30    31    1
    23    31    32    1
    24    32    33    1
    25    33    34    1
    26    34    44    1
    27    44    45    1
    28    45    46   ar
    29    46    47   ar
    30    47    48   ar
    31    48    49   ar
    32    49    50    1
    33    34    36    1
    34    36    37   ar
    35    37    38   ar
    36    38    39   ar
    37    39    40    1
    38    39    41   ar
    39    41    42   ar
    40    42    43    1
    41    34    35    1
    42     4     5   ar
    43     5     6   ar
    44    10    11    1
    45    11    12    1
    46    16    17   ar
    47    17    18   ar
    48    22    23   ar
    49    23    24    2
    50    23    19   ar
    51    18    13   ar
    52    12     7    1
    53     6     1   ar
    54    35    31    1
    55    49    45   ar
    56    42    36   ar
@<TRIPOS>MOLECULE
*****
 50 56 0 0 0
SMALL
GASTEIGER

@<TRIPOS>ATOM
      1 C          59.3957   84.4405    8.4155 C.ar    1  UNL1        0.0481
      2 C          58.1568   84.3359    9.0664 C.ar    1  UNL1        0.0176
      3 C          57.5486   83.0891    9.2411 C.ar    1  UNL1        0.0382
      4 C          58.1761   81.9184    8.7678 C.ar    1  UNL1        0.1388
      5 C          59.4147   82.0275    8.1254 C.ar    1  UNL1        0.0382
      6 C          60.0221   83.2736    7.9511 C.ar    1  UNL1        0.0176
      7 N          61.5778   87.7950    9.1990 N.pl3   1  UNL1       -0.3041
      8 C          60.2579   88.1609    8.6657 C.3     1  UNL1        0.1122
      9 C          59.3300   86.9409    8.6976 C.3     1  UNL1        0.1122
     10 N          60.0268   85.7246    8.2474 N.pl3   1  UNL1       -0.3041
     11 C          61.3866   85.8263    7.6985 C.3     1  UNL1        0.1122
     12 C          62.2776   86.6149    8.6650 C.3     1  UNL1        0.1122
     13 C          63.3431   89.9812   12.4060 C.ar    1  UNL1        0.0699
     14 C          62.9763   90.6316   11.2152 C.ar    1  UNL1        0.0190
     15 C          62.3964   89.9148   10.1648 C.ar    1  UNL1        0.0160
     16 C          62.1628   88.5361   10.2870 C.ar    1  UNL1        0.0480
     17 C          62.5277   87.8853   11.4763 C.ar    1  UNL1        0.0160
     18 C          63.1073   88.6015   12.5270 C.ar    1  UNL1        0.0190
     19 N          65.2656   92.0069   14.7254 N.ar    1  UNL1       -0.2024
     20 N          64.3272   91.5406   15.5358 N.ar    1  UNL1       -0.1442
     21 C          63.5267   90.7553   14.7827 C.ar    1  UNL1        0.2073
     22 N          63.9370   90.7145   13.4947 N.ar    1  UNL1       -0.2398
     23 C          65.0300   91.5029   13.4979 C.ar    1  UNL1        0.3522
     24 O          65.7603   91.7132   12.4921 O.2     1  UNL1       -0.2444
     25 C          66.3534   92.8908   15.1607 C.3     1  UNL1        0.1099
     26 C          66.6926   93.8974   14.0527 C.3     1  UNL1        0.0265
     27 C          68.8505   92.8926   15.7112 C.3     1  UNL1        0.0021
     28 C          67.5763   92.0559   15.5946 C.3     1  UNL1        0.0245
     29 O          57.6261   80.6318    8.9102 O.3     1  UNL1       -0.4727
     30 C          57.5962   79.8384   10.0992 C.3     1  UNL1        0.2374
     31 C          58.9741   79.8040   10.7790 C.3     1  UNL1        0.1909
     32 C          58.9603   79.1842   12.1479 C.3     1  UNL1        0.1783
     33 O          58.8547   80.2462   13.0366 O.3     1  UNL1       -0.3266
     34 C          59.3934   81.3625   12.3589 C.3     1  UNL1        0.2315
     35 O          59.4238   81.1115   10.9645 O.3     1  UNL1       -0.3254
     36 C          60.8079   81.6477   12.8785 C.ar    1  UNL1        0.0410
     37 C          61.0063   81.9203   14.2506 C.ar    1  UNL1        0.0022
     38 C          62.2847   82.1532   14.7600 C.ar    1  UNL1        0.0113
     39 C          63.3940   82.1068   13.9177 C.ar    1  UNL1        0.0585
     40 CL         64.9992   82.3970   14.5629 Cl      1  UNL1       -0.0822
     41 C          63.2269   81.8171   12.5632 C.ar    1  UNL1        0.0226
     42 C          61.9512   81.5789   12.0366 C.ar    1  UNL1        0.0591
     43 CL         61.8575   81.1792   10.3224 Cl      1  UNL1       -0.0824
     44 C          58.4747   82.5753   12.6137 C.3     1  UNL1        0.1911
     45 N          59.1537   83.8411   12.3283 N.ar    1  UNL1       -0.2116
     46 N          60.2851   83.9434   11.6534 N.ar    1  UNL1       -0.0430
     47 N          60.5933   85.2256   11.5291 N.ar    1  UNL1       -0.0230
     48 N          59.6682   85.9745   12.1148 N.ar    1  UNL1       -0.1127
     49 C          58.7764   85.1017   12.6191 C.ar    1  UNL1        0.1615
     50 C          57.5185   85.5098   13.3177 C.3     1  UNL1        0.0754
@<TRIPOS>BOND
     1    27    28    1
     2    28    25    1
     3    25    26    1
     4    25    19    1
     5    19    20   ar
     6    20    21   ar
     7    21    22   ar
     8    22    13    1
     9    13    14   ar
    10    14    15   ar
    11    15    16   ar
    12    16     7    1
    13     7     8    1
    14     8     9    1
    15     9    10    1
    16    10     1    1
    17     1     2   ar
    18     2     3   ar
    19     3     4   ar
    20     4    29    1
    21    29    30    1
    22    30    31    1
    23    31    32    1
    24    32    33    1
    25    33    34    1
    26    34    44    1
    27    44    45    1
    28    45    46   ar
    29    46    47   ar
    30    47    48   ar
    31    48    49   ar
    32    49    50    1
    33    34    36    1
    34    36    37   ar
    35    37    38   ar
    36    38    39   ar
    37    39    40    1
    38    39    41   ar
    39    41    42   ar
    40    42    43    1
    41    34    35    1
    42     4     5   ar
    43     5     6   ar
    44    10    11    1
    45    11    12    1
    46    16    17   ar
    47    17    18   ar
    48    22    23   ar
    49    23    24    2
    50    23    19   ar
    51    18    13   ar
    52    12     7    1
    53     6     1   ar
    54    35    31    1
    55    49    45   ar
    56    42    36   ar
@<TRIPOS>MOLECULE
*****
 50 56 0 0 0
SMALL
GASTEIGER

@<TRIPOS>ATOM
      1 C          59.6843   85.7768    9.2791 C.ar    1  UNL1        0.0481
      2 C          58.7153   84.8924    9.7775 C.ar    1  UNL1        0.0176
      3 C          58.7574   83.5338    9.4501 C.ar    1  UNL1        0.0382
      4 C          59.7787   83.0336    8.6165 C.ar    1  UNL1        0.1388
      5 C          60.7465   83.9186    8.1276 C.ar    1  UNL1        0.0382
      6 C          60.7042   85.2761    8.4551 C.ar    1  UNL1        0.0176
      7 N          60.9085   89.5194   10.3382 N.pl3   1  UNL1       -0.3041
      8 C          59.8153   89.0756   11.2148 C.3     1  UNL1        0.1122
      9 C          59.5949   87.5681   11.0452 C.3     1  UNL1        0.1122
     10 N          59.6468   87.1741    9.6275 N.pl3   1  UNL1       -0.3041
     11 C          59.7325   88.2094    8.5876 C.3     1  UNL1        0.1122
     12 C          60.8824   89.1713    8.9079 C.3     1  UNL1        0.1122
     13 C          64.2799   91.5938   11.9227 C.ar    1  UNL1        0.0699
     14 C          63.9395   91.7170   10.5647 C.ar    1  UNL1        0.0190
     15 C          62.8334   91.0380   10.0460 C.ar    1  UNL1        0.0160
     16 C          62.0403   90.2302   10.8760 C.ar    1  UNL1        0.0480
     17 C          62.3786   90.1070   12.2330 C.ar    1  UNL1        0.0160
     18 C          63.4842   90.7859   12.7522 C.ar    1  UNL1        0.0190
     19 N          67.2133   92.8527   13.6518 N.ar    1  UNL1       -0.2024
     20 N          66.9448   93.8785   12.8580 N.ar    1  UNL1       -0.1442
     21 C          65.8517   93.5336   12.1433 C.ar    1  UNL1        0.2073
     22 N          65.4159   92.2945   12.4654 N.ar    1  UNL1       -0.2398
     23 C          66.2870   91.9025   13.4160 C.ar    1  UNL1        0.3522
     24 O          66.2234   90.8048   14.0325 O.2     1  UNL1       -0.2444
     25 C          68.3233   92.8331   14.6118 C.3     1  UNL1        0.1099
     26 C          69.5024   92.0332   14.0411 C.3     1  UNL1        0.0265
     27 C          66.4762   92.8392   16.3801 C.3     1  UNL1        0.0021
     28 C          67.8415   92.2856   15.9716 C.3     1  UNL1        0.0245
     29 O          59.8861   81.6807    8.2478 O.3     1  UNL1       -0.4727
     30 C          60.5615   80.6463    8.9676 C.3     1  UNL1        0.2374
     31 C          61.7752   81.2013    9.7298 C.3     1  UNL1        0.1909
     32 C          62.3848   80.2238   10.6948 C.3     1  UNL1        0.1783
     33 O          61.8221   80.5190   11.9296 O.3     1  UNL1       -0.3266
     34 C          61.4450   81.8786   11.8589 C.3     1  UNL1        0.2315
     35 O          61.3690   82.2882   10.5044 O.3     1  UNL1       -0.3254
     36 C          62.4654   82.7366   12.6171 C.ar    1  UNL1        0.0410
     37 C          62.6670   84.0822   12.2361 C.ar    1  UNL1        0.0022
     38 C          63.5655   84.8980   12.9255 C.ar    1  UNL1        0.0113
     39 C          64.2725   84.3962   14.0166 C.ar    1  UNL1        0.0585
     40 CL         65.3983   85.4260   14.8822 Cl      1  UNL1       -0.0822
     41 C          64.0742   83.0775   14.4269 C.ar    1  UNL1        0.0226
     42 C          63.1748   82.2464   13.7472 C.ar    1  UNL1        0.0591
     43 CL         62.9678   80.6125   14.3750 Cl      1  UNL1       -0.0824
     44 C          60.0455   82.0281   12.4903 C.3     1  UNL1        0.1911
     45 N          59.5266   80.7462   12.9722 N.ar    1  UNL1       -0.2116
     46 N          59.7326   80.2689   14.1870 N.ar    1  UNL1       -0.0430
     47 N          59.0827   79.1214   14.3104 N.ar    1  UNL1       -0.0230
     48 N          58.4424   78.8380   13.1838 N.ar    1  UNL1       -0.1127
     49 C          58.7315   79.8539   12.3496 C.ar    1  UNL1        0.1615
     50 C          58.1652   79.9839   10.9714 C.3     1  UNL1        0.0754
@<TRIPOS>BOND
     1    27    28    1
     2    28    25    1
     3    25    26    1
     4    25    19    1
     5    19    20   ar
     6    20    21   ar
     7    21    22   ar
     8    22    13    1
     9    13    14   ar
    10    14    15   ar
    11    15    16   ar
    12    16     7    1
    13     7     8    1
    14     8     9    1
    15     9    10    1
    16    10     1    1
    17     1     2   ar
    18     2     3   ar
    19     3     4   ar
    20     4    29    1
    21    29    30    1
    22    30    31    1
    23    31    32    1
    24    32    33    1
    25    33    34    1
    26    34    44    1
    27    44    45    1
    28    45    46   ar
    29    46    47   ar
    30    47    48   ar
    31    48    49   ar
    32    49    50    1
    33    34    36    1
    34    36    37   ar
    35    37    38   ar
    36    38    39   ar
    37    39    40    1
    38    39    41   ar
    39    41    42   ar
    40    42    43    1
    41    34    35    1
    42     4     5   ar
    43     5     6   ar
    44    10    11    1
    45    11    12    1
    46    16    17   ar
    47    17    18   ar
    48    22    23   ar
    49    23    24    2
    50    23    19   ar
    51    18    13   ar
    52    12     7    1
    53     6     1   ar
    54    35    31    1
    55    49    45   ar
    56    42    36   ar
@<TRIPOS>MOLECULE
*****
 50 56 0 0 0
SMALL
GASTEIGER

@<TRIPOS>ATOM
      1 C          59.6766   84.9963   13.6655 C.ar    1  UNL1        0.0481
      2 C          60.6310   83.9695   13.6005 C.ar    1  UNL1        0.0176
      3 C          60.3373   82.7661   12.9520 C.ar    1  UNL1        0.0382
      4 C          59.0771   82.5706   12.3505 C.ar    1  UNL1        0.1388
      5 C          58.1313   83.6003   12.4124 C.ar    1  UNL1        0.0382
      6 C          58.4251   84.8027   13.0604 C.ar    1  UNL1        0.0176
      7 N          61.2689   88.6784   14.3966 N.pl3   1  UNL1       -0.3041
      8 C          61.4806   87.7950   15.5522 C.3     1  UNL1        0.1122
      9 C          61.1975   86.3424   15.1524 C.3     1  UNL1        0.1122
     10 N          59.9851   86.2403   14.3232 N.pl3   1  UNL1       -0.3041
     11 C          59.1428   87.4272   14.1172 C.3     1  UNL1        0.1122
     12 C          60.0078   88.5998   13.6410 C.3     1  UNL1        0.1122
     13 C          64.3705   91.2888   13.0750 C.ar    1  UNL1        0.0699
     14 C          63.4240   90.7867   12.1654 C.ar    1  UNL1        0.0190
     15 C          62.4066   89.9321   12.5993 C.ar    1  UNL1        0.0160
     16 C          62.3093   89.5702   13.9520 C.ar    1  UNL1        0.0480
     17 C          63.2534   90.0718   14.8620 C.ar    1  UNL1        0.0160
     18 C          64.2707   90.9264   14.4288 C.ar    1  UNL1        0.0190
     19 N          66.7028   93.5277   11.4236 N.ar    1  UNL1       -0.2024
     20 N          67.2844   93.4071   12.6076 N.ar    1  UNL1       -0.1442
     21 C          66.5013   92.5823   13.3365 C.ar    1  UNL1        0.2073
     22 N          65.4191   92.1738   12.6358 N.ar    1  UNL1       -0.2398
     23 C          65.5821   92.7792   11.4428 C.ar    1  UNL1        0.3522
     24 O          64.8075   92.6356   10.4587 O.2     1  UNL1       -0.2444
     25 C          67.2509   94.3301   10.3238 C.3     1  UNL1        0.1099
     26 C          66.1209   94.7996    9.3972 C.3     1  UNL1        0.0265
     27 C          68.0831   92.0249    9.5943 C.3     1  UNL1        0.0021
     28 C          68.3373   93.5322    9.5728 C.3     1  UNL1        0.0245
     29 O          58.7127   81.3896   11.6795 O.3     1  UNL1       -0.4727
     30 C          58.0869   81.2893   10.3979 C.3     1  UNL1        0.2374
     31 C          59.1145   81.4376    9.2647 C.3     1  UNL1        0.1909
     32 C          60.5378   81.2454    9.7070 C.3     1  UNL1        0.1783
     33 O          61.0289   82.5221    9.9471 O.3     1  UNL1       -0.3266
     34 C          60.2526   83.3845    9.1414 C.3     1  UNL1        0.2315
     35 O          59.0516   82.7365    8.7594 O.3     1  UNL1       -0.3254
     36 C          61.0552   83.7913    7.8994 C.ar    1  UNL1        0.0410
     37 C          60.4593   83.6996    6.6216 C.ar    1  UNL1        0.0022
     38 C          61.1522   84.0911    5.4751 C.ar    1  UNL1        0.0113
     39 C          62.4478   84.5944    5.5769 C.ar    1  UNL1        0.0585
     40 CL         63.3139   85.0884    4.1336 Cl      1  UNL1       -0.0822
     41 C          63.0500   84.7164    6.8295 C.ar    1  UNL1        0.0226
     42 C          62.3676   84.3299    7.9899 C.ar    1  UNL1        0.0591
     43 CL         63.2037   84.5667    9.5234 Cl      1  UNL1       -0.0824
     44 C          59.8877   84.6304    9.9748 C.3     1  UNL1        0.1911
     45 N          59.4393   85.7384    9.1285 N.ar    1  UNL1       -0.2116
     46 N          58.3262   85.7281    8.4165 N.ar    1  UNL1       -0.0430
     47 N          58.1946   86.9002    7.8137 N.ar    1  UNL1       -0.0230
     48 N          59.2136   87.6896    8.1268 N.ar    1  UNL1       -0.1127
     49 C          59.9914   86.9534    8.9421 C.ar    1  UNL1        0.1615
     50 C          61.2331   87.4708    9.5959 C.3     1  UNL1        0.0754
@<TRIPOS>BOND
     1    27    28    1
     2    28    25    1
     3    25    26    1
     4    25    19    1
     5    19    20   ar
     6    20    21   ar
     7    21    22   ar
     8    22    13    1
     9    13    14   ar
    10    14    15   ar
    11    15    16   ar
    12    16     7    1
    13     7     8    1
    14     8     9    1
    15     9    10    1
    16    10     1    1
    17     1     2   ar
    18     2     3   ar
    19     3     4   ar
    20     4    29    1
    21    29    30    1
    22    30    31    1
    23    31    32    1
    24    32    33    1
    25    33    34    1
    26    34    44    1
    27    44    45    1
    28    45    46   ar
    29    46    47   ar
    30    47    48   ar
    31    48    49   ar
    32    49    50    1
    33    34    36    1
    34    36    37   ar
    35    37    38   ar
    36    38    39   ar
    37    39    40    1
    38    39    41   ar
    39    41    42   ar
    40    42    43    1
    41    34    35    1
    42     4     5   ar
    43     5     6   ar
    44    10    11    1
    45    11    12    1
    46    16    17   ar
    47    17    18   ar
    48    22    23   ar
    49    23    24    2
    50    23    19   ar
    51    18    13   ar
    52    12     7    1
    53     6     1   ar
    54    35    31    1
    55    49    45   ar
    56    42    36   ar
@<TRIPOS>MOLECULE
*****
 50 56 0 0 0
SMALL
GASTEIGER

@<TRIPOS>ATOM
      1 C          59.0264   84.6265    8.8373 C.ar    1  UNL1        0.0481
      2 C          58.1309   84.5400    9.9144 C.ar    1  UNL1        0.0176
      3 C          57.5662   83.3121   10.2725 C.ar    1  UNL1        0.0382
      4 C          57.8934   82.1422    9.5567 C.ar    1  UNL1        0.1388
      5 C          58.7921   82.2328    8.4876 C.ar    1  UNL1        0.0382
      6 C          59.3563   83.4599    8.1302 C.ar    1  UNL1        0.0176
      7 N          61.2999   88.0072    9.0105 N.pl3   1  UNL1       -0.3041
      8 C          59.9083   88.3473    8.6815 C.3     1  UNL1        0.1122
      9 C          59.0022   87.1408    8.9526 C.3     1  UNL1        0.1122
     10 N          59.6170   85.8902    8.4775 N.pl3   1  UNL1       -0.3041
     11 C          60.8654   85.9418    7.7032 C.3     1  UNL1        0.1122
     12 C          61.9036   86.7869    8.4500 C.3     1  UNL1        0.1122
     13 C          63.5718   90.3892   11.7206 C.ar    1  UNL1        0.0699
     14 C          63.1366   90.9211   10.4947 C.ar    1  UNL1        0.0190
     15 C          62.3907   90.1404    9.6072 C.ar    1  UNL1        0.0160
     16 C          62.0569   88.8161    9.9314 C.ar    1  UNL1        0.0480
     17 C          62.4900   88.2837   11.1562 C.ar    1  UNL1        0.0160
     18 C          63.2356   89.0639   12.0440 C.ar    1  UNL1        0.0190
     19 N          65.3804   91.9487   14.4549 N.ar    1  UNL1       -0.2024
     20 N          65.5414   92.8625   13.5095 N.ar    1  UNL1       -0.1442
     21 C          64.9035   92.3962   12.4139 C.ar    1  UNL1        0.2073
     22 N          64.3371   91.1895   12.6424 N.ar    1  UNL1       -0.2398
     23 C          64.6501   90.9449   13.9302 C.ar    1  UNL1        0.3522
     24 O          64.2775   89.9268   14.5735 O.2     1  UNL1       -0.2444
     25 C          65.9091   92.0832   15.8174 C.3     1  UNL1        0.1099
     26 C          64.7864   92.4868   16.7831 C.3     1  UNL1        0.0265
     27 C          68.4483   92.3813   15.7686 C.3     1  UNL1        0.0021
     28 C          67.0889   93.0775   15.8349 C.3     1  UNL1        0.0245
     29 O          57.3675   80.8739    9.8612 O.3     1  UNL1       -0.4727
     30 C          58.1068   79.6940   10.1858 C.3     1  UNL1        0.2374
     31 C          58.7885   79.8252   11.5570 C.3     1  UNL1        0.1909
     32 C          58.4782   81.1121   12.2684 C.3     1  UNL1        0.1783
     33 O          59.5322   81.9660   11.9705 O.3     1  UNL1       -0.3266
     34 C          60.6307   81.1258   11.6821 C.3     1  UNL1        0.2315
     35 O          60.1724   79.8192   11.3806 O.3     1  UNL1       -0.3254
     36 C          61.5825   81.0909   12.8842 C.ar    1  UNL1        0.0410
     37 C          62.4801   80.0100   13.0333 C.ar    1  UNL1        0.0022
     38 C          63.3802   79.9643   14.0990 C.ar    1  UNL1        0.0113
     39 C          63.4153   80.9994   15.0316 C.ar    1  UNL1        0.0585
     40 CL         64.5503   80.9395   16.3677 Cl      1  UNL1       -0.0822
     41 C          62.5549   82.0890   14.8937 C.ar    1  UNL1        0.0226
     42 C          61.6472   82.1512   13.8288 C.ar    1  UNL1        0.0591
     43 CL         60.6373   83.5919   13.7244 Cl      1  UNL1       -0.0824
     44 C          61.3565   81.6840   10.4406 C.3     1  UNL1        0.1911
     45 N          61.9279   83.0083   10.6945 N.ar    1  UNL1       -0.2116
     46 N          61.2146   84.0892   10.9565 N.ar    1  UNL1       -0.0430
     47 N          62.0397   85.0990   11.1887 N.ar    1  UNL1       -0.0230
     48 N          63.2977   84.6910   11.0865 N.ar    1  UNL1       -0.1127
     49 C          63.2195   83.3854   10.7692 C.ar    1  UNL1        0.1615
     50 C          64.4114   82.4951   10.6156 C.3     1  UNL1        0.0754
@<TRIPOS>BOND
     1    27    28    1
     2    28    25    1
     3    25    26    1
     4    25    19    1
     5    19    20   ar
     6    20    21   ar
     7    21    22   ar
     8    22    13    1
     9    13    14   ar
    10    14    15   ar
    11    15    16   ar
    12    16     7    1
    13     7     8    1
    14     8     9    1
    15     9    10    1
    16    10     1    1
    17     1     2   ar
    18     2     3   ar
    19     3     4   ar
    20     4    29    1
    21    29    30    1
    22    30    31    1
    23    31    32    1
    24    32    33    1
    25    33    34    1
    26    34    44    1
    27    44    45    1
    28    45    46   ar
    29    46    47   ar
    30    47    48   ar
    31    48    49   ar
    32    49    50    1
    33    34    36    1
    34    36    37   ar
    35    37    38   ar
    36    38    39   ar
    37    39    40    1
    38    39    41   ar
    39    41    42   ar
    40    42    43    1
    41    34    35    1
    42     4     5   ar
    43     5     6   ar
    44    10    11    1
    45    11    12    1
    46    16    17   ar
    47    17    18   ar
    48    22    23   ar
    49    23    24    2
    50    23    19   ar
    51    18    13   ar
    52    12     7    1
    53     6     1   ar
    54    35    31    1
    55    49    45   ar
    56    42    36   ar
@<TRIPOS>MOLECULE
*****
 50 56 0 0 0
SMALL
GASTEIGER

@<TRIPOS>ATOM
      1 C          59.1444   86.2782    9.1025 C.ar    1  UNL1        0.0481
      2 C          58.1827   85.5412    9.8106 C.ar    1  UNL1        0.0176
      3 C          58.0147   84.1744    9.5687 C.ar    1  UNL1        0.0382
      4 C          58.8142   83.5173    8.6110 C.ar    1  UNL1        0.1388
      5 C          59.7765   84.2555    7.9124 C.ar    1  UNL1        0.0382
      6 C          59.9441   85.6212    8.1545 C.ar    1  UNL1        0.0176
      7 N          60.8970   89.8152   10.1250 N.pl3   1  UNL1       -0.3041
      8 C          59.6271   89.6504   10.8467 C.3     1  UNL1        0.1122
      9 C          59.1500   88.1981   10.7303 C.3     1  UNL1        0.1122
     10 N          59.3248   87.6837    9.3618 N.pl3   1  UNL1       -0.3041
     11 C          59.7513   88.5958    8.2909 C.3     1  UNL1        0.1122
     12 C          61.0065   89.3587    8.7296 C.3     1  UNL1        0.1122
     13 C          64.3472   91.3778   12.0834 C.ar    1  UNL1        0.0699
     14 C          64.1099   91.6547   10.7261 C.ar    1  UNL1        0.0190
     15 C          62.9781   91.1434   10.0848 C.ar    1  UNL1        0.0160
     16 C          62.0563   90.3535   10.7896 C.ar    1  UNL1        0.0480
     17 C          62.2915   90.0769   12.1458 C.ar    1  UNL1        0.0160
     18 C          63.4229   90.5880   12.7875 C.ar    1  UNL1        0.0190
     19 N          67.1485   92.2797   14.2090 N.ar    1  UNL1       -0.2024
     20 N          67.2980   93.1595   13.2301 N.ar    1  UNL1       -0.1442
     21 C          66.2984   92.9279   12.3515 C.ar    1  UNL1        0.2073
     22 N          65.5093   91.9052   12.7521 N.ar    1  UNL1       -0.2398
     23 C          66.0670   91.5293   13.9200 C.ar    1  UNL1        0.3522
     24 O          65.6152   90.6185   14.6653 O.2     1  UNL1       -0.2444
     25 C          68.0269   92.2087   15.3827 C.3     1  UNL1        0.1099
     26 C          67.2372   92.5432   16.6556 C.3     1  UNL1        0.0265
     27 C          69.2386   94.3331   16.1292 C.3     1  UNL1        0.0021
     28 C          69.2506   93.1283   15.1882 C.3     1  UNL1        0.0245
     29 O          58.7037   82.1465    8.3172 O.3     1  UNL1       -0.4727
     30 C          59.7765   81.2209    8.1257 C.3     1  UNL1        0.2374
     31 C          60.2920   80.6822    9.4697 C.3     1  UNL1        0.1909
     32 C          59.3172   80.8430   10.6021 C.3     1  UNL1        0.1783
     33 O          59.6846   82.0174   11.2460 O.3     1  UNL1       -0.3266
     34 C          61.0591   82.1880   10.9680 C.3     1  UNL1        0.2315
     35 O          61.4251   81.4040    9.8457 O.3     1  UNL1       -0.3254
     36 C          61.8871   81.7812   12.1932 C.ar    1  UNL1        0.0410
     37 C          61.2371   81.2570   13.3329 C.ar    1  UNL1        0.0022
     38 C          61.9647   80.8487   14.4518 C.ar    1  UNL1        0.0113
     39 C          63.3553   80.9412   14.4554 C.ar    1  UNL1        0.0585
     40 CL         64.2661   80.4240   15.8625 Cl      1  UNL1       -0.0822
     41 C          64.0223   81.4340   13.3335 C.ar    1  UNL1        0.0226
     42 C          63.3071   81.8460   12.2019 C.ar    1  UNL1        0.0591
     43 CL         64.2500   82.4112   10.8242 Cl      1  UNL1       -0.0824
     44 C          61.3048   83.6717   10.6244 C.3     1  UNL1        0.1911
     45 N          60.8941   84.5577   11.7158 N.ar    1  UNL1       -0.2116
     46 N          59.9414   84.2743   12.5865 N.ar    1  UNL1       -0.0430
     47 N          59.8620   85.2598   13.4679 N.ar    1  UNL1       -0.0230
     48 N          60.7615   86.1937   13.1880 N.ar    1  UNL1       -0.1127
     49 C          61.3968   85.7517   12.0869 C.ar    1  UNL1        0.1615
     50 C          62.5455   86.4652   11.4479 C.3     1  UNL1        0.0754
@<TRIPOS>BOND
     1    27    28    1
     2    28    25    1
     3    25    26    1
     4    25    19    1
     5    19    20   ar
     6    20    21   ar
     7    21    22   ar
     8    22    13    1
     9    13    14   ar
    10    14    15   ar
    11    15    16   ar
    12    16     7    1
    13     7     8    1
    14     8     9    1
    15     9    10    1
    16    10     1    1
    17     1     2   ar
    18     2     3   ar
    19     3     4   ar
    20     4    29    1
    21    29    30    1
    22    30    31    1
    23    31    32    1
    24    32    33    1
    25    33    34    1
    26    34    44    1
    27    44    45    1
    28    45    46   ar
    29    46    47   ar
    30    47    48   ar
    31    48    49   ar
    32    49    50    1
    33    34    36    1
    34    36    37   ar
    35    37    38   ar
    36    38    39   ar
    37    39    40    1
    38    39    41   ar
    39    41    42   ar
    40    42    43    1
    41    34    35    1
    42     4     5   ar
    43     5     6   ar
    44    10    11    1
    45    11    12    1
    46    16    17   ar
    47    17    18   ar
    48    22    23   ar
    49    23    24    2
    50    23    19   ar
    51    18    13   ar
    52    12     7    1
    53     6     1   ar
    54    35    31    1
    55    49    45   ar
    56    42    36   ar
@<TRIPOS>MOLECULE
*****
 50 56 0 0 0
SMALL
GASTEIGER

@<TRIPOS>ATOM
      1 C          62.7602   84.3591   14.6480 C.ar    1  UNL1        0.0481
      2 C          61.9320   83.3414   15.1459 C.ar    1  UNL1        0.0176
      3 C          62.0853   82.0224   14.7084 C.ar    1  UNL1        0.0382
      4 C          63.0789   81.6970   13.7623 C.ar    1  UNL1        0.1388
      5 C          63.9066   82.7145   13.2739 C.ar    1  UNL1        0.0382
      6 C          63.7532   84.0324   13.7115 C.ar    1  UNL1        0.0176
      7 N          62.9843   88.4280   14.7944 N.pl3   1  UNL1       -0.3041
      8 C          63.4527   87.8477   16.0611 C.3     1  UNL1        0.1122
      9 C          63.6917   86.3437   15.8847 C.3     1  UNL1        0.1122
     10 N          62.6092   85.7155   15.1092 N.pl3   1  UNL1       -0.3041
     11 C          61.4192   86.5013   14.7529 C.3     1  UNL1        0.1122
     12 C          61.8461   87.8157   14.0895 C.3     1  UNL1        0.1122
     13 C          65.0400   91.7132   13.0162 C.ar    1  UNL1        0.0699
     14 C          63.9517   91.1126   12.3604 C.ar    1  UNL1        0.0190
     15 C          63.2772   90.0366   12.9442 C.ar    1  UNL1        0.0160
     16 C          63.6708   89.5459   14.1991 C.ar    1  UNL1        0.0480
     17 C          64.7571   90.1456   14.8559 C.ar    1  UNL1        0.0160
     18 C          65.4317   91.2216   14.2727 C.ar    1  UNL1        0.0190
     19 N          66.6523   94.2448   10.9740 N.ar    1  UNL1       -0.2024
     20 N          66.9222   94.7072   12.1856 N.ar    1  UNL1       -0.1442
     21 C          66.3660   93.8397   13.0590 C.ar    1  UNL1        0.2073
     22 N          65.7369   92.8257   12.4225 N.ar    1  UNL1       -0.2398
     23 C          65.9426   93.1086   11.1210 C.ar    1  UNL1        0.3522
     24 O          65.5542   92.3855   10.1642 O.2     1  UNL1       -0.2444
     25 C          67.1005   94.8924    9.7355 C.3     1  UNL1        0.1099
     26 C          65.9689   94.8915    8.6985 C.3     1  UNL1        0.0265
     27 C          68.4624   92.7328    9.5948 C.3     1  UNL1        0.0021
     28 C          68.3819   94.2106    9.2119 C.3     1  UNL1        0.0245
     29 O          63.2928   80.3937   13.2791 O.3     1  UNL1       -0.4727
     30 C          62.2955   79.4087   12.9973 C.3     1  UNL1        0.2374
     31 C          61.7923   79.5259   11.5498 C.3     1  UNL1        0.1909
     32 C          62.5784   80.4933   10.7104 C.3     1  UNL1        0.1783
     33 O          61.8732   81.6887   10.7607 O.3     1  UNL1       -0.3266
     34 C          60.5341   81.3277   11.0291 C.3     1  UNL1        0.2315
     35 O          60.4856   80.0145   11.5596 O.3     1  UNL1       -0.3254
     36 C          59.7094   81.4103    9.7386 C.ar    1  UNL1        0.0410
     37 C          60.2233   82.1117    8.6249 C.ar    1  UNL1        0.0022
     38 C          59.5113   82.1790    7.4263 C.ar    1  UNL1        0.0113
     39 C          58.2793   81.5389    7.3062 C.ar    1  UNL1        0.0585
     40 CL         57.3894   81.6233    5.7969 Cl      1  UNL1       -0.0822
     41 C          57.7608   80.8206    8.3840 C.ar    1  UNL1        0.0226
     42 C          58.4636   80.7415    9.5930 C.ar    1  UNL1        0.0591
     43 CL         57.7393   79.7727   10.8750 Cl      1  UNL1       -0.0824
     44 C          59.9716   82.2994   12.0870 C.3     1  UNL1        0.1911
     45 N          60.1026   83.6961   11.6666 N.ar    1  UNL1       -0.2116
     46 N          61.2496   84.3486   11.5983 N.ar    1  UNL1       -0.0430
     47 N          61.0202   85.5672   11.1325 N.ar    1  UNL1       -0.0230
     48 N          59.7261   85.7240   10.8870 N.ar    1  UNL1       -0.1127
     49 C          59.1583   84.5532   11.2312 C.ar    1  UNL1        0.1615
     50 C          57.7030   84.2538   11.0598 C.3     1  UNL1        0.0754
@<TRIPOS>BOND
     1    27    28    1
     2    28    25    1
     3    25    26    1
     4    25    19    1
     5    19    20   ar
     6    20    21   ar
     7    21    22   ar
     8    22    13    1
     9    13    14   ar
    10    14    15   ar
    11    15    16   ar
    12    16     7    1
    13     7     8    1
    14     8     9    1
    15     9    10    1
    16    10     1    1
    17     1     2   ar
    18     2     3   ar
    19     3     4   ar
    20     4    29    1
    21    29    30    1
    22    30    31    1
    23    31    32    1
    24    32    33    1
    25    33    34    1
    26    34    44    1
    27    44    45    1
    28    45    46   ar
    29    46    47   ar
    30    47    48   ar
    31    48    49   ar
    32    49    50    1
    33    34    36    1
    34    36    37   ar
    35    37    38   ar
    36    38    39   ar
    37    39    40    1
    38    39    41   ar
    39    41    42   ar
    40    42    43    1
    41    34    35    1
    42     4     5   ar
    43     5     6   ar
    44    10    11    1
    45    11    12    1
    46    16    17   ar
    47    17    18   ar
    48    22    23   ar
    49    23    24    2
    50    23    19   ar
    51    18    13   ar
    52    12     7    1
    53     6     1   ar
    54    35    31    1
    55    49    45   ar
    56    42    36   ar
@<TRIPOS>MOLECULE
*****
 50 56 0 0 0
SMALL
GASTEIGER

@<TRIPOS>ATOM
      1 C          61.6571   84.5143   14.7599 C.ar    1  UNL1        0.0481
      2 C          62.5961   83.4813   14.9036 C.ar    1  UNL1        0.0176
      3 C          62.4025   82.2512   14.2679 C.ar    1  UNL1        0.0382
      4 C          61.2608   82.0343   13.4693 C.ar    1  UNL1        0.1388
      5 C          60.3308   83.0701   13.3238 C.ar    1  UNL1        0.0382
      6 C          60.5247   84.2992   13.9591 C.ar    1  UNL1        0.0176
      7 N          62.6655   88.4220   15.3435 N.pl3   1  UNL1       -0.3041
      8 C          63.2747   87.5796   16.3827 C.3     1  UNL1        0.1122
      9 C          63.1847   86.1052   15.9729 C.3     1  UNL1        0.1122
     10 N          61.8643   85.7854   15.4054 N.pl3   1  UNL1       -0.3041
     11 C          60.7946   86.7929   15.4396 C.3     1  UNL1        0.1122
     12 C          61.3095   88.1150   14.8592 C.3     1  UNL1        0.1122
     13 C          64.8846   91.5921   13.5528 C.ar    1  UNL1        0.0699
     14 C          63.8214   90.9858   12.8619 C.ar    1  UNL1        0.0190
     15 C          63.0933   89.9476   13.4498 C.ar    1  UNL1        0.0160
     16 C          63.4071   89.5013   14.7432 C.ar    1  UNL1        0.0480
     17 C          64.4682   90.1068   15.4350 C.ar    1  UNL1        0.0160
     18 C          65.1964   91.1450   14.8477 C.ar    1  UNL1        0.0190
     19 N          66.5407   94.0907   11.5049 N.ar    1  UNL1       -0.2024
     20 N          67.0040   94.4172   12.7022 N.ar    1  UNL1       -0.1442
     21 C          66.4531   93.5469   13.5761 C.ar    1  UNL1        0.2073
     22 N          65.6364   92.6659   12.9549 N.ar    1  UNL1       -0.2398
     23 C          65.7212   93.0321   11.6607 C.ar    1  UNL1        0.3522
     24 O          65.1394   92.4392   10.7124 O.2     1  UNL1       -0.2444
     25 C          66.9160   94.7857   10.2679 C.3     1  UNL1        0.1099
     26 C          65.7039   94.8922    9.3323 C.3     1  UNL1        0.0265
     27 C          67.9386   92.5616    9.5289 C.3     1  UNL1        0.0021
     28 C          68.1151   94.0783    9.6027 C.3     1  UNL1        0.0245
     29 O          61.0017   80.8258   12.7983 O.3     1  UNL1       -0.4727
     30 C          60.0828   80.6221   11.7220 C.3     1  UNL1        0.2374
     31 C          60.7348   80.9404   10.3671 C.3     1  UNL1        0.1909
     32 C          62.1661   81.3862   10.4721 C.3     1  UNL1        0.1783
     33 O          62.1253   82.7744   10.4670 O.3     1  UNL1       -0.3266
     34 C          60.9315   83.1160    9.7934 C.3     1  UNL1        0.2315
     35 O          60.0544   82.0031    9.7722 O.3     1  UNL1       -0.3254
     36 C          61.2568   83.5636    8.3630 C.ar    1  UNL1        0.0410
     37 C          62.4343   84.3036    8.1134 C.ar    1  UNL1        0.0022
     38 C          62.7744   84.6990    6.8188 C.ar    1  UNL1        0.0113
     39 C          61.9570   84.3553    5.7436 C.ar    1  UNL1        0.0585
     40 CL         62.3899   84.8515    4.1177 Cl      1  UNL1       -0.0822
     41 C          60.8008   83.6053    5.9609 C.ar    1  UNL1        0.0226
     42 C          60.4464   83.1990    7.2536 C.ar    1  UNL1        0.0591
     43 CL         58.9899   82.2188    7.4106 Cl      1  UNL1       -0.0824
     44 C          60.2460   84.2595   10.5694 C.3     1  UNL1        0.1911
     45 N          58.8805   84.4958   10.0957 N.ar    1  UNL1       -0.2116
     46 N          57.8238   83.8126   10.4990 N.ar    1  UNL1       -0.0430
     47 N          56.7441   84.3148    9.9190 N.ar    1  UNL1       -0.0230
     48 N          57.0799   85.3317    9.1361 N.ar    1  UNL1       -0.1127
     49 C          58.4176   85.4331    9.2454 C.ar    1  UNL1        0.1615
     50 C          59.2273   86.4972    8.5753 C.3     1  UNL1        0.0754
@<TRIPOS>BOND
     1    27    28    1
     2    28    25    1
     3    25    26    1
     4    25    19    1
     5    19    20   ar
     6    20    21   ar
     7    21    22   ar
     8    22    13    1
     9    13    14   ar
    10    14    15   ar
    11    15    16   ar
    12    16     7    1
    13     7     8    1
    14     8     9    1
    15     9    10    1
    16    10     1    1
    17     1     2   ar
    18     2     3   ar
    19     3     4   ar
    20     4    29    1
    21    29    30    1
    22    30    31    1
    23    31    32    1
    24    32    33    1
    25    33    34    1
    26    34    44    1
    27    44    45    1
    28    45    46   ar
    29    46    47   ar
    30    47    48   ar
    31    48    49   ar
    32    49    50    1
    33    34    36    1
    34    36    37   ar
    35    37    38   ar
    36    38    39   ar
    37    39    40    1
    38    39    41   ar
    39    41    42   ar
    40    42    43    1
    41    34    35    1
    42     4     5   ar
    43     5     6   ar
    44    10    11    1
    45    11    12    1
    46    16    17   ar
    47    17    18   ar
    48    22    23   ar
    49    23    24    2
    50    23    19   ar
    51    18    13   ar
    52    12     7    1
    53     6     1   ar
    54    35    31    1
    55    49    45   ar
    56    42    36   ar
@<TRIPOS>MOLECULE
*****
 50 56 0 0 0
SMALL
GASTEIGER

@<TRIPOS>ATOM
      1 C          60.9871   84.9262   14.3354 C.ar    1  UNL1        0.0481
      2 C          61.6254   83.7134   14.0336 C.ar    1  UNL1        0.0176
      3 C          60.9531   82.7137   13.3240 C.ar    1  UNL1        0.0382
      4 C          59.6239   82.9139   12.8984 C.ar    1  UNL1        0.1388
      5 C          58.9942   84.1279   13.1961 C.ar    1  UNL1        0.0382
      6 C          59.6663   85.1267   13.9050 C.ar    1  UNL1        0.0176
      7 N          62.9696   88.3976   15.1398 N.pl3   1  UNL1       -0.3041
      8 C          63.7093   87.2517   15.6877 C.3     1  UNL1        0.1122
      9 C          63.1571   85.9489   15.0979 C.3     1  UNL1        0.1122
     10 N          61.6854   85.9601   15.0557 N.pl3   1  UNL1       -0.3041
     11 C          60.9481   87.0642   15.6867 C.3     1  UNL1        0.1122
     12 C          61.4982   88.4056   15.1889 C.3     1  UNL1        0.1122
     13 C          65.0518   91.5776   13.2078 C.ar    1  UNL1        0.0699
     14 C          63.9798   90.9330   12.5671 C.ar    1  UNL1        0.0190
     15 C          63.2966   89.8915   13.2013 C.ar    1  UNL1        0.0160
     16 C          63.6649   89.4802   14.4918 C.ar    1  UNL1        0.0480
     17 C          64.7350   90.1239   15.1335 C.ar    1  UNL1        0.0160
     18 C          65.4182   91.1654   14.4999 C.ar    1  UNL1        0.0190
     19 N          66.9082   93.8863   11.1095 N.ar    1  UNL1       -0.2024
     20 N          66.7068   94.6430   12.1779 N.ar    1  UNL1       -0.1442
     21 C          66.0105   93.8883   13.0556 C.ar    1  UNL1        0.2073
     22 N          65.7576   92.6549   12.5620 N.ar    1  UNL1       -0.2398
     23 C          66.3394   92.6877   11.3468 C.ar    1  UNL1        0.3522
     24 O          66.3796   91.7125   10.5490 O.2     1  UNL1       -0.2444
     25 C          67.6504   94.3305    9.9237 C.3     1  UNL1        0.1099
     26 C          66.7081   94.4298    8.7162 C.3     1  UNL1        0.0265
     27 C          68.5518   92.3420    8.5925 C.3     1  UNL1        0.0021
     28 C          68.8476   93.3927    9.6629 C.3     1  UNL1        0.0245
     29 O          58.8870   81.9560   12.1791 O.3     1  UNL1       -0.4727
     30 C          58.2969   82.1205   10.8872 C.3     1  UNL1        0.2374
     31 C          58.1540   83.6077   10.5269 C.3     1  UNL1        0.1909
     32 C          57.3002   83.8596    9.3162 C.3     1  UNL1        0.1783
     33 O          58.1859   83.9709    8.2523 O.3     1  UNL1       -0.3266
     34 C          59.4098   84.3895    8.8203 C.3     1  UNL1        0.2315
     35 O          59.4115   84.1235   10.2122 O.3     1  UNL1       -0.3254
     36 C          59.6102   85.8886    8.5656 C.ar    1  UNL1        0.0410
     37 C          59.0333   86.4862    7.4226 C.ar    1  UNL1        0.0022
     38 C          59.1712   87.8535    7.1788 C.ar    1  UNL1        0.0113
     39 C          59.8748   88.6575    8.0737 C.ar    1  UNL1        0.0585
     40 CL         60.0430   90.3761    7.7650 Cl      1  UNL1       -0.0822
     41 C          60.4344   88.0954    9.2215 C.ar    1  UNL1        0.0226
     42 C          60.3033   86.7255    9.4819 C.ar    1  UNL1        0.0591
     43 CL         61.0106   86.1272   10.9814 Cl      1  UNL1       -0.0824
     44 C          60.5497   83.5789    8.1699 C.3     1  UNL1        0.1911
     45 N          61.7202   83.4877    9.0454 N.ar    1  UNL1       -0.2116
     46 N          61.8655   82.5889   10.0029 N.ar    1  UNL1       -0.0430
     47 N          63.0547   82.7510   10.5634 N.ar    1  UNL1       -0.0230
     48 N          63.7007   83.7510    9.9782 N.ar    1  UNL1       -0.1127
     49 C          62.8568   84.2116    9.0362 C.ar    1  UNL1        0.1615
     50 C          63.1987   85.3098    8.0802 C.3     1  UNL1        0.0754
@<TRIPOS>BOND
     1    27    28    1
     2    28    25    1
     3    25    26    1
     4    25    19    1
     5    19    20   ar
     6    20    21   ar
     7    21    22   ar
     8    22    13    1
     9    13    14   ar
    10    14    15   ar
    11    15    16   ar
    12    16     7    1
    13     7     8    1
    14     8     9    1
    15     9    10    1
    16    10     1    1
    17     1     2   ar
    18     2     3   ar
    19     3     4   ar
    20     4    29    1
    21    29    30    1
    22    30    31    1
    23    31    32    1
    24    32    33    1
    25    33    34    1
    26    34    44    1
    27    44    45    1
    28    45    46   ar
    29    46    47   ar
    30    47    48   ar
    31    48    49   ar
    32    49    50    1
    33    34    36    1
    34    36    37   ar
    35    37    38   ar
    36    38    39   ar
    37    39    40    1
    38    39    41   ar
    39    41    42   ar
    40    42    43    1
    41    34    35    1
    42     4     5   ar
    43     5     6   ar
    44    10    11    1
    45    11    12    1
    46    16    17   ar
    47    17    18   ar
    48    22    23   ar
    49    23    24    2
    50    23    19   ar
    51    18    13   ar
    52    12     7    1
    53     6     1   ar
    54    35    31    1
    55    49    45   ar
    56    42    36   ar
