@<TRIPOS>MOLECULE
*****
 30 32 0 0 0
SMALL
GASTEIGER

@<TRIPOS>ATOM
      1 C          47.0979   14.9810  -26.4473 C.2     1  UNL1       -0.0222
      2 C          48.2406   15.2315  -25.7465 C.2     1  UNL1       -0.0039
      3 C          48.7773   14.2631  -24.7550 C.ar    1  UNL1        0.0029
      4 C          49.4453   13.1103  -25.1903 C.ar    1  UNL1        0.0033
      5 C          49.9470   12.1918  -24.2660 C.ar    1  UNL1        0.0400
      6 C          49.7768   12.4037  -22.8833 C.ar    1  UNL1        0.1720
      7 C          49.0934   13.5540  -22.4475 C.ar    1  UNL1        0.1677
      8 O          48.8979   13.8038  -21.0891 O.3     1  UNL1       -0.5029
      9 C          48.5931   14.4695  -23.3788 C.ar    1  UNL1        0.0398
     10 H          49.2364   13.1759  -20.3701 H       1  UNL1        0.2923
     11 O          50.2703   11.5069  -21.9193 O.3     1  UNL1       -0.4709
     12 C          49.6602   10.2726  -21.5420 C.3     1  UNL1        0.2228
     13 C          49.4923   10.2042  -20.0106 C.3     1  UNL1        0.1201
     14 N          49.1233   11.4907  -19.3785 N.3     1  UNL1       -0.2672
     15 C          50.1135   11.9518  -18.3931 C.3     1  UNL1        0.0898
     16 C          47.7679   11.4777  -18.8060 C.3     1  UNL1        0.0898
     17 C          49.0329   16.4662  -25.9543 C.ar    1  UNL1       -0.0003
     18 C          48.5349   17.7125  -25.5397 C.ar    1  UNL1       -0.0000
     19 C          49.3059   18.8675  -25.7023 C.ar    1  UNL1       -0.0000
     20 C          50.5835   18.7835  -26.2629 C.ar    1  UNL1       -0.0000
     21 C          51.0950   17.5432  -26.6547 C.ar    1  UNL1       -0.0000
     22 C          50.3271   16.3861  -26.4935 C.ar    1  UNL1       -0.0000
     23 C          46.2110   13.8431  -26.0816 C.ar    1  UNL1       -0.0040
     24 C          45.3244   13.9470  -24.9956 C.ar    1  UNL1       -0.0003
     25 C          44.4925   12.8749  -24.6588 C.ar    1  UNL1       -0.0000
     26 C          44.5438   11.6890  -25.3956 C.ar    1  UNL1       -0.0000
     27 C          45.4310   11.5707  -26.4681 C.ar    1  UNL1       -0.0000
     28 C          46.2654   12.6394  -26.8080 C.ar    1  UNL1       -0.0003
     29 C          45.1740   16.1889  -27.5511 C.3     1  UNL1        0.0050
     30 C          46.6627   15.8491  -27.6153 C.3     1  UNL1        0.0264
@<TRIPOS>BOND
     1    29    30    1
     2    30     1    1
     3     1     2    2
     4     2    17    1
     5    17    18   ar
     6    18    19   ar
     7    19    20   ar
     8    20    21   ar
     9    21    22   ar
    10     2     3    1
    11     3     4   ar
    12     4     5   ar
    13     5     6   ar
    14     6    11    1
    15    11    12    1
    16    12    13    1
    17    13    14    1
    18    14    15    1
    19    14    16    1
    20     6     7   ar
    21     7     8    1
    22     7     9   ar
    23     1    23    1
    24    23    24   ar
    25    24    25   ar
    26    25    26   ar
    27    26    27   ar
    28    27    28   ar
    29    22    17   ar
    30     9     3   ar
    31    28    23   ar
    32     8    10    1
@<TRIPOS>MOLECULE
*****
 30 32 0 0 0
SMALL
GASTEIGER

@<TRIPOS>ATOM
      1 C          46.9288   15.0400  -26.5072 C.2     1  UNL1       -0.0222
      2 C          47.9956   15.4444  -25.7601 C.2     1  UNL1       -0.0039
      3 C          48.5320   14.6140  -24.6503 C.ar    1  UNL1        0.0029
      4 C          48.1744   14.8976  -23.3251 C.ar    1  UNL1        0.0033
      5 C          48.6787   14.1268  -22.2757 C.ar    1  UNL1        0.0400
      6 C          49.5651   13.0619  -22.5329 C.ar    1  UNL1        0.1720
      7 C          49.9350   12.7869  -23.8625 C.ar    1  UNL1        0.1677
      8 O          50.8123   11.7454  -24.1648 O.3     1  UNL1       -0.5029
      9 C          49.4264   13.5634  -24.9085 C.ar    1  UNL1        0.0398
     10 H          51.2130   11.1514  -23.4489 H       1  UNL1        0.2923
     11 O          50.0921   12.2583  -21.5065 O.3     1  UNL1       -0.4709
     12 C          49.3443   11.6764  -20.4387 C.3     1  UNL1        0.2228
     13 C          49.6457   10.1677  -20.3335 C.3     1  UNL1        0.1201
     14 N          48.8760    9.3240  -21.2750 N.3     1  UNL1       -0.2672
     15 C          49.6265    8.9941  -22.4964 C.3     1  UNL1        0.0898
     16 C          47.5549    9.8864  -21.5968 C.3     1  UNL1        0.0898
     17 C          48.7040   16.7175  -26.0298 C.ar    1  UNL1       -0.0003
     18 C          48.1111   17.9480  -25.7022 C.ar    1  UNL1       -0.0000
     19 C          48.8029   19.1429  -25.9222 C.ar    1  UNL1       -0.0000
     20 C          50.0953   19.1162  -26.4537 C.ar    1  UNL1       -0.0000
     21 C          50.7009   17.8940  -26.7588 C.ar    1  UNL1       -0.0000
     22 C          50.0123   16.6971  -26.5399 C.ar    1  UNL1       -0.0000
     23 C          46.1075   13.8690  -26.0956 C.ar    1  UNL1       -0.0040
     24 C          45.1802   13.9790  -25.0449 C.ar    1  UNL1       -0.0003
     25 C          44.4103   12.8755  -24.6648 C.ar    1  UNL1       -0.0000
     26 C          44.5647   11.6526  -25.3226 C.ar    1  UNL1       -0.0000
     27 C          45.4931   11.5292  -26.3590 C.ar    1  UNL1       -0.0000
     28 C          46.2658   12.6294  -26.7419 C.ar    1  UNL1       -0.0003
     29 C          45.0663   16.2502  -27.7095 C.3     1  UNL1        0.0050
     30 C          46.5137   15.7638  -27.7765 C.3     1  UNL1        0.0264
@<TRIPOS>BOND
     1    29    30    1
     2    30     1    1
     3     1     2    2
     4     2    17    1
     5    17    18   ar
     6    18    19   ar
     7    19    20   ar
     8    20    21   ar
     9    21    22   ar
    10     2     3    1
    11     3     4   ar
    12     4     5   ar
    13     5     6   ar
    14     6    11    1
    15    11    12    1
    16    12    13    1
    17    13    14    1
    18    14    15    1
    19    14    16    1
    20     6     7   ar
    21     7     8    1
    22     7     9   ar
    23     1    23    1
    24    23    24   ar
    25    24    25   ar
    26    25    26   ar
    27    26    27   ar
    28    27    28   ar
    29    22    17   ar
    30     9     3   ar
    31    28    23   ar
    32     8    10    1
@<TRIPOS>MOLECULE
*****
 30 32 0 0 0
SMALL
GASTEIGER

@<TRIPOS>ATOM
      1 C          46.5727   16.1741  -26.2113 C.2     1  UNL1       -0.0222
      2 C          47.0164   15.0454  -25.5878 C.2     1  UNL1       -0.0039
      3 C          48.2595   15.0401  -24.7731 C.ar    1  UNL1        0.0029
      4 C          49.4954   14.7776  -25.3799 C.ar    1  UNL1        0.0033
      5 C          50.6674   14.7642  -24.6211 C.ar    1  UNL1        0.0400
      6 C          50.6227   15.0004  -23.2326 C.ar    1  UNL1        0.1720
      7 C          49.3798   15.2496  -22.6217 C.ar    1  UNL1        0.1677
      8 O          49.2863   15.4853  -21.2501 O.3     1  UNL1       -0.5029
      9 C          48.2098   15.2611  -23.3878 C.ar    1  UNL1        0.0398
     10 H          50.0989   15.4877  -20.6455 H       1  UNL1        0.2923
     11 O          51.7792   15.0008  -22.4328 O.3     1  UNL1       -0.4709
     12 C          52.4184   13.8434  -21.8943 C.3     1  UNL1        0.2228
     13 C          52.3340   13.8524  -20.3546 C.3     1  UNL1        0.1201
     14 N          51.8179   12.5972  -19.7638 N.3     1  UNL1       -0.2672
     15 C          50.4145   12.3309  -20.1156 C.3     1  UNL1        0.0898
     16 C          52.0258   12.5229  -18.3090 C.3     1  UNL1        0.0898
     17 C          46.2706   13.7670  -25.6568 C.ar    1  UNL1       -0.0003
     18 C          45.2080   13.5115  -24.7743 C.ar    1  UNL1       -0.0000
     19 C          44.4830   12.3201  -24.8725 C.ar    1  UNL1       -0.0000
     20 C          44.8023   11.3855  -25.8615 C.ar    1  UNL1       -0.0000
     21 C          45.8422   11.6444  -26.7587 C.ar    1  UNL1       -0.0000
     22 C          46.5694   12.8348  -26.6637 C.ar    1  UNL1       -0.0000
     23 C          47.4329   17.3853  -26.3024 C.ar    1  UNL1       -0.0040
     24 C          48.4435   17.4738  -27.2755 C.ar    1  UNL1       -0.0003
     25 C          49.2466   18.6154  -27.3570 C.ar    1  UNL1       -0.0000
     26 C          49.0545   19.6731  -26.4646 C.ar    1  UNL1       -0.0000
     27 C          48.0619   19.5894  -25.4853 C.ar    1  UNL1       -0.0000
     28 C          47.2572   18.4496  -25.3993 C.ar    1  UNL1       -0.0003
     29 C          45.2630   16.0335  -28.3663 C.3     1  UNL1        0.0050
     30 C          45.1990   16.2517  -26.8550 C.3     1  UNL1        0.0264
@<TRIPOS>BOND
     1    29    30    1
     2    30     1    1
     3     1     2    2
     4     2    17    1
     5    17    18   ar
     6    18    19   ar
     7    19    20   ar
     8    20    21   ar
     9    21    22   ar
    10     2     3    1
    11     3     4   ar
    12     4     5   ar
    13     5     6   ar
    14     6    11    1
    15    11    12    1
    16    12    13    1
    17    13    14    1
    18    14    15    1
    19    14    16    1
    20     6     7   ar
    21     7     8    1
    22     7     9   ar
    23     1    23    1
    24    23    24   ar
    25    24    25   ar
    26    25    26   ar
    27    26    27   ar
    28    27    28   ar
    29    22    17   ar
    30     9     3   ar
    31    28    23   ar
    32     8    10    1
@<TRIPOS>MOLECULE
*****
 30 32 0 0 0
SMALL
GASTEIGER

@<TRIPOS>ATOM
      1 C          46.8235   15.0739  -26.5614 C.2     1  UNL1       -0.0222
      2 C          47.8804   15.5165  -25.8219 C.2     1  UNL1       -0.0039
      3 C          48.4229   14.7282  -24.6847 C.ar    1  UNL1        0.0029
      4 C          48.1676   15.1305  -23.3665 C.ar    1  UNL1        0.0033
      5 C          48.6788   14.3997  -22.2921 C.ar    1  UNL1        0.0400
      6 C          49.4700   13.2556  -22.5179 C.ar    1  UNL1        0.1720
      7 C          49.7379   12.8607  -23.8417 C.ar    1  UNL1        0.1677
      8 O          50.5189   11.7374  -24.1136 O.3     1  UNL1       -0.5029
      9 C          49.2231   13.5976  -24.9129 C.ar    1  UNL1        0.0398
     10 H          50.9192   11.1667  -23.3788 H       1  UNL1        0.2923
     11 O          50.0000   12.4888  -21.4652 O.3     1  UNL1       -0.4709
     12 C          49.3978   12.3067  -20.1837 C.3     1  UNL1        0.2228
     13 C          50.0873   11.1534  -19.4269 C.3     1  UNL1        0.1201
     14 N          50.8029   11.5697  -18.1999 N.3     1  UNL1       -0.2672
     15 C          49.8969   12.0082  -17.1270 C.3     1  UNL1        0.0898
     16 C          51.8462   12.5741  -18.4602 C.3     1  UNL1        0.0898
     17 C          48.5716   16.7910  -26.1269 C.ar    1  UNL1       -0.0003
     18 C          47.9386   18.0219  -25.8875 C.ar    1  UNL1       -0.0000
     19 C          48.6128   19.2204  -26.1397 C.ar    1  UNL1       -0.0000
     20 C          49.9269   19.1981  -26.6152 C.ar    1  UNL1       -0.0000
     21 C          50.5715   17.9770  -26.8319 C.ar    1  UNL1       -0.0000
     22 C          49.9006   16.7764  -26.5807 C.ar    1  UNL1       -0.0000
     23 C          46.0172   13.9040  -26.1182 C.ar    1  UNL1       -0.0040
     24 C          45.1186   14.0199  -25.0434 C.ar    1  UNL1       -0.0003
     25 C          44.3626   12.9175  -24.6337 C.ar    1  UNL1       -0.0000
     26 C          44.5024   11.6898  -25.2858 C.ar    1  UNL1       -0.0000
     27 C          45.4025   11.5606  -26.3462 C.ar    1  UNL1       -0.0000
     28 C          46.1612   12.6597  -26.7588 C.ar    1  UNL1       -0.0003
     29 C          44.9989   16.3447  -27.7592 C.3     1  UNL1        0.0050
     30 C          46.4046   15.7525  -27.8542 C.3     1  UNL1        0.0264
@<TRIPOS>BOND
     1    29    30    1
     2    30     1    1
     3     1     2    2
     4     2    17    1
     5    17    18   ar
     6    18    19   ar
     7    19    20   ar
     8    20    21   ar
     9    21    22   ar
    10     2     3    1
    11     3     4   ar
    12     4     5   ar
    13     5     6   ar
    14     6    11    1
    15    11    12    1
    16    12    13    1
    17    13    14    1
    18    14    15    1
    19    14    16    1
    20     6     7   ar
    21     7     8    1
    22     7     9   ar
    23     1    23    1
    24    23    24   ar
    25    24    25   ar
    26    25    26   ar
    27    26    27   ar
    28    27    28   ar
    29    22    17   ar
    30     9     3   ar
    31    28    23   ar
    32     8    10    1
@<TRIPOS>MOLECULE
*****
 30 32 0 0 0
SMALL
GASTEIGER

@<TRIPOS>ATOM
      1 C          47.2130   15.9281  -26.0266 C.2     1  UNL1       -0.0222
      2 C          47.3278   14.8123  -25.2510 C.2     1  UNL1       -0.0039
      3 C          48.4468   14.6421  -24.2877 C.ar    1  UNL1        0.0029
      4 C          48.4118   15.2961  -23.0485 C.ar    1  UNL1        0.0033
      5 C          49.4617   15.1472  -22.1400 C.ar    1  UNL1        0.0400
      6 C          50.5774   14.3488  -22.4617 C.ar    1  UNL1        0.1720
      7 C          50.6184   13.7041  -23.7119 C.ar    1  UNL1        0.1677
      8 O          51.7037   12.9068  -24.0753 O.3     1  UNL1       -0.5029
      9 C          49.5636   13.8581  -24.6171 C.ar    1  UNL1        0.0398
     10 H          52.4961   12.7603  -23.4617 H       1  UNL1        0.2923
     11 O          51.6531   14.1682  -21.5745 O.3     1  UNL1       -0.4709
     12 C          51.5634   14.1570  -20.1497 C.3     1  UNL1        0.2228
     13 C          52.4728   13.0578  -19.5644 C.3     1  UNL1        0.1201
     14 N          51.7873   12.1250  -18.6420 N.3     1  UNL1       -0.2672
     15 C          50.4498   11.7316  -19.1115 C.3     1  UNL1        0.0898
     16 C          51.7413   12.6214  -17.2576 C.3     1  UNL1        0.0898
     17 C          46.3286   13.7193  -25.2971 C.ar    1  UNL1       -0.0003
     18 C          45.1930   13.7545  -24.4711 C.ar    1  UNL1       -0.0000
     19 C          44.2342   12.7400  -24.5498 C.ar    1  UNL1       -0.0000
     20 C          44.3939   11.6948  -25.4639 C.ar    1  UNL1       -0.0000
     21 C          45.5090   11.6667  -26.3062 C.ar    1  UNL1       -0.0000
     22 C          46.4697   12.6796  -26.2306 C.ar    1  UNL1       -0.0000
     23 C          48.3250   16.9132  -26.1179 C.ar    1  UNL1       -0.0040
     24 C          48.1614   18.2236  -25.6362 C.ar    1  UNL1       -0.0003
     25 C          49.2109   19.1434  -25.7231 C.ar    1  UNL1       -0.0000
     26 C          50.4274   18.7672  -26.2980 C.ar    1  UNL1       -0.0000
     27 C          50.5955   17.4714  -26.7918 C.ar    1  UNL1       -0.0000
     28 C          49.5489   16.5486  -26.7082 C.ar    1  UNL1       -0.0003
     29 C          46.1424   15.8281  -28.3119 C.3     1  UNL1        0.0050
     30 C          45.9655   16.2158  -26.8442 C.3     1  UNL1        0.0264
@<TRIPOS>BOND
     1    29    30    1
     2    30     1    1
     3     1     2    2
     4     2    17    1
     5    17    18   ar
     6    18    19   ar
     7    19    20   ar
     8    20    21   ar
     9    21    22   ar
    10     2     3    1
    11     3     4   ar
    12     4     5   ar
    13     5     6   ar
    14     6    11    1
    15    11    12    1
    16    12    13    1
    17    13    14    1
    18    14    15    1
    19    14    16    1
    20     6     7   ar
    21     7     8    1
    22     7     9   ar
    23     1    23    1
    24    23    24   ar
    25    24    25   ar
    26    25    26   ar
    27    26    27   ar
    28    27    28   ar
    29    22    17   ar
    30     9     3   ar
    31    28    23   ar
    32     8    10    1
@<TRIPOS>MOLECULE
*****
 30 32 0 0 0
SMALL
GASTEIGER

@<TRIPOS>ATOM
      1 C          48.2810   13.8420  -24.5872 C.2     1  UNL1       -0.0222
      2 C          49.2347   14.7371  -24.2014 C.2     1  UNL1       -0.0039
      3 C          50.0973   14.4972  -23.0151 C.ar    1  UNL1        0.0029
      4 C          49.6570   14.8749  -21.7391 C.ar    1  UNL1        0.0033
      5 C          50.4634   14.6593  -20.6198 C.ar    1  UNL1        0.0400
      6 C          51.7367   14.0719  -20.7588 C.ar    1  UNL1        0.1720
      7 C          52.1840   13.7061  -22.0419 C.ar    1  UNL1        0.1677
      8 O          53.4383   13.1249  -22.2285 O.3     1  UNL1       -0.5029
      9 C          51.3712   13.9255  -23.1586 C.ar    1  UNL1        0.0398
     10 H          54.0699   12.9438  -21.4577 H       1  UNL1        0.2923
     11 O          52.5782   13.8327  -19.6580 O.3     1  UNL1       -0.4709
     12 C          52.6222   12.6297  -18.8905 C.3     1  UNL1        0.2228
     13 C          51.5824   12.6818  -17.7529 C.3     1  UNL1        0.1201
     14 N          50.6173   11.5596  -17.7556 N.3     1  UNL1       -0.2672
     15 C          50.0316   11.3085  -19.0815 C.3     1  UNL1        0.0898
     16 C          49.5721   11.7027  -16.7298 C.3     1  UNL1        0.0898
     17 C          49.4911   15.9845  -24.9588 C.ar    1  UNL1       -0.0003
     18 C          48.7255   17.1371  -24.7169 C.ar    1  UNL1       -0.0000
     19 C          49.0005   18.3218  -25.4065 C.ar    1  UNL1       -0.0000
     20 C          50.0506   18.3683  -26.3277 C.ar    1  UNL1       -0.0000
     21 C          50.8323   17.2321  -26.5550 C.ar    1  UNL1       -0.0000
     22 C          50.5604   16.0457  -25.8671 C.ar    1  UNL1       -0.0000
     23 C          47.8990   12.7049  -23.7061 C.ar    1  UNL1       -0.0040
     24 C          48.5419   11.4604  -23.8245 C.ar    1  UNL1       -0.0003
     25 C          48.1797   10.3970  -22.9921 C.ar    1  UNL1       -0.0000
     26 C          47.1690   10.5630  -22.0419 C.ar    1  UNL1       -0.0000
     27 C          46.5148   11.7916  -21.9253 C.ar    1  UNL1       -0.0000
     28 C          46.8726   12.8574  -22.7560 C.ar    1  UNL1       -0.0003
     29 C          46.1467   14.5401  -25.7432 C.3     1  UNL1        0.0050
     30 C          47.5518   13.9636  -25.9142 C.3     1  UNL1        0.0264
@<TRIPOS>BOND
     1    29    30    1
     2    30     1    1
     3     1     2    2
     4     2    17    1
     5    17    18   ar
     6    18    19   ar
     7    19    20   ar
     8    20    21   ar
     9    21    22   ar
    10     2     3    1
    11     3     4   ar
    12     4     5   ar
    13     5     6   ar
    14     6    11    1
    15    11    12    1
    16    12    13    1
    17    13    14    1
    18    14    15    1
    19    14    16    1
    20     6     7   ar
    21     7     8    1
    22     7     9   ar
    23     1    23    1
    24    23    24   ar
    25    24    25   ar
    26    25    26   ar
    27    26    27   ar
    28    27    28   ar
    29    22    17   ar
    30     9     3   ar
    31    28    23   ar
    32     8    10    1
@<TRIPOS>MOLECULE
*****
 30 32 0 0 0
SMALL
GASTEIGER

@<TRIPOS>ATOM
      1 C          46.5582   14.5882  -26.9874 C.2     1  UNL1       -0.0222
      2 C          46.8193   13.2497  -26.9957 C.2     1  UNL1       -0.0039
      3 C          47.3179   12.5433  -25.7868 C.ar    1  UNL1        0.0029
      4 C          48.6434   12.0907  -25.7349 C.ar    1  UNL1        0.0033
      5 C          49.1184   11.4204  -24.6059 C.ar    1  UNL1        0.0400
      6 C          48.2684   11.1773  -23.5086 C.ar    1  UNL1        0.1720
      7 C          46.9337   11.6194  -23.5673 C.ar    1  UNL1        0.1677
      8 O          46.0549   11.3983  -22.5069 O.3     1  UNL1       -0.5029
      9 C          46.4646   12.2897  -24.7015 C.ar    1  UNL1        0.0398
     10 H          46.3381   10.9175  -21.6616 H       1  UNL1        0.2923
     11 O          48.7074   10.5107  -22.3510 O.3     1  UNL1       -0.4709
     12 C          49.4101   11.1098  -21.2623 C.3     1  UNL1        0.2228
     13 C          49.3838   10.1807  -20.0317 C.3     1  UNL1        0.1201
     14 N          48.6850   10.7448  -18.8552 N.3     1  UNL1       -0.2672
     15 C          47.5282   11.5777  -19.2187 C.3     1  UNL1        0.0898
     16 C          49.5903   11.4597  -17.9417 C.3     1  UNL1        0.0898
     17 C          46.5910   12.4139  -28.1976 C.ar    1  UNL1       -0.0003
     18 C          46.2352   13.0048  -29.4213 C.ar    1  UNL1       -0.0000
     19 C          46.0614   12.2132  -30.5605 C.ar    1  UNL1       -0.0000
     20 C          46.2580   10.8312  -30.4897 C.ar    1  UNL1       -0.0000
     21 C          46.6364   10.2398  -29.2811 C.ar    1  UNL1       -0.0000
     22 C          46.8113   11.0282  -28.1399 C.ar    1  UNL1       -0.0000
     23 C          46.9846   15.4429  -25.8460 C.ar    1  UNL1       -0.0040
     24 C          46.1960   15.5332  -24.6858 C.ar    1  UNL1       -0.0003
     25 C          46.6036   16.3364  -23.6163 C.ar    1  UNL1       -0.0000
     26 C          47.7948   17.0618  -23.6982 C.ar    1  UNL1       -0.0000
     27 C          48.5788   16.9895  -24.8520 C.ar    1  UNL1       -0.0000
     28 C          48.1750   16.1887  -25.9242 C.ar    1  UNL1       -0.0003
     29 C          44.8781   16.3558  -27.6443 C.3     1  UNL1        0.0050
     30 C          45.8414   15.2761  -28.1364 C.3     1  UNL1        0.0264
@<TRIPOS>BOND
     1    29    30    1
     2    30     1    1
     3     1     2    2
     4     2    17    1
     5    17    18   ar
     6    18    19   ar
     7    19    20   ar
     8    20    21   ar
     9    21    22   ar
    10     2     3    1
    11     3     4   ar
    12     4     5   ar
    13     5     6   ar
    14     6    11    1
    15    11    12    1
    16    12    13    1
    17    13    14    1
    18    14    15    1
    19    14    16    1
    20     6     7   ar
    21     7     8    1
    22     7     9   ar
    23     1    23    1
    24    23    24   ar
    25    24    25   ar
    26    25    26   ar
    27    26    27   ar
    28    27    28   ar
    29    22    17   ar
    30     9     3   ar
    31    28    23   ar
    32     8    10    1
@<TRIPOS>MOLECULE
*****
 30 32 0 0 0
SMALL
GASTEIGER

@<TRIPOS>ATOM
      1 C          47.5903   15.6800  -26.4367 C.2     1  UNL1       -0.0222
      2 C          47.4959   14.6651  -25.5308 C.2     1  UNL1       -0.0039
      3 C          48.3538   14.6180  -24.3179 C.ar    1  UNL1        0.0029
      4 C          49.3785   13.6668  -24.2194 C.ar    1  UNL1        0.0033
      5 C          50.1850   13.6111  -23.0809 C.ar    1  UNL1        0.0400
      6 C          49.9713   14.5010  -22.0094 C.ar    1  UNL1        0.1720
      7 C          48.9331   15.4462  -22.1031 C.ar    1  UNL1        0.1677
      8 O          48.6820   16.3448  -21.0661 O.3     1  UNL1       -0.5029
      9 C          48.1289   15.4960  -23.2461 C.ar    1  UNL1        0.0398
     10 H          49.2304   16.3543  -20.2146 H       1  UNL1        0.2923
     11 O          50.7630   14.4821  -20.8475 O.3     1  UNL1       -0.4709
     12 C          50.7986   13.4310  -19.8822 C.3     1  UNL1        0.2228
     13 C          49.3738   13.1103  -19.3868 C.3     1  UNL1        0.1201
     14 N          49.2509   11.8181  -18.6755 N.3     1  UNL1       -0.2672
     15 C          49.8009   11.8582  -17.3117 C.3     1  UNL1        0.0898
     16 C          49.8051   10.6900  -19.4406 C.3     1  UNL1        0.0898
     17 C          46.5121   13.5677  -25.6826 C.ar    1  UNL1       -0.0003
     18 C          46.7130   12.5552  -26.6354 C.ar    1  UNL1       -0.0000
     19 C          45.8010   11.5011  -26.7446 C.ar    1  UNL1       -0.0000
     20 C          44.6939   11.4419  -25.8935 C.ar    1  UNL1       -0.0000
     21 C          44.5014   12.4326  -24.9266 C.ar    1  UNL1       -0.0000
     22 C          45.4113   13.4881  -24.8143 C.ar    1  UNL1       -0.0000
     23 C          48.7136   16.6547  -26.3782 C.ar    1  UNL1       -0.0040
     24 C          48.4916   17.9782  -25.9597 C.ar    1  UNL1       -0.0003
     25 C          49.5518   18.8882  -25.9050 C.ar    1  UNL1       -0.0000
     26 C          50.8386   18.4888  -26.2748 C.ar    1  UNL1       -0.0000
     27 C          51.0671   17.1797  -26.7049 C.ar    1  UNL1       -0.0000
     28 C          50.0102   16.2666  -26.7623 C.ar    1  UNL1       -0.0003
     29 C          45.2924   16.5251  -27.0567 C.3     1  UNL1        0.0050
     30 C          46.5759   15.8602  -27.5529 C.3     1  UNL1        0.0264
@<TRIPOS>BOND
     1    29    30    1
     2    30     1    1
     3     1     2    2
     4     2    17    1
     5    17    18   ar
     6    18    19   ar
     7    19    20   ar
     8    20    21   ar
     9    21    22   ar
    10     2     3    1
    11     3     4   ar
    12     4     5   ar
    13     5     6   ar
    14     6    11    1
    15    11    12    1
    16    12    13    1
    17    13    14    1
    18    14    15    1
    19    14    16    1
    20     6     7   ar
    21     7     8    1
    22     7     9   ar
    23     1    23    1
    24    23    24   ar
    25    24    25   ar
    26    25    26   ar
    27    26    27   ar
    28    27    28   ar
    29    22    17   ar
    30     9     3   ar
    31    28    23   ar
    32     8    10    1
@<TRIPOS>MOLECULE
*****
 30 32 0 0 0
SMALL
GASTEIGER

@<TRIPOS>ATOM
      1 C          48.7776   15.2990  -23.0515 C.2     1  UNL1       -0.0222
      2 C          49.6403   15.1897  -24.1019 C.2     1  UNL1       -0.0039
      3 C          50.2598   13.8904  -24.4722 C.ar    1  UNL1        0.0029
      4 C          49.5803   13.0051  -25.3201 C.ar    1  UNL1        0.0033
      5 C          50.1519   11.7795  -25.6680 C.ar    1  UNL1        0.0400
      6 C          51.4134   11.4095  -25.1606 C.ar    1  UNL1        0.1720
      7 C          52.0885   12.2928  -24.2979 C.ar    1  UNL1        0.1677
      8 O          53.3375   11.9677  -23.7685 O.3     1  UNL1       -0.5029
      9 C          51.5099   13.5184  -23.9533 C.ar    1  UNL1        0.0398
     10 H          53.8040   11.0943  -23.9815 H       1  UNL1        0.2923
     11 O          52.0267   10.1877  -25.4894 O.3     1  UNL1       -0.4709
     12 C          51.8515    9.4715  -26.7119 C.3     1  UNL1        0.2228
     13 C          52.4811   10.2509  -27.8841 C.3     1  UNL1        0.1201
     14 N          52.4145    9.5527  -29.1876 N.3     1  UNL1       -0.2672
     15 C          51.3861    8.5015  -29.2246 C.3     1  UNL1        0.0898
     16 C          53.7206    9.0362  -29.6262 C.3     1  UNL1        0.0898
     17 C          49.9859   16.3497  -24.9565 C.ar    1  UNL1       -0.0003
     18 C          51.0477   17.2013  -24.6093 C.ar    1  UNL1       -0.0000
     19 C          51.3937   18.2697  -25.4421 C.ar    1  UNL1       -0.0000
     20 C          50.6944   18.4842  -26.6331 C.ar    1  UNL1       -0.0000
     21 C          49.6531   17.6259  -26.9970 C.ar    1  UNL1       -0.0000
     22 C          49.3044   16.5563  -26.1669 C.ar    1  UNL1       -0.0000
     23 C          48.6031   14.1798  -22.0861 C.ar    1  UNL1       -0.0040
     24 C          49.4294   14.0761  -20.9536 C.ar    1  UNL1       -0.0003
     25 C          49.2587   13.0233  -20.0495 C.ar    1  UNL1       -0.0000
     26 C          48.2697   12.0617  -20.2715 C.ar    1  UNL1       -0.0000
     27 C          47.4522   12.1482  -21.4009 C.ar    1  UNL1       -0.0000
     28 C          47.6198   13.1983  -22.3081 C.ar    1  UNL1       -0.0003
     29 C          46.6575   16.5634  -23.5859 C.3     1  UNL1        0.0050
     30 C          47.9690   16.5604  -22.8012 C.3     1  UNL1        0.0264
@<TRIPOS>BOND
     1    29    30    1
     2    30     1    1
     3     1     2    2
     4     2    17    1
     5    17    18   ar
     6    18    19   ar
     7    19    20   ar
     8    20    21   ar
     9    21    22   ar
    10     2     3    1
    11     3     4   ar
    12     4     5   ar
    13     5     6   ar
    14     6    11    1
    15    11    12    1
    16    12    13    1
    17    13    14    1
    18    14    15    1
    19    14    16    1
    20     6     7   ar
    21     7     8    1
    22     7     9   ar
    23     1    23    1
    24    23    24   ar
    25    24    25   ar
    26    25    26   ar
    27    26    27   ar
    28    27    28   ar
    29    22    17   ar
    30     9     3   ar
    31    28    23   ar
    32     8    10    1
