@<TRIPOS>MOLECULE
*****
 47 52 0 0 0
SMALL
GASTEIGER

@<TRIPOS>ATOM
      1 C          61.1132   86.3378   11.5086 C.ar    1  UNL1        0.1318
      2 C          60.3195   85.8991   10.4359 C.ar    1  UNL1        0.0356
      3 C          60.0859   86.7525    9.3564 C.ar    1  UNL1        0.0191
      4 C          60.6370   88.0435    9.3455 C.ar    1  UNL1        0.0702
      5 C          61.4509   88.4303   10.4175 C.ar    1  UNL1        0.1149
      6 N          61.6640   87.5830   11.4582 N.ar    1  UNL1       -0.2279
      7 C          62.0933   83.3419   14.5271 C.3     1  UNL1        0.0472
      8 C          60.6642   83.9346   14.4466 C.3     1  UNL1        0.0252
      9 C          60.3447   84.5378   13.0742 C.3     1  UNL1        0.0923
     10 N          61.3822   85.4868   12.6418 N.pl3   1  UNL1       -0.2932
     11 C          62.6605   85.5606   13.3670 C.3     1  UNL1        0.0923
     12 C          63.1438   84.1520   13.7217 C.3     1  UNL1        0.0252
     13 C          62.1159   81.8504   14.1435 C.3     1  UNL1        0.2054
     14 O          62.5159   81.6814   12.7833 O.3     1  UNL1       -0.4754
     15 C          62.0818   81.1962   10.4427 C.ar    1  UNL1        0.0686
     16 C          61.2837   80.5933    9.4590 C.ar    1  UNL1        0.0061
     17 C          60.2141   79.7709    9.8131 C.ar    1  UNL1        0.0067
     18 C          59.9120   79.5381   11.1632 C.ar    1  UNL1        0.0785
     19 C          60.7017   80.1491   12.1524 C.ar    1  UNL1        0.0434
     20 C          61.7717   80.9995   11.8055 C.ar    1  UNL1        0.1414
     21 C          58.7888   78.6507   11.5538 C.2     1  UNL1        0.3381
     22 O          58.8070   78.0756   12.6747 O.2     1  UNL1       -0.2451
     23 O          57.6933   78.4406   10.7169 O.3     1  UNL1       -0.4771
     24 H          57.5630   78.9479    9.8514 H       1  UNL1        0.2954
     25 C          63.0617   83.3348    9.3341 C.3     1  UNL1        0.0774
     26 C          63.2402   82.0135   10.0158 C.2     1  UNL1        0.1764
     27 O          64.4088   81.6058   10.2545 O.2     1  UNL1       -0.2912
     28 N          60.4384   88.9418    8.2405 N.am    1  UNL1       -0.2766
     29 C          59.7650   88.5765    7.0266 C.2     1  UNL1        0.2839
     30 O          58.9139   87.6469    7.0337 O.2     1  UNL1       -0.2665
     31 H          60.7000   89.9448    8.3691 H       1  UNL1        0.1553
     32 C          59.9870   89.3244    5.7766 C.ar    1  UNL1        0.1946
     33 O          61.1934   89.5193    5.2734 O.2     1  UNL1       -0.4492
     34 C          61.0611   90.2028    4.1629 C.ar    1  UNL1        0.1452
     35 C          62.0701   90.6211    3.3023 C.ar    1  UNL1        0.0375
     36 C          61.7008   91.3448    2.1548 C.ar    1  UNL1        0.0031
     37 C          60.3362   91.6380    1.8860 C.ar    1  UNL1        0.0002
     38 C          59.3406   91.1949    2.7896 C.ar    1  UNL1        0.0028
     39 C          59.7438   90.4800    3.9177 C.ar    1  UNL1        0.0337
     40 C          59.0243   89.9329    4.9612 C.ar    1  UNL1        0.0202
     41 C          57.5396   89.9961    5.1576 C.3     1  UNL1        0.0345
     42 C          59.9577   92.4019    0.6702 C.ar    1  UNL1        0.0000
     43 C          60.9441   93.0107   -0.1289 C.ar    1  UNL1        0.0000
     44 C          60.5847   93.7285   -1.2739 C.ar    1  UNL1        0.0000
     45 C          59.2404   93.8476   -1.6333 C.ar    1  UNL1        0.0000
     46 C          58.2524   93.2485   -0.8489 C.ar    1  UNL1        0.0000
     47 C          58.6060   92.5288    0.2965 C.ar    1  UNL1        0.0000
@<TRIPOS>BOND
     1    25    26    1
     2    26    27    2
     3    26    15    1
     4    15    16   ar
     5    16    17   ar
     6    17    18   ar
     7    18    21    1
     8    21    22    2
     9    21    23    1
    10    18    19   ar
    11    19    20   ar
    12    20    14    1
    13    14    13    1
    14    13     7    1
    15     7     8    1
    16     8     9    1
    17     9    10    1
    18    10     1    1
    19     1     2   ar
    20     2     3   ar
    21     3     4   ar
    22     4    28    1
    23    28    29   am
    24    29    30    2
    25    29    32    1
    26    32    33   ar
    27    33    34   ar
    28    34    35   ar
    29    35    36   ar
    30    36    37   ar
    31    37    42    1
    32    42    43   ar
    33    43    44   ar
    34    44    45   ar
    35    45    46   ar
    36    46    47   ar
    37    37    38   ar
    38    38    39   ar
    39    39    40   ar
    40    40    41    1
    41     4     5   ar
    42     5     6   ar
    43    10    11    1
    44    11    12    1
    45    20    15   ar
    46    12     7    1
    47     6     1   ar
    48    40    32   ar
    49    39    34   ar
    50    47    42   ar
    51    23    24    1
    52    28    31    1
@<TRIPOS>MOLECULE
*****
 47 52 0 0 0
SMALL
GASTEIGER

@<TRIPOS>ATOM
      1 C          61.1820   85.8843   11.1271 C.ar    1  UNL1        0.1318
      2 C          59.9943   86.6307   11.0520 C.ar    1  UNL1        0.0356
      3 C          59.8457   87.5918   10.0508 C.ar    1  UNL1        0.0191
      4 C          60.8793   87.8143    9.1275 C.ar    1  UNL1        0.0702
      5 C          62.0331   87.0254    9.2149 C.ar    1  UNL1        0.1149
      6 N          62.1563   86.0960   10.1985 N.ar    1  UNL1       -0.2279
      7 C          61.7125   82.4369   13.7502 C.3     1  UNL1        0.0472
      8 C          60.5536   83.4357   13.9939 C.3     1  UNL1        0.0252
      9 C          60.1911   84.2456   12.7441 C.3     1  UNL1        0.0923
     10 N          61.3751   84.8793   12.1437 N.pl3   1  UNL1       -0.2932
     11 C          62.7230   84.4910   12.5885 C.3     1  UNL1        0.0923
     12 C          62.7956   82.9735   12.7770 C.3     1  UNL1        0.0252
     13 C          61.1931   81.0553   13.3101 C.3     1  UNL1        0.2054
     14 O          61.5381   80.7923   11.9497 O.3     1  UNL1       -0.4754
     15 C          59.8092   80.0169   10.4293 C.ar    1  UNL1        0.0686
     16 C          59.0371   80.2102    9.2742 C.ar    1  UNL1        0.0061
     17 C          59.1096   81.4057    8.5591 C.ar    1  UNL1        0.0067
     18 C          59.9646   82.4356    8.9794 C.ar    1  UNL1        0.0785
     19 C          60.7487   82.2421   10.1298 C.ar    1  UNL1        0.0434
     20 C          60.6991   81.0293   10.8475 C.ar    1  UNL1        0.1414
     21 C          60.0376   83.7193    8.2390 C.2     1  UNL1        0.3381
     22 O          61.0876   84.0201    7.6110 O.2     1  UNL1       -0.2451
     23 O          58.9641   84.6087    8.2031 O.3     1  UNL1       -0.4771
     24 H          58.0586   84.3868    8.5959 H       1  UNL1        0.2954
     25 C          58.3035   78.1944   11.5131 C.3     1  UNL1        0.0774
     26 C          59.6535   78.7533   11.1852 C.2     1  UNL1        0.1764
     27 O          60.6792   78.1123   11.5401 O.2     1  UNL1       -0.2912
     28 N          60.7531   88.7783    8.0681 N.am    1  UNL1       -0.2766
     29 C          59.8502   88.6338    6.9616 C.2     1  UNL1        0.2839
     30 O          58.8090   87.9344    7.0854 O.2     1  UNL1       -0.2665
     31 H          61.2646   89.6839    8.1638 H       1  UNL1        0.1553
     32 C          60.0715   89.3575    5.6972 C.ar    1  UNL1        0.1946
     33 O          61.2721   89.4975    5.1629 O.2     1  UNL1       -0.4492
     34 C          61.1403   90.1727    4.0473 C.ar    1  UNL1        0.1452
     35 C          62.1440   90.5398    3.1576 C.ar    1  UNL1        0.0375
     36 C          61.7761   91.2643    2.0102 C.ar    1  UNL1        0.0031
     37 C          60.4182   91.6093    1.7703 C.ar    1  UNL1        0.0002
     38 C          59.4280   91.2174    2.7030 C.ar    1  UNL1        0.0028
     39 C          59.8296   90.5000    3.8302 C.ar    1  UNL1        0.0337
     40 C          59.1144   89.9947    4.8974 C.ar    1  UNL1        0.0202
     41 C          57.6386   90.1202    5.1284 C.3     1  UNL1        0.0345
     42 C          60.0411   92.3736    0.5544 C.ar    1  UNL1        0.0000
     43 C          61.0316   92.8851   -0.3057 C.ar    1  UNL1        0.0000
     44 C          60.6734   93.6035   -1.4506 C.ar    1  UNL1        0.0000
     45 C          59.3264   93.8200   -1.7495 C.ar    1  UNL1        0.0000
     46 C          58.3344   93.3180   -0.9043 C.ar    1  UNL1        0.0000
     47 C          58.6868   92.5981    0.2414 C.ar    1  UNL1        0.0000
@<TRIPOS>BOND
     1    25    26    1
     2    26    27    2
     3    26    15    1
     4    15    16   ar
     5    16    17   ar
     6    17    18   ar
     7    18    21    1
     8    21    22    2
     9    21    23    1
    10    18    19   ar
    11    19    20   ar
    12    20    14    1
    13    14    13    1
    14    13     7    1
    15     7     8    1
    16     8     9    1
    17     9    10    1
    18    10     1    1
    19     1     2   ar
    20     2     3   ar
    21     3     4   ar
    22     4    28    1
    23    28    29   am
    24    29    30    2
    25    29    32    1
    26    32    33   ar
    27    33    34   ar
    28    34    35   ar
    29    35    36   ar
    30    36    37   ar
    31    37    42    1
    32    42    43   ar
    33    43    44   ar
    34    44    45   ar
    35    45    46   ar
    36    46    47   ar
    37    37    38   ar
    38    38    39   ar
    39    39    40   ar
    40    40    41    1
    41     4     5   ar
    42     5     6   ar
    43    10    11    1
    44    11    12    1
    45    20    15   ar
    46    12     7    1
    47     6     1   ar
    48    40    32   ar
    49    39    34   ar
    50    47    42   ar
    51    23    24    1
    52    28    31    1
