@<TRIPOS>MOLECULE
*****
 52 57 0 0 0
SMALL
GASTEIGER

@<TRIPOS>ATOM
      1 C           6.4056   75.3789   22.9514 C.ar    1  UNL1        0.0502
      2 C           7.5270   76.0341   22.4239 C.ar    1  UNL1        0.0148
      3 C           8.6615   76.2403   23.2124 C.ar    1  UNL1        0.0080
      4 C           8.6929   75.8038   24.5478 C.ar    1  UNL1        0.0808
      5 C           7.5735   75.1275   25.0715 C.ar    1  UNL1        0.1457
      6 F           7.5856   74.6251   26.3321 F       1  UNL1       -0.2040
      7 C           6.4410   74.9210   24.2777 C.ar    1  UNL1        0.0443
      8 C           4.2964   76.2911   21.9174 C.3     1  UNL1        0.1223
      9 C           3.7365   76.2218   20.4895 C.3     1  UNL1        0.1144
     10 N           3.2731   74.8616   20.1953 N.pl3   1  UNL1       -0.2897
     11 C           4.2323   73.7652   20.3735 C.3     1  UNL1        0.1136
     12 C           4.8213   73.8076   21.7859 C.3     1  UNL1        0.1123
     13 N           5.2354   75.1748   22.1367 N.pl3   1  UNL1       -0.3034
     14 C           1.9405   74.6338   19.6969 C.ar    1  UNL1        0.1318
     15 C           1.1951   75.6716   19.1166 C.ar    1  UNL1        0.0343
     16 C          -0.0938   75.4148   18.6467 C.ar    1  UNL1        0.0083
     17 C          -0.6362   74.1243   18.7400 C.ar    1  UNL1        0.0906
     18 C           0.1283   73.1235   19.3597 C.ar    1  UNL1        0.1041
     19 N           1.3805   73.3978   19.8111 N.ar    1  UNL1       -0.2292
     20 C          -2.0453   73.8458   18.2829 C.3     1  UNL1        0.4200
     21 F          -2.2763   74.4126   17.0415 F       1  UNL1       -0.1658
     22 F          -2.9344   74.3818   19.1956 F       1  UNL1       -0.1658
     23 F          -2.2659   72.4829   18.1847 F       1  UNL1       -0.1658
     24 C           3.1686   76.2651   22.9625 C.3     1  UNL1        0.1636
     25 C           1.6719   78.0158   22.9973 C.3     1  UNL1        0.1742
     26 O           1.9868   76.7840   22.3890 O.3     1  UNL1       -0.3493
     27 C           9.9033   76.0426   25.3658 C.2     1  UNL1        0.2483
     28 O          10.8101   75.1660   25.3975 O.2     1  UNL1       -0.2701
     29 N          10.0724   77.2704   26.0923 N.am    1  UNL1       -0.2945
     30 H           9.4405   78.0735   25.8729 H       1  UNL1        0.1501
     31 C          11.2172   77.4984   26.9775 C.3     1  UNL1        0.1535
     32 C          12.2668   78.3006   26.2516 C.2     1  UNL1        0.2443
     33 O          11.9758   79.4507   25.8246 O.2     1  UNL1       -0.2730
     34 N          13.5935   77.7775   26.0819 N.am    1  UNL1       -0.2825
     35 H          13.9076   77.0216   26.7315 H       1  UNL1        0.1549
     36 C          14.5238   78.2469   25.0905 C.ar    1  UNL1        0.0535
     37 C          14.8311   77.4298   23.9943 C.ar    1  UNL1        0.0353
     38 C          15.7018   77.8954   23.0062 C.ar    1  UNL1        0.1002
     39 N          16.2346   79.1422   23.0991 N.ar    1  UNL1       -0.2422
     40 C          15.9419   79.9653   24.1402 C.ar    1  UNL1        0.1002
     41 C          15.0794   79.5373   25.1521 C.ar    1  UNL1        0.0353
     42 C          10.7582   78.2045   28.2684 C.3     1  UNL1        0.0569
     43 C           9.4248   77.6935   28.7390 C.ar    1  UNL1       -0.0017
     44 C           8.2413   78.4222   28.8107 C.ar    1  UNL1        0.0681
     45 N           7.2138   77.6201   29.1711 N.ar    1  UNL1       -0.3523
     46 C           7.7360   76.3902   29.3188 C.ar    1  UNL1        0.0563
     47 C           7.0564   75.2196   29.6530 C.ar    1  UNL1        0.0170
     48 C           7.7980   74.0264   29.7267 C.ar    1  UNL1        0.0015
     49 C           9.1864   74.0301   29.4692 C.ar    1  UNL1        0.0001
     50 C           9.8462   75.2263   29.1345 C.ar    1  UNL1        0.0012
     51 C           9.0839   76.3938   29.0644 C.ar    1  UNL1        0.0131
     52 H           6.2145   77.8995   29.2882 H       1  UNL1        0.1660
@<TRIPOS>BOND
     1    25    26    1
     2    26    24    1
     3    24     8    1
     4     8     9    1
     5     9    10    1
     6    10    14    1
     7    14    15   ar
     8    15    16   ar
     9    16    17   ar
    10    17    20    1
    11    20    21    1
    12    20    22    1
    13    20    23    1
    14    17    18   ar
    15    18    19   ar
    16    10    11    1
    17    11    12    1
    18    12    13    1
    19    13     1    1
    20     1     2   ar
    21     2     3   ar
    22     3     4   ar
    23     4    27    1
    24    27    28    2
    25    27    29   am
    26    29    31    1
    27    31    42    1
    28    42    43    1
    29    43    44   ar
    30    44    45   ar
    31    45    46   ar
    32    46    47   ar
    33    47    48   ar
    34    48    49   ar
    35    49    50   ar
    36    50    51   ar
    37    31    32    1
    38    32    33    2
    39    32    34   am
    40    34    36    1
    41    36    37   ar
    42    37    38   ar
    43    38    39   ar
    44    39    40   ar
    45    40    41   ar
    46     4     5   ar
    47     5     6    1
    48     5     7   ar
    49    13     8    1
    50     7     1   ar
    51    19    14   ar
    52    51    43   ar
    53    41    36   ar
    54    51    46   ar
    55    29    30    1
    56    45    52    1
    57    34    35    1
@<TRIPOS>MOLECULE
*****
 52 57 0 0 0
SMALL
GASTEIGER

@<TRIPOS>ATOM
      1 C          10.4884   79.3798   25.7757 C.ar    1  UNL1        0.0502
      2 C          10.2871   80.7627   25.8871 C.ar    1  UNL1        0.0148
      3 C          11.2868   81.6567   25.4964 C.ar    1  UNL1        0.0080
      4 C          12.5120   81.1847   24.9957 C.ar    1  UNL1        0.0808
      5 C          12.7065   79.7954   24.8650 C.ar    1  UNL1        0.1457
      6 F          13.8446   79.2960   24.3201 F       1  UNL1       -0.2040
      7 C          11.7019   78.9043   25.2549 C.ar    1  UNL1        0.0443
      8 C           8.8050   78.6377   27.4976 C.3     1  UNL1        0.1223
      9 C           7.3205   78.2608   27.3905 C.3     1  UNL1        0.1144
     10 N           7.1766   76.9665   26.7157 N.pl3   1  UNL1       -0.2897
     11 C           7.7913   76.8204   25.3910 C.3     1  UNL1        0.1136
     12 C           9.2734   77.1984   25.4557 C.3     1  UNL1        0.1123
     13 N           9.4573   78.4617   26.1864 N.pl3   1  UNL1       -0.3034
     14 C           6.4093   75.9070   27.3198 C.ar    1  UNL1        0.1318
     15 C           6.5346   74.5795   26.8823 C.ar    1  UNL1        0.0343
     16 C           5.7735   73.5793   27.4893 C.ar    1  UNL1        0.0083
     17 C           4.8994   73.8956   28.5400 C.ar    1  UNL1        0.0906
     18 C           4.7770   75.2404   28.9229 C.ar    1  UNL1        0.1041
     19 N           5.5275   76.1972   28.3160 N.ar    1  UNL1       -0.2292
     20 C           4.0347   72.8334   29.1694 C.3     1  UNL1        0.4200
     21 F           4.0847   72.9187   30.5500 F       1  UNL1       -0.1658
     22 F           4.4871   71.5872   28.7781 F       1  UNL1       -0.1658
     23 F           2.7164   72.9797   28.7737 F       1  UNL1       -0.1658
     24 C           9.5178   77.8032   28.5750 C.3     1  UNL1        0.1636
     25 C           9.6549   79.3490   30.2774 C.3     1  UNL1        0.1742
     26 O          10.3908   78.6352   29.3101 O.3     1  UNL1       -0.3493
     27 C          13.5593   82.1520   24.5973 C.2     1  UNL1        0.2483
     28 O          14.7719   81.8663   24.7969 O.2     1  UNL1       -0.2701
     29 N          13.2145   83.3909   23.9571 N.am    1  UNL1       -0.2945
     30 H          12.2447   83.5100   23.5857 H       1  UNL1        0.1501
     31 C          14.2212   84.4038   23.6309 C.3     1  UNL1        0.1535
     32 C          14.7173   84.1900   22.2237 C.2     1  UNL1        0.2443
     33 O          15.9207   83.8623   22.0389 O.2     1  UNL1       -0.2730
     34 N          13.8211   84.3201   21.1091 N.am    1  UNL1       -0.2825
     35 H          12.7963   84.2311   21.2930 H       1  UNL1        0.1549
     36 C          14.2482   84.5400   19.7533 C.ar    1  UNL1        0.0535
     37 C          13.5851   85.4938   18.9695 C.ar    1  UNL1        0.0353
     38 C          14.0204   85.7423   17.6657 C.ar    1  UNL1        0.1002
     39 N          15.0933   85.0742   17.1660 N.ar    1  UNL1       -0.2422
     40 C          15.7685   84.1566   17.9071 C.ar    1  UNL1        0.1002
     41 C          15.3636   83.8749   19.2138 C.ar    1  UNL1        0.0353
     42 C          13.6324   85.8164   23.8144 C.3     1  UNL1        0.0569
     43 C          14.2470   86.8042   22.8621 C.ar    1  UNL1       -0.0017
     44 C          15.6045   87.0738   22.7162 C.ar    1  UNL1        0.0681
     45 N          15.8081   87.9335   21.6922 N.ar    1  UNL1       -0.3523
     46 C          14.5926   88.2022   21.1848 C.ar    1  UNL1        0.0563
     47 C          14.2954   89.0161   20.0925 C.ar    1  UNL1        0.0170
     48 C          12.9471   89.1370   19.7095 C.ar    1  UNL1        0.0015
     49 C          11.9376   88.4509   20.4195 C.ar    1  UNL1        0.0001
     50 C          12.2665   87.6368   21.5182 C.ar    1  UNL1        0.0012
     51 C          13.6128   87.5321   21.8723 C.ar    1  UNL1        0.0131
     52 H          16.7272   88.2955   21.3538 H       1  UNL1        0.1660
@<TRIPOS>BOND
     1    25    26    1
     2    26    24    1
     3    24     8    1
     4     8     9    1
     5     9    10    1
     6    10    14    1
     7    14    15   ar
     8    15    16   ar
     9    16    17   ar
    10    17    20    1
    11    20    21    1
    12    20    22    1
    13    20    23    1
    14    17    18   ar
    15    18    19   ar
    16    10    11    1
    17    11    12    1
    18    12    13    1
    19    13     1    1
    20     1     2   ar
    21     2     3   ar
    22     3     4   ar
    23     4    27    1
    24    27    28    2
    25    27    29   am
    26    29    31    1
    27    31    42    1
    28    42    43    1
    29    43    44   ar
    30    44    45   ar
    31    45    46   ar
    32    46    47   ar
    33    47    48   ar
    34    48    49   ar
    35    49    50   ar
    36    50    51   ar
    37    31    32    1
    38    32    33    2
    39    32    34   am
    40    34    36    1
    41    36    37   ar
    42    37    38   ar
    43    38    39   ar
    44    39    40   ar
    45    40    41   ar
    46     4     5   ar
    47     5     6    1
    48     5     7   ar
    49    13     8    1
    50     7     1   ar
    51    19    14   ar
    52    51    43   ar
    53    41    36   ar
    54    51    46   ar
    55    29    30    1
    56    45    52    1
    57    34    35    1
@<TRIPOS>MOLECULE
*****
 52 57 0 0 0
SMALL
GASTEIGER

@<TRIPOS>ATOM
      1 C          10.4764   79.4100   25.7573 C.ar    1  UNL1        0.0502
      2 C          10.2567   80.7919   25.8434 C.ar    1  UNL1        0.0148
      3 C          11.2507   81.6918   25.4517 C.ar    1  UNL1        0.0080
      4 C          12.4883   81.2270   24.9752 C.ar    1  UNL1        0.0808
      5 C          12.7015   79.8383   24.8698 C.ar    1  UNL1        0.1457
      6 F          13.8529   79.3443   24.3485 F       1  UNL1       -0.2040
      7 C          11.7026   78.9412   25.2607 C.ar    1  UNL1        0.0443
      8 C           8.7418   78.7049   27.4436 C.3     1  UNL1        0.1223
      9 C           7.2720   78.2864   27.2951 C.3     1  UNL1        0.1144
     10 N           7.1860   76.9595   26.6761 N.pl3   1  UNL1       -0.2897
     11 C           7.8575   76.7688   25.3851 C.3     1  UNL1        0.1136
     12 C           9.3265   77.1864   25.4910 C.3     1  UNL1        0.1123
     13 N           9.4510   78.4859   26.1688 N.pl3   1  UNL1       -0.3034
     14 C           6.4195   75.9097   27.2978 C.ar    1  UNL1        0.1318
     15 C           6.5681   74.5711   26.9033 C.ar    1  UNL1        0.0343
     16 C           5.8071   73.5807   27.5262 C.ar    1  UNL1        0.0083
     17 C           4.9098   73.9182   28.5506 C.ar    1  UNL1        0.0906
     18 C           4.7650   75.2724   28.8901 C.ar    1  UNL1        0.1041
     19 N           5.5159   76.2193   28.2684 N.ar    1  UNL1       -0.2292
     20 C           4.0455   72.8652   29.1958 C.3     1  UNL1        0.4200
     21 F           4.1601   72.9179   30.5743 F       1  UNL1       -0.1658
     22 F           4.4455   71.6167   28.7577 F       1  UNL1       -0.1658
     23 F           2.7153   73.0553   28.8641 F       1  UNL1       -0.1658
     24 C           9.4292   77.9386   28.5860 C.3     1  UNL1        0.1636
     25 C           9.7394   79.3942   30.3442 C.3     1  UNL1        0.1742
     26 O          10.3548   78.7891   29.2299 O.3     1  UNL1       -0.3493
     27 C          13.5291   82.2007   24.5754 C.2     1  UNL1        0.2483
     28 O          14.7443   81.8682   24.6428 O.2     1  UNL1       -0.2701
     29 N          13.1719   83.5011   24.0804 N.am    1  UNL1       -0.2945
     30 H          12.1787   83.6775   23.8066 H       1  UNL1        0.1501
     31 C          14.1798   84.5146   23.7596 C.3     1  UNL1        0.1535
     32 C          14.4354   84.5224   22.2742 C.2     1  UNL1        0.2443
     33 O          15.4565   83.9367   21.8226 O.2     1  UNL1       -0.2730
     34 N          13.5071   85.1559   21.3800 N.am    1  UNL1       -0.2825
     35 H          12.5291   85.3054   21.7162 H       1  UNL1        0.1549
     36 C          13.8339   85.5740   20.0431 C.ar    1  UNL1        0.0535
     37 C          14.0735   84.6056   19.0589 C.ar    1  UNL1        0.0353
     38 C          14.3507   85.0036   17.7490 C.ar    1  UNL1        0.1002
     39 N          14.3705   86.3239   17.4271 N.ar    1  UNL1       -0.2422
     40 C          14.1243   87.2862   18.3546 C.ar    1  UNL1        0.1002
     41 C          13.8473   86.9317   19.6769 C.ar    1  UNL1        0.0353
     42 C          13.7209   85.8977   24.2618 C.3     1  UNL1        0.0569
     43 C          14.8789   86.7300   24.7379 C.ar    1  UNL1       -0.0017
     44 C          15.9761   87.1267   23.9792 C.ar    1  UNL1        0.0681
     45 N          16.7681   87.9587   24.6930 N.ar    1  UNL1       -0.3523
     46 C          16.1766   88.0979   25.8921 C.ar    1  UNL1        0.0563
     47 C          16.6055   88.8877   26.9579 C.ar    1  UNL1        0.0170
     48 C          15.8140   88.9098   28.1207 C.ar    1  UNL1        0.0015
     49 C          14.6261   88.1497   28.1921 C.ar    1  UNL1        0.0001
     50 C          14.2177   87.3613   27.1013 C.ar    1  UNL1        0.0012
     51 C          15.0205   87.3625   25.9591 C.ar    1  UNL1        0.0131
     52 H          17.6486   88.4157   24.3670 H       1  UNL1        0.1660
@<TRIPOS>BOND
     1    25    26    1
     2    26    24    1
     3    24     8    1
     4     8     9    1
     5     9    10    1
     6    10    14    1
     7    14    15   ar
     8    15    16   ar
     9    16    17   ar
    10    17    20    1
    11    20    21    1
    12    20    22    1
    13    20    23    1
    14    17    18   ar
    15    18    19   ar
    16    10    11    1
    17    11    12    1
    18    12    13    1
    19    13     1    1
    20     1     2   ar
    21     2     3   ar
    22     3     4   ar
    23     4    27    1
    24    27    28    2
    25    27    29   am
    26    29    31    1
    27    31    42    1
    28    42    43    1
    29    43    44   ar
    30    44    45   ar
    31    45    46   ar
    32    46    47   ar
    33    47    48   ar
    34    48    49   ar
    35    49    50   ar
    36    50    51   ar
    37    31    32    1
    38    32    33    2
    39    32    34   am
    40    34    36    1
    41    36    37   ar
    42    37    38   ar
    43    38    39   ar
    44    39    40   ar
    45    40    41   ar
    46     4     5   ar
    47     5     6    1
    48     5     7   ar
    49    13     8    1
    50     7     1   ar
    51    19    14   ar
    52    51    43   ar
    53    41    36   ar
    54    51    46   ar
    55    29    30    1
    56    45    52    1
    57    34    35    1
@<TRIPOS>MOLECULE
*****
 52 57 0 0 0
SMALL
GASTEIGER

@<TRIPOS>ATOM
      1 C          10.4373   79.5574   25.7728 C.ar    1  UNL1        0.0502
      2 C          10.2372   80.9447   25.7918 C.ar    1  UNL1        0.0148
      3 C          11.2484   81.8110   25.3695 C.ar    1  UNL1        0.0080
      4 C          12.4838   81.3067   24.9288 C.ar    1  UNL1        0.0808
      5 C          12.6775   79.9118   24.8907 C.ar    1  UNL1        0.1457
      6 F          13.8268   79.3775   24.4056 F       1  UNL1       -0.2040
      7 C          11.6615   79.0483   25.3120 C.ar    1  UNL1        0.0443
      8 C           8.8875   78.7709   27.5973 C.3     1  UNL1        0.1223
      9 C           7.3782   78.4894   27.6158 C.3     1  UNL1        0.1144
     10 N           7.0844   77.2663   26.8614 N.pl3   1  UNL1       -0.2897
     11 C           7.5545   77.1968   25.4729 C.3     1  UNL1        0.1136
     12 C           9.0571   77.4830   25.4126 C.3     1  UNL1        0.1123
     13 N           9.3942   78.6683   26.2158 N.pl3   1  UNL1       -0.3034
     14 C           6.3132   76.2055   27.4581 C.ar    1  UNL1        0.1318
     15 C           5.3920   76.4662   28.4841 C.ar    1  UNL1        0.0343
     16 C           4.6639   75.4133   29.0403 C.ar    1  UNL1        0.0083
     17 C           4.8405   74.1043   28.5674 C.ar    1  UNL1        0.0906
     18 C           5.7976   73.8814   27.5653 C.ar    1  UNL1        0.1041
     19 N           6.4956   74.9224   27.0400 N.ar    1  UNL1       -0.2292
     20 C           4.0980   72.9518   29.1941 C.3     1  UNL1        0.4200
     21 F           2.7463   73.0281   28.9059 F       1  UNL1       -0.1658
     22 F           4.2695   72.9914   30.5651 F       1  UNL1       -0.1658
     23 F           4.5759   71.7448   28.7141 F       1  UNL1       -0.1658
     24 C           9.6472   77.8101   28.5272 C.3     1  UNL1        0.1636
     25 C           9.8979   79.5059   30.0659 C.3     1  UNL1        0.1742
     26 O           9.4318   78.1902   29.8702 O.3     1  UNL1       -0.3493
     27 C          13.5430   82.2456   24.4953 C.2     1  UNL1        0.2483
     28 O          14.7500   81.8825   24.5493 O.2     1  UNL1       -0.2701
     29 N          13.2117   83.5463   23.9831 N.am    1  UNL1       -0.2945
     30 H          12.2191   83.7440   23.7220 H       1  UNL1        0.1501
     31 C          14.2403   84.5272   23.6285 C.3     1  UNL1        0.1535
     32 C          14.6357   84.3472   22.1852 C.2     1  UNL1        0.2443
     33 O          15.7294   83.7819   21.9129 O.2     1  UNL1       -0.2730
     34 N          13.7601   84.7794   21.1320 N.am    1  UNL1       -0.2825
     35 H          12.7471   84.9010   21.3577 H       1  UNL1        0.1549
     36 C          14.1869   85.0305   19.7816 C.ar    1  UNL1        0.0535
     37 C          14.9785   84.0803   19.1226 C.ar    1  UNL1        0.0353
     38 C          15.3623   84.2982   17.7973 C.ar    1  UNL1        0.1002
     39 N          14.9549   85.4185   17.1447 N.ar    1  UNL1       -0.2422
     40 C          14.1719   86.3497   17.7503 C.ar    1  UNL1        0.1002
     41 C          13.7693   86.1730   19.0760 C.ar    1  UNL1        0.0353
     42 C          13.7287   85.9554   23.9008 C.3     1  UNL1        0.0569
     43 C          14.8526   86.8945   24.2406 C.ar    1  UNL1       -0.0017
     44 C          15.2801   87.2401   25.5191 C.ar    1  UNL1        0.0681
     45 N          16.3844   88.0182   25.4537 N.ar    1  UNL1       -0.3523
     46 C          16.6630   88.1596   24.1463 C.ar    1  UNL1        0.0563
     47 C          17.7330   88.8527   23.5818 C.ar    1  UNL1        0.0170
     48 C          17.8531   88.8493   22.1801 C.ar    1  UNL1        0.0015
     49 C          16.9112   88.1625   21.3831 C.ar    1  UNL1        0.0001
     50 C          15.8412   87.4718   21.9799 C.ar    1  UNL1        0.0012
     51 C          15.7501   87.4887   23.3729 C.ar    1  UNL1        0.0131
     52 H          16.9215   88.4095   26.2592 H       1  UNL1        0.1660
@<TRIPOS>BOND
     1    25    26    1
     2    26    24    1
     3    24     8    1
     4     8     9    1
     5     9    10    1
     6    10    14    1
     7    14    15   ar
     8    15    16   ar
     9    16    17   ar
    10    17    20    1
    11    20    21    1
    12    20    22    1
    13    20    23    1
    14    17    18   ar
    15    18    19   ar
    16    10    11    1
    17    11    12    1
    18    12    13    1
    19    13     1    1
    20     1     2   ar
    21     2     3   ar
    22     3     4   ar
    23     4    27    1
    24    27    28    2
    25    27    29   am
    26    29    31    1
    27    31    42    1
    28    42    43    1
    29    43    44   ar
    30    44    45   ar
    31    45    46   ar
    32    46    47   ar
    33    47    48   ar
    34    48    49   ar
    35    49    50   ar
    36    50    51   ar
    37    31    32    1
    38    32    33    2
    39    32    34   am
    40    34    36    1
    41    36    37   ar
    42    37    38   ar
    43    38    39   ar
    44    39    40   ar
    45    40    41   ar
    46     4     5   ar
    47     5     6    1
    48     5     7   ar
    49    13     8    1
    50     7     1   ar
    51    19    14   ar
    52    51    43   ar
    53    41    36   ar
    54    51    46   ar
    55    29    30    1
    56    45    52    1
    57    34    35    1
@<TRIPOS>MOLECULE
*****
 52 57 0 0 0
SMALL
GASTEIGER

@<TRIPOS>ATOM
      1 C           6.0325   76.4624   23.3972 C.ar    1  UNL1        0.0502
      2 C           7.2353   76.9703   22.8869 C.ar    1  UNL1        0.0148
      3 C           8.2567   77.3717   23.7511 C.ar    1  UNL1        0.0080
      4 C           8.0913   77.2820   25.1436 C.ar    1  UNL1        0.0808
      5 C           6.8903   76.7528   25.6559 C.ar    1  UNL1        0.1457
      6 F           6.7141   76.5807   26.9904 F       1  UNL1       -0.2040
      7 C           5.8715   76.3499   24.7869 C.ar    1  UNL1        0.0443
      8 C           3.9952   77.0513   22.0361 C.3     1  UNL1        0.1223
      9 C           3.6069   76.7510   20.5813 C.3     1  UNL1        0.1144
     10 N           3.2764   75.3299   20.4311 N.pl3   1  UNL1       -0.2897
     11 C           4.2838   74.3509   20.8562 C.3     1  UNL1        0.1136
     12 C           4.7046   74.6251   22.3023 C.3     1  UNL1        0.1123
     13 N           4.9794   76.0563   22.5023 N.pl3   1  UNL1       -0.3034
     14 C           2.0282   74.9275   19.8344 C.ar    1  UNL1        0.1318
     15 C           1.2664   75.8246   19.0699 C.ar    1  UNL1        0.0343
     16 C           0.0607   75.4006   18.5090 C.ar    1  UNL1        0.0083
     17 C          -0.3806   74.0820   18.6953 C.ar    1  UNL1        0.0906
     18 C           0.3928   73.2275   19.4963 C.ar    1  UNL1        0.1041
     19 N           1.5627   73.6633   20.0334 N.ar    1  UNL1       -0.2292
     20 C          -1.7049   73.6266   18.1377 C.3     1  UNL1        0.4200
     21 F          -1.9065   74.1486   16.8717 F       1  UNL1       -0.1658
     22 F          -2.7214   74.0569   18.9698 F       1  UNL1       -0.1658
     23 F          -1.7481   72.2460   18.0490 F       1  UNL1       -0.1658
     24 C           2.7609   77.0652   22.9533 C.3     1  UNL1        0.1636
     25 C           2.1431   77.6118   25.1040 C.3     1  UNL1        0.1742
     26 O           2.9856   77.9544   24.0273 O.3     1  UNL1       -0.3493
     27 C           9.1849   77.7227   26.0387 C.2     1  UNL1        0.2483
     28 O          10.3449   77.8767   25.5670 O.2     1  UNL1       -0.2701
     29 N           8.9343   78.0099   27.4238 N.am    1  UNL1       -0.2945
     30 H           7.9442   78.1095   27.7437 H       1  UNL1        0.1501
     31 C          10.0115   78.3634   28.3516 C.3     1  UNL1        0.1535
     32 C           9.7643   79.7400   28.9136 C.2     1  UNL1        0.2443
     33 O          10.0590   80.7501   28.2189 O.2     1  UNL1       -0.2730
     34 N           9.1648   79.8997   30.2089 N.am    1  UNL1       -0.2825
     35 H           8.6138   79.0999   30.5944 H       1  UNL1        0.1549
     36 C           9.2550   81.1003   30.9959 C.ar    1  UNL1        0.0535
     37 C           8.8330   81.0800   32.3320 C.ar    1  UNL1        0.0353
     38 C           8.9560   82.2306   33.1144 C.ar    1  UNL1        0.1002
     39 N           9.4988   83.3593   32.5868 N.ar    1  UNL1       -0.2422
     40 C           9.9341   83.4053   31.3002 C.ar    1  UNL1        0.1002
     41 C           9.8255   82.2784   30.4821 C.ar    1  UNL1        0.0353
     42 C          10.1182   77.3072   29.4690 C.3     1  UNL1        0.0569
     43 C           9.0237   76.2809   29.3720 C.ar    1  UNL1       -0.0017
     44 C           9.1251   75.0198   28.7923 C.ar    1  UNL1        0.0681
     45 N           7.9835   74.3198   28.9813 N.ar    1  UNL1       -0.3523
     46 C           7.1657   75.1240   29.6825 C.ar    1  UNL1        0.0563
     47 C           5.8841   74.8281   30.1447 C.ar    1  UNL1        0.0170
     48 C           5.2096   75.8126   30.8896 C.ar    1  UNL1        0.0015
     49 C           5.8235   77.0570   31.1517 C.ar    1  UNL1        0.0001
     50 C           7.1176   77.3284   30.6724 C.ar    1  UNL1        0.0012
     51 C           7.7643   76.3310   29.9402 C.ar    1  UNL1        0.0131
     52 H           7.7891   73.3441   28.6640 H       1  UNL1        0.1660
@<TRIPOS>BOND
     1    25    26    1
     2    26    24    1
     3    24     8    1
     4     8     9    1
     5     9    10    1
     6    10    14    1
     7    14    15   ar
     8    15    16   ar
     9    16    17   ar
    10    17    20    1
    11    20    21    1
    12    20    22    1
    13    20    23    1
    14    17    18   ar
    15    18    19   ar
    16    10    11    1
    17    11    12    1
    18    12    13    1
    19    13     1    1
    20     1     2   ar
    21     2     3   ar
    22     3     4   ar
    23     4    27    1
    24    27    28    2
    25    27    29   am
    26    29    31    1
    27    31    42    1
    28    42    43    1
    29    43    44   ar
    30    44    45   ar
    31    45    46   ar
    32    46    47   ar
    33    47    48   ar
    34    48    49   ar
    35    49    50   ar
    36    50    51   ar
    37    31    32    1
    38    32    33    2
    39    32    34   am
    40    34    36    1
    41    36    37   ar
    42    37    38   ar
    43    38    39   ar
    44    39    40   ar
    45    40    41   ar
    46     4     5   ar
    47     5     6    1
    48     5     7   ar
    49    13     8    1
    50     7     1   ar
    51    19    14   ar
    52    51    43   ar
    53    41    36   ar
    54    51    46   ar
    55    29    30    1
    56    45    52    1
    57    34    35    1
@<TRIPOS>MOLECULE
*****
 52 57 0 0 0
SMALL
GASTEIGER

@<TRIPOS>ATOM
      1 C           6.5384   75.6165   22.7094 C.ar    1  UNL1        0.0502
      2 C           7.0799   74.5994   23.5078 C.ar    1  UNL1        0.0148
      3 C           8.2477   74.8222   24.2413 C.ar    1  UNL1        0.0080
      4 C           8.9026   76.0641   24.1828 C.ar    1  UNL1        0.0808
      5 C           8.3472   77.0925   23.3962 C.ar    1  UNL1        0.1457
      6 F           8.9047   78.3294   23.3657 F       1  UNL1       -0.2040
      7 C           7.1766   76.8658   22.6657 C.ar    1  UNL1        0.0443
      8 C           4.3397   76.4570   21.8099 C.3     1  UNL1        0.1223
      9 C           3.7102   76.3994   20.4107 C.3     1  UNL1        0.1144
     10 N           3.2935   75.0275   20.1017 N.pl3   1  UNL1       -0.2897
     11 C           4.3088   73.9722   20.1998 C.3     1  UNL1        0.1136
     12 C           4.9677   74.0047   21.5811 C.3     1  UNL1        0.1123
     13 N           5.3379   75.3799   21.9494 N.pl3   1  UNL1       -0.3034
     14 C           1.9484   74.7515   19.6651 C.ar    1  UNL1        0.1318
     15 C           1.1649   75.7437   19.0559 C.ar    1  UNL1        0.0343
     16 C          -0.1351   75.4411   18.6478 C.ar    1  UNL1        0.0083
     17 C          -0.6510   74.1494   18.8314 C.ar    1  UNL1        0.0906
     18 C           0.1523   73.1967   19.4771 C.ar    1  UNL1        0.1041
     19 N           1.4147   73.5151   19.8671 N.ar    1  UNL1       -0.2292
     20 C          -2.0702   73.8239   18.4416 C.3     1  UNL1        0.4200
     21 F          -2.5057   74.6692   17.4357 F       1  UNL1       -0.1658
     22 F          -2.8910   73.9743   19.5435 F       1  UNL1       -0.1658
     23 F          -2.1638   72.5212   17.9834 F       1  UNL1       -0.1658
     24 C           3.2699   76.3517   22.9096 C.3     1  UNL1        0.1636
     25 C           3.6692   76.8527   25.1222 C.3     1  UNL1        0.1742
     26 O           3.4511   77.3979   23.8409 O.3     1  UNL1       -0.3493
     27 C          10.1439   76.2723   24.9619 C.2     1  UNL1        0.2483
     28 O          11.2325   75.8080   24.5248 O.2     1  UNL1       -0.2701
     29 N          10.1295   77.0238   26.1862 N.am    1  UNL1       -0.2945
     30 H           9.2852   77.5972   26.4122 H       1  UNL1        0.1501
     31 C          11.3238   77.1722   27.0213 C.3     1  UNL1        0.1535
     32 C          12.3255   78.0538   26.3203 C.2     1  UNL1        0.2443
     33 O          11.9694   79.1976   25.9272 O.2     1  UNL1       -0.2730
     34 N          13.6797   77.6122   26.1365 N.am    1  UNL1       -0.2825
     35 H          14.0368   76.8566   26.7638 H       1  UNL1        0.1549
     36 C          14.5811   78.1627   25.1602 C.ar    1  UNL1        0.0535
     37 C          14.9066   77.4106   24.0235 C.ar    1  UNL1        0.0353
     38 C          15.7487   77.9549   23.0509 C.ar    1  UNL1        0.1002
     39 N          16.2356   79.2152   23.1984 N.ar    1  UNL1       -0.2422
     40 C          15.9239   79.9764   24.2802 C.ar    1  UNL1        0.1002
     41 C          15.0889   79.4688   25.2782 C.ar    1  UNL1        0.0353
     42 C          10.9396   77.7397   28.4019 C.3     1  UNL1        0.0569
     43 C           9.5674   78.3541   28.3894 C.ar    1  UNL1       -0.0017
     44 C           9.2085   79.5578   27.7903 C.ar    1  UNL1        0.0681
     45 N           7.8724   79.7487   27.8767 N.ar    1  UNL1       -0.3523
     46 C           7.3835   78.6724   28.5169 C.ar    1  UNL1        0.0563
     47 C           6.0482   78.4007   28.8120 C.ar    1  UNL1        0.0170
     48 C           5.7522   77.1923   29.4686 C.ar    1  UNL1        0.0015
     49 C           6.7855   76.2934   29.8128 C.ar    1  UNL1        0.0001
     50 C           8.1241   76.5938   29.5030 C.ar    1  UNL1        0.0012
     51 C           8.3873   77.7979   28.8472 C.ar    1  UNL1        0.0131
     52 H           7.3315   80.5591   27.5012 H       1  UNL1        0.1660
@<TRIPOS>BOND
     1    25    26    1
     2    26    24    1
     3    24     8    1
     4     8     9    1
     5     9    10    1
     6    10    14    1
     7    14    15   ar
     8    15    16   ar
     9    16    17   ar
    10    17    20    1
    11    20    21    1
    12    20    22    1
    13    20    23    1
    14    17    18   ar
    15    18    19   ar
    16    10    11    1
    17    11    12    1
    18    12    13    1
    19    13     1    1
    20     1     2   ar
    21     2     3   ar
    22     3     4   ar
    23     4    27    1
    24    27    28    2
    25    27    29   am
    26    29    31    1
    27    31    42    1
    28    42    43    1
    29    43    44   ar
    30    44    45   ar
    31    45    46   ar
    32    46    47   ar
    33    47    48   ar
    34    48    49   ar
    35    49    50   ar
    36    50    51   ar
    37    31    32    1
    38    32    33    2
    39    32    34   am
    40    34    36    1
    41    36    37   ar
    42    37    38   ar
    43    38    39   ar
    44    39    40   ar
    45    40    41   ar
    46     4     5   ar
    47     5     6    1
    48     5     7   ar
    49    13     8    1
    50     7     1   ar
    51    19    14   ar
    52    51    43   ar
    53    41    36   ar
    54    51    46   ar
    55    29    30    1
    56    45    52    1
    57    34    35    1
@<TRIPOS>MOLECULE
*****
 52 57 0 0 0
SMALL
GASTEIGER

@<TRIPOS>ATOM
      1 C          11.2400   80.2609   25.6461 C.ar    1  UNL1        0.0502
      2 C          10.6585   81.5048   25.3634 C.ar    1  UNL1        0.0148
      3 C          11.4413   82.5598   24.8884 C.ar    1  UNL1        0.0080
      4 C          12.8234   82.3942   24.6961 C.ar    1  UNL1        0.0808
      5 C          13.4040   81.1383   24.9611 C.ar    1  UNL1        0.1457
      6 F          14.7205   80.9111   24.7223 F       1  UNL1       -0.2040
      7 C          12.6161   80.0842   25.4340 C.ar    1  UNL1        0.0443
      8 C          10.1430   78.0238   25.2698 C.3     1  UNL1        0.1223
      9 C          10.1130   76.7379   26.1081 C.3     1  UNL1        0.1144
     10 N           9.2752   76.9305   27.2965 N.pl3   1  UNL1       -0.2897
     11 C           9.6010   78.0558   28.1806 C.3     1  UNL1        0.1136
     12 C           9.6505   79.3575   27.3767 C.3     1  UNL1        0.1123
     13 N          10.4300   79.1781   26.1423 N.pl3   1  UNL1       -0.3034
     14 C           8.2114   76.0073   27.6000 C.ar    1  UNL1        0.1318
     15 C           7.6057   75.2409   26.5924 C.ar    1  UNL1        0.0343
     16 C           6.5763   74.3583   26.9229 C.ar    1  UNL1        0.0083
     17 C           6.1587   74.2265   28.2558 C.ar    1  UNL1        0.0906
     18 C           6.7657   75.0375   29.2273 C.ar    1  UNL1        0.1041
     19 N           7.7652   75.8908   28.8813 N.ar    1  UNL1       -0.2292
     20 C           5.0143   73.3149   28.6182 C.3     1  UNL1        0.4200
     21 F           4.8518   73.2587   29.9917 F       1  UNL1       -0.1658
     22 F           5.2765   72.0437   28.1429 F       1  UNL1       -0.1658
     23 F           3.8322   73.7705   28.0605 F       1  UNL1       -0.1658
     24 C           8.8196   78.2301   24.5141 C.3     1  UNL1        0.1636
     25 C           9.4347   79.1736   22.5047 C.3     1  UNL1        0.1742
     26 O           9.0228   77.9839   23.1383 O.3     1  UNL1       -0.3493
     27 C          13.6330   83.5303   24.2010 C.2     1  UNL1        0.2483
     28 O          14.5431   83.3171   23.3536 O.2     1  UNL1       -0.2701
     29 N          13.3722   84.8713   24.6454 N.am    1  UNL1       -0.2945
     30 H          12.4794   85.0663   25.1527 H       1  UNL1        0.1501
     31 C          14.2112   86.0016   24.2398 C.3     1  UNL1        0.1535
     32 C          13.9813   86.3054   22.7814 C.2     1  UNL1        0.2443
     33 O          12.9431   86.9342   22.4404 O.2     1  UNL1       -0.2730
     34 N          14.9514   85.9174   21.7961 N.am    1  UNL1       -0.2825
     35 H          15.9294   85.7374   22.1174 H       1  UNL1        0.1549
     36 C          14.6660   85.7860   20.3925 C.ar    1  UNL1        0.0535
     37 C          14.6637   84.5126   19.8075 C.ar    1  UNL1        0.0353
     38 C          14.3469   84.3730   18.4542 C.ar    1  UNL1        0.1002
     39 N          14.0251   85.4657   17.7129 N.ar    1  UNL1       -0.2422
     40 C          14.0006   86.7115   18.2554 C.ar    1  UNL1        0.1002
     41 C          14.3153   86.8960   19.6036 C.ar    1  UNL1        0.0353
     42 C          13.9158   87.2274   25.1262 C.3     1  UNL1        0.0569
     43 C          15.1662   87.7712   25.7598 C.ar    1  UNL1       -0.0017
     44 C          15.4330   87.8481   27.1235 C.ar    1  UNL1        0.0681
     45 N          16.6953   88.2856   27.3339 N.ar    1  UNL1       -0.3523
     46 C          17.2307   88.4771   26.1158 C.ar    1  UNL1        0.0563
     47 C          18.5276   88.8949   25.8203 C.ar    1  UNL1        0.0170
     48 C          18.8916   89.0027   24.4658 C.ar    1  UNL1        0.0015
     49 C          17.9616   88.6956   23.4485 C.ar    1  UNL1        0.0001
     50 C          16.6595   88.2768   23.7759 C.ar    1  UNL1        0.0012
     51 C          16.3280   88.1745   25.1282 C.ar    1  UNL1        0.0131
     52 H          17.1627   88.4241   28.2574 H       1  UNL1        0.1660
@<TRIPOS>BOND
     1    25    26    1
     2    26    24    1
     3    24     8    1
     4     8     9    1
     5     9    10    1
     6    10    14    1
     7    14    15   ar
     8    15    16   ar
     9    16    17   ar
    10    17    20    1
    11    20    21    1
    12    20    22    1
    13    20    23    1
    14    17    18   ar
    15    18    19   ar
    16    10    11    1
    17    11    12    1
    18    12    13    1
    19    13     1    1
    20     1     2   ar
    21     2     3   ar
    22     3     4   ar
    23     4    27    1
    24    27    28    2
    25    27    29   am
    26    29    31    1
    27    31    42    1
    28    42    43    1
    29    43    44   ar
    30    44    45   ar
    31    45    46   ar
    32    46    47   ar
    33    47    48   ar
    34    48    49   ar
    35    49    50   ar
    36    50    51   ar
    37    31    32    1
    38    32    33    2
    39    32    34   am
    40    34    36    1
    41    36    37   ar
    42    37    38   ar
    43    38    39   ar
    44    39    40   ar
    45    40    41   ar
    46     4     5   ar
    47     5     6    1
    48     5     7   ar
    49    13     8    1
    50     7     1   ar
    51    19    14   ar
    52    51    43   ar
    53    41    36   ar
    54    51    46   ar
    55    29    30    1
    56    45    52    1
    57    34    35    1
@<TRIPOS>MOLECULE
*****
 52 57 0 0 0
SMALL
GASTEIGER

@<TRIPOS>ATOM
      1 C           6.8545   76.9383   25.8849 C.ar    1  UNL1        0.0502
      2 C           5.4752   76.8268   25.6605 C.ar    1  UNL1        0.0148
      3 C           4.9921   76.0854   24.5796 C.ar    1  UNL1        0.0080
      4 C           5.8799   75.4487   23.6958 C.ar    1  UNL1        0.0808
      5 C           7.2653   75.5442   23.9330 C.ar    1  UNL1        0.1457
      6 F           8.1569   74.8874   23.1486 F       1  UNL1       -0.2040
      7 C           7.7443   76.2853   25.0178 C.ar    1  UNL1        0.0443
      8 C           6.8658   77.4149   28.3592 C.3     1  UNL1        0.1223
      9 C           8.0095   77.6094   29.3649 C.3     1  UNL1        0.1144
     10 N           8.6732   78.8963   29.1306 N.pl3   1  UNL1       -0.2897
     11 C           9.1894   79.1572   27.7817 C.3     1  UNL1        0.1136
     12 C           8.0775   78.9626   26.7476 C.3     1  UNL1        0.1123
     13 N           7.3480   77.7097   26.9967 N.pl3   1  UNL1       -0.3034
     14 C           8.8536   79.8344   30.2092 C.ar    1  UNL1        0.1318
     15 C           9.2697   79.4083   31.4800 C.ar    1  UNL1        0.0343
     16 C           9.4316   80.3450   32.5019 C.ar    1  UNL1        0.0083
     17 C           9.1943   81.7060   32.2575 C.ar    1  UNL1        0.0906
     18 C           8.7448   82.0856   30.9832 C.ar    1  UNL1        0.1041
     19 N           8.5930   81.1551   30.0043 N.ar    1  UNL1       -0.2292
     20 C           9.3162   82.7206   33.3656 C.3     1  UNL1        0.4200
     21 F           8.0941   83.3216   33.6131 F       1  UNL1       -0.1658
     22 F          10.2290   83.6907   32.9963 F       1  UNL1       -0.1658
     23 F           9.7468   82.1172   34.5345 F       1  UNL1       -0.1658
     24 C           5.6562   78.2974   28.7099 C.3     1  UNL1        0.1636
     25 C           4.1277   77.4345   30.2017 C.3     1  UNL1        0.1742
     26 O           5.3421   78.1391   30.0778 O.3     1  UNL1       -0.3493
     27 C           5.3436   74.6767   22.5523 C.2     1  UNL1        0.2483
     28 O           5.7247   73.4868   22.3774 O.2     1  UNL1       -0.2701
     29 N           4.3720   75.2523   21.6642 N.am    1  UNL1       -0.2945
     30 H           3.8923   76.1356   21.9509 H       1  UNL1        0.1501
     31 C           3.8892   74.5442   20.4761 C.3     1  UNL1        0.1535
     32 C           2.4431   74.8924   20.2318 C.2     1  UNL1        0.2443
     33 O           1.8672   75.7054   21.0045 O.2     1  UNL1       -0.2730
     34 N           1.7405   74.3351   19.1101 N.am    1  UNL1       -0.2825
     35 H           2.3064   73.9744   18.3091 H       1  UNL1        0.1549
     36 C           0.3073   74.2658   19.0108 C.ar    1  UNL1        0.0535
     37 C          -0.4579   75.4038   19.2996 C.ar    1  UNL1        0.0353
     38 C          -1.8475   75.3561   19.1655 C.ar    1  UNL1        0.1002
     39 N          -2.4528   74.2161   18.7399 N.ar    1  UNL1       -0.2422
     40 C          -1.7372   73.1018   18.4346 C.ar    1  UNL1        0.1002
     41 C          -0.3460   73.1053   18.5592 C.ar    1  UNL1        0.0353
     42 C           4.7678   74.8902   19.2579 C.3     1  UNL1        0.0569
     43 C           4.9820   76.3727   19.1285 C.ar    1  UNL1       -0.0017
     44 C           4.1418   77.2737   18.4812 C.ar    1  UNL1        0.0681
     45 N           4.5831   78.5401   18.6555 N.ar    1  UNL1       -0.3523
     46 C           5.6890   78.4477   19.4142 C.ar    1  UNL1        0.0563
     47 C           6.4789   79.4954   19.8854 C.ar    1  UNL1        0.0170
     48 C           7.5839   79.1740   20.6945 C.ar    1  UNL1        0.0015
     49 C           7.8723   77.8281   21.0097 C.ar    1  UNL1        0.0001
     50 C           7.0581   76.7911   20.5199 C.ar    1  UNL1        0.0012
     51 C           5.9660   77.1403   19.7234 C.ar    1  UNL1        0.0131
     52 H           4.1391   79.4121   18.2910 H       1  UNL1        0.1660
@<TRIPOS>BOND
     1    25    26    1
     2    26    24    1
     3    24     8    1
     4     8     9    1
     5     9    10    1
     6    10    14    1
     7    14    15   ar
     8    15    16   ar
     9    16    17   ar
    10    17    20    1
    11    20    21    1
    12    20    22    1
    13    20    23    1
    14    17    18   ar
    15    18    19   ar
    16    10    11    1
    17    11    12    1
    18    12    13    1
    19    13     1    1
    20     1     2   ar
    21     2     3   ar
    22     3     4   ar
    23     4    27    1
    24    27    28    2
    25    27    29   am
    26    29    31    1
    27    31    42    1
    28    42    43    1
    29    43    44   ar
    30    44    45   ar
    31    45    46   ar
    32    46    47   ar
    33    47    48   ar
    34    48    49   ar
    35    49    50   ar
    36    50    51   ar
    37    31    32    1
    38    32    33    2
    39    32    34   am
    40    34    36    1
    41    36    37   ar
    42    37    38   ar
    43    38    39   ar
    44    39    40   ar
    45    40    41   ar
    46     4     5   ar
    47     5     6    1
    48     5     7   ar
    49    13     8    1
    50     7     1   ar
    51    19    14   ar
    52    51    43   ar
    53    41    36   ar
    54    51    46   ar
    55    29    30    1
    56    45    52    1
    57    34    35    1
@<TRIPOS>MOLECULE
*****
 52 57 0 0 0
SMALL
GASTEIGER

@<TRIPOS>ATOM
      1 C           6.0326   76.6543   23.1972 C.ar    1  UNL1        0.0502
      2 C           7.2842   76.9755   22.6535 C.ar    1  UNL1        0.0148
      3 C           8.3144   77.4387   23.4752 C.ar    1  UNL1        0.0080
      4 C           8.1100   77.5992   24.8562 C.ar    1  UNL1        0.0808
      5 C           6.8585   77.2572   25.4054 C.ar    1  UNL1        0.1457
      6 F           6.6379   77.3276   26.7426 F       1  UNL1       -0.2040
      7 C           5.8309   76.7914   24.5793 C.ar    1  UNL1        0.0443
      8 C           3.9009   77.1118   21.9337 C.3     1  UNL1        0.1223
      9 C           3.4698   76.7975   20.4941 C.3     1  UNL1        0.1144
     10 N           3.2316   75.3582   20.3422 N.pl3   1  UNL1       -0.2897
     11 C           4.3221   74.4479   20.7114 C.3     1  UNL1        0.1136
     12 C           4.7871   74.7385   22.1406 C.3     1  UNL1        0.1123
     13 N           4.9711   76.1836   22.3448 N.pl3   1  UNL1       -0.3034
     14 C           1.9887   74.8752   19.7964 C.ar    1  UNL1        0.1318
     15 C           1.1528   75.7129   19.0421 C.ar    1  UNL1        0.0343
     16 C          -0.0452   75.2114   18.5309 C.ar    1  UNL1        0.0083
     17 C          -0.4054   73.8745   18.7566 C.ar    1  UNL1        0.0906
     18 C           0.4409   73.0806   19.5462 C.ar    1  UNL1        0.1041
     19 N           1.6017   73.5915   20.0345 N.ar    1  UNL1       -0.2292
     20 C          -1.7200   73.3351   18.2534 C.3     1  UNL1        0.4200
     21 F          -2.7613   73.7552   19.0628 F       1  UNL1       -0.1658
     22 F          -1.6763   71.9535   18.2561 F       1  UNL1       -0.1658
     23 F          -1.9674   73.7764   16.9651 F       1  UNL1       -0.1658
     24 C           2.7107   77.0323   22.9043 C.3     1  UNL1        0.1636
     25 C           1.0075   78.5000   22.4032 C.3     1  UNL1        0.1742
     26 O           1.5074   77.2005   22.1843 O.3     1  UNL1       -0.3493
     27 C           9.2146   78.1008   25.7045 C.2     1  UNL1        0.2483
     28 O           9.6848   79.2516   25.4892 O.2     1  UNL1       -0.2701
     29 N           9.7309   77.3104   26.7872 N.am    1  UNL1       -0.2945
     30 H           9.1857   76.4765   27.1033 H       1  UNL1        0.1501
     31 C          10.8792   77.7435   27.5872 C.3     1  UNL1        0.1535
     32 C          12.1481   77.5528   26.7963 C.2     1  UNL1        0.2443
     33 O          13.0786   76.8564   27.2850 O.2     1  UNL1       -0.2730
     34 N          12.2812   78.1252   25.4859 N.am    1  UNL1       -0.2825
     35 H          11.4070   78.3727   24.9696 H       1  UNL1        0.1549
     36 C          13.5411   78.3551   24.8313 C.ar    1  UNL1        0.0535
     37 C          14.2364   79.5467   25.0769 C.ar    1  UNL1        0.0353
     38 C          15.4799   79.7590   24.4771 C.ar    1  UNL1        0.1002
     39 N          16.0207   78.8062   23.6729 N.ar    1  UNL1       -0.2422
     40 C          15.3797   77.6327   23.4297 C.ar    1  UNL1        0.1002
     41 C          14.1323   77.3820   24.0059 C.ar    1  UNL1        0.0353
     42 C          10.6996   79.2110   28.0231 C.3     1  UNL1        0.0569
     43 C           9.9581   79.3182   29.3266 C.ar    1  UNL1       -0.0017
     44 C           9.4374   78.2619   30.0681 C.ar    1  UNL1        0.0681
     45 N           8.9337   78.7107   31.2403 N.ar    1  UNL1       -0.3523
     46 C           9.1396   80.0391   31.2495 C.ar    1  UNL1        0.0563
     47 C           8.8186   80.9356   32.2678 C.ar    1  UNL1        0.0170
     48 C           9.1510   82.2898   32.0812 C.ar    1  UNL1        0.0015
     49 C           9.7881   82.7130   30.8942 C.ar    1  UNL1        0.0001
     50 C          10.0998   81.7863   29.8832 C.ar    1  UNL1        0.0012
     51 C           9.7623   80.4488   30.0979 C.ar    1  UNL1        0.0131
     52 H           8.4943   78.1351   31.9927 H       1  UNL1        0.1660
@<TRIPOS>BOND
     1    25    26    1
     2    26    24    1
     3    24     8    1
     4     8     9    1
     5     9    10    1
     6    10    14    1
     7    14    15   ar
     8    15    16   ar
     9    16    17   ar
    10    17    20    1
    11    20    21    1
    12    20    22    1
    13    20    23    1
    14    17    18   ar
    15    18    19   ar
    16    10    11    1
    17    11    12    1
    18    12    13    1
    19    13     1    1
    20     1     2   ar
    21     2     3   ar
    22     3     4   ar
    23     4    27    1
    24    27    28    2
    25    27    29   am
    26    29    31    1
    27    31    42    1
    28    42    43    1
    29    43    44   ar
    30    44    45   ar
    31    45    46   ar
    32    46    47   ar
    33    47    48   ar
    34    48    49   ar
    35    49    50   ar
    36    50    51   ar
    37    31    32    1
    38    32    33    2
    39    32    34   am
    40    34    36    1
    41    36    37   ar
    42    37    38   ar
    43    38    39   ar
    44    39    40   ar
    45    40    41   ar
    46     4     5   ar
    47     5     6    1
    48     5     7   ar
    49    13     8    1
    50     7     1   ar
    51    19    14   ar
    52    51    43   ar
    53    41    36   ar
    54    51    46   ar
    55    29    30    1
    56    45    52    1
    57    34    35    1
