@<TRIPOS>MOLECULE
*****
 42 46 0 0 0
SMALL
GASTEIGER

@<TRIPOS>ATOM
      1 C         -22.0628   53.0116  -11.9250 C.3     1  UNL1        0.1333
      2 N         -22.1357   52.5106  -10.5525 N.ar    1  UNL1       -0.2950
      3 C         -21.1998   52.6102   -9.5701 C.ar    1  UNL1        0.2019
      4 N         -21.5862   52.0546   -8.3914 N.ar    1  UNL1       -0.2134
      5 C         -22.8223   51.6008   -8.6644 C.ar    1  UNL1        0.1033
      6 C         -23.6856   50.9392   -7.7949 C.ar    1  UNL1        0.0284
      7 C         -24.9573   50.5511   -8.2758 C.ar    1  UNL1        0.0922
      8 C         -25.3316   50.8866   -9.6069 C.ar    1  UNL1        0.1782
      9 C         -24.4190   51.5346  -10.4660 C.ar    1  UNL1        0.1897
     10 C         -23.1650   51.8808   -9.9559 C.ar    1  UNL1        0.1173
     11 O         -24.7999   51.8224  -11.7800 O.3     1  UNL1       -0.4669
     12 C         -25.9757   51.2438  -12.3492 C.3     1  UNL1        0.2527
     13 C         -27.0975   51.1946  -11.3057 C.3     1  UNL1        0.2526
     14 O         -26.6171   50.6136  -10.0913 O.3     1  UNL1       -0.4682
     15 C         -25.8871   49.8448   -7.3685 C.2     1  UNL1        0.2526
     16 O         -26.1841   48.6429   -7.6099 O.2     1  UNL1       -0.2697
     17 N         -26.4566   50.5151   -6.2308 N.am    1  UNL1       -0.2805
     18 H         -26.2276   51.5207   -6.0674 H       1  UNL1        0.1552
     19 C         -27.3191   49.8639   -5.2828 C.ar    1  UNL1        0.0489
     20 C         -26.8511   48.7509   -4.5636 C.ar    1  UNL1        0.0206
     21 C         -27.6901   48.0589   -3.6740 C.ar    1  UNL1        0.1000
     22 C         -29.0302   48.4608   -3.5526 C.ar    1  UNL1        0.1439
     23 F         -29.8847   47.7804   -2.7464 F       1  UNL1       -0.2042
     24 C         -29.5082   49.5565   -4.2737 C.ar    1  UNL1        0.0290
     25 C         -28.6590   50.2871   -5.1236 C.ar    1  UNL1        0.0227
     26 C         -27.1944   46.8485   -2.9186 C.3     1  UNL1        0.4207
     27 F         -25.8330   46.9670   -2.7085 F       1  UNL1       -0.1658
     28 F         -27.8248   46.7200   -1.6928 F       1  UNL1       -0.1658
     29 F         -27.4406   45.7015   -3.6522 F       1  UNL1       -0.1658
     30 C         -29.1995   51.4649   -5.9067 C.3     1  UNL1        0.1649
     31 O         -28.2597   52.5056   -5.9783 O.3     1  UNL1       -0.3772
     32 H         -28.4889   53.1546   -5.2629 H       1  UNL1        0.2109
     33 N         -19.9432   53.2851   -9.7315 N.pl3   1  UNL1       -0.2814
     34 H         -19.9441   54.3205   -9.8637 H       1  UNL1        0.1551
     35 C         -18.6939   52.6510   -9.4213 C.ar    1  UNL1        0.0889
     36 C         -18.2254   52.6657   -8.0971 C.ar    1  UNL1        0.1543
     37 F         -18.9565   53.2575   -7.1191 F       1  UNL1       -0.2028
     38 C         -17.0126   52.0517   -7.7711 C.ar    1  UNL1        0.0310
     39 C         -16.2520   51.4315   -8.7640 C.ar    1  UNL1        0.0033
     40 C         -16.6960   51.4328  -10.0882 C.ar    1  UNL1        0.0128
     41 C         -17.9093   52.0444  -10.4263 C.ar    1  UNL1        0.0733
     42 CL        -18.3759   52.1001  -12.1223 Cl      1  UNL1       -0.0809
@<TRIPOS>BOND
     1     1     2    1
     2     2     3   ar
     3     3    33    1
     4    33    35    1
     5    35    36   ar
     6    36    37    1
     7    36    38   ar
     8    38    39   ar
     9    39    40   ar
    10    40    41   ar
    11    41    42    1
    12     3     4   ar
    13     4     5   ar
    14     5     6   ar
    15     6     7   ar
    16     7    15    1
    17    15    16    2
    18    15    17   am
    19    17    19    1
    20    19    20   ar
    21    20    21   ar
    22    21    26    1
    23    26    27    1
    24    26    28    1
    25    26    29    1
    26    21    22   ar
    27    22    23    1
    28    22    24   ar
    29    24    25   ar
    30    25    30    1
    31    30    31    1
    32     7     8   ar
    33     8     9   ar
    34     9    10   ar
    35     9    11    1
    36    11    12    1
    37    12    13    1
    38    13    14    1
    39    10     2   ar
    40    41    35   ar
    41    10     5   ar
    42    25    19   ar
    43    14     8    1
    44    33    34    1
    45    17    18    1
    46    31    32    1
@<TRIPOS>MOLECULE
*****
 42 46 0 0 0
SMALL
GASTEIGER

@<TRIPOS>ATOM
      1 C         -22.1296   52.9946  -11.9066 C.3     1  UNL1        0.1333
      2 N         -22.1858   52.4807  -10.5382 N.ar    1  UNL1       -0.2950
      3 C         -21.2411   52.5782   -9.5638 C.ar    1  UNL1        0.2019
      4 N         -21.6122   52.0093   -8.3866 N.ar    1  UNL1       -0.2134
      5 C         -22.8477   51.5491   -8.6519 C.ar    1  UNL1        0.1033
      6 C         -23.6978   50.8734   -7.7802 C.ar    1  UNL1        0.0284
      7 C         -24.9713   50.4806   -8.2523 C.ar    1  UNL1        0.0922
      8 C         -25.3608   50.8253   -9.5767 C.ar    1  UNL1        0.1782
      9 C         -24.4611   51.4876  -10.4386 C.ar    1  UNL1        0.1897
     10 C         -23.2048   51.8381   -9.9375 C.ar    1  UNL1        0.1173
     11 O         -24.8568   51.7845  -11.7463 O.3     1  UNL1       -0.4669
     12 C         -26.0338   51.2026  -12.3094 C.3     1  UNL1        0.2527
     13 C         -27.1451   51.1359  -11.2556 C.3     1  UNL1        0.2526
     14 O         -26.6489   50.5475  -10.0512 O.3     1  UNL1       -0.4682
     15 C         -25.8873   49.7595   -7.3427 C.2     1  UNL1        0.2526
     16 O         -26.6962   50.4214   -6.6366 O.2     1  UNL1       -0.2697
     17 N         -25.8554   48.3247   -7.2514 N.am    1  UNL1       -0.2805
     18 H         -25.1543   47.7959   -7.8166 H       1  UNL1        0.1552
     19 C         -26.7594   47.5670   -6.4297 C.ar    1  UNL1        0.0489
     20 C         -26.6033   47.5719   -5.0330 C.ar    1  UNL1        0.0206
     21 C         -27.4350   46.7950   -4.2090 C.ar    1  UNL1        0.1000
     22 C         -28.3958   45.9625   -4.8055 C.ar    1  UNL1        0.1439
     23 F         -29.1778   45.1550   -4.0442 F       1  UNL1       -0.2042
     24 C         -28.5488   45.9400   -6.1930 C.ar    1  UNL1        0.0290
     25 C         -27.7570   46.7567   -7.0196 C.ar    1  UNL1        0.0227
     26 C         -27.2522   46.7820   -2.7097 C.3     1  UNL1        0.4207
     27 F         -28.4229   47.1980   -2.1030 F       1  UNL1       -0.1658
     28 F         -26.9357   45.5163   -2.2464 F       1  UNL1       -0.1658
     29 F         -26.2278   47.6405   -2.3521 F       1  UNL1       -0.1658
     30 C         -27.9296   46.7087   -8.5231 C.3     1  UNL1        0.1649
     31 O         -26.7397   46.3247   -9.1621 O.3     1  UNL1       -0.3772
     32 H         -26.2869   47.1570   -9.4588 H       1  UNL1        0.2109
     33 N         -19.9910   53.2635   -9.7312 N.pl3   1  UNL1       -0.2814
     34 H         -20.0018   54.2973   -9.8752 H       1  UNL1        0.1551
     35 C         -18.7360   52.6453   -9.4120 C.ar    1  UNL1        0.0889
     36 C         -18.2733   52.6730   -8.0859 C.ar    1  UNL1        0.1543
     37 F         -19.0152   53.2623   -7.1146 F       1  UNL1       -0.2028
     38 C         -17.0552   52.0745   -7.7512 C.ar    1  UNL1        0.0310
     39 C         -16.2834   51.4572   -8.7372 C.ar    1  UNL1        0.0033
     40 C         -16.7218   51.4457  -10.0633 C.ar    1  UNL1        0.0128
     41 C         -17.9404   52.0417  -10.4102 C.ar    1  UNL1        0.0733
     42 CL        -18.4003   52.0822  -12.1084 Cl      1  UNL1       -0.0809
@<TRIPOS>BOND
     1     1     2    1
     2     2     3   ar
     3     3    33    1
     4    33    35    1
     5    35    36   ar
     6    36    37    1
     7    36    38   ar
     8    38    39   ar
     9    39    40   ar
    10    40    41   ar
    11    41    42    1
    12     3     4   ar
    13     4     5   ar
    14     5     6   ar
    15     6     7   ar
    16     7    15    1
    17    15    16    2
    18    15    17   am
    19    17    19    1
    20    19    20   ar
    21    20    21   ar
    22    21    26    1
    23    26    27    1
    24    26    28    1
    25    26    29    1
    26    21    22   ar
    27    22    23    1
    28    22    24   ar
    29    24    25   ar
    30    25    30    1
    31    30    31    1
    32     7     8   ar
    33     8     9   ar
    34     9    10   ar
    35     9    11    1
    36    11    12    1
    37    12    13    1
    38    13    14    1
    39    10     2   ar
    40    41    35   ar
    41    10     5   ar
    42    25    19   ar
    43    14     8    1
    44    33    34    1
    45    17    18    1
    46    31    32    1
@<TRIPOS>MOLECULE
*****
 42 46 0 0 0
SMALL
GASTEIGER

@<TRIPOS>ATOM
      1 C         -22.5016   52.8736  -11.9522 C.3     1  UNL1        0.1333
      2 N         -22.5317   52.3806  -10.5752 N.ar    1  UNL1       -0.2950
      3 C         -21.5596   52.4724   -9.6277 C.ar    1  UNL1        0.2019
      4 N         -21.9107   51.9281   -8.4329 N.ar    1  UNL1       -0.2134
      5 C         -23.1619   51.4899   -8.6585 C.ar    1  UNL1        0.1033
      6 C         -24.0020   50.8446   -7.7548 C.ar    1  UNL1        0.0284
      7 C         -25.2954   50.4715   -8.1873 C.ar    1  UNL1        0.0922
      8 C         -25.7130   50.8053   -9.5059 C.ar    1  UNL1        0.1782
      9 C         -24.8233   51.4364  -10.4010 C.ar    1  UNL1        0.1897
     10 C         -23.5472   51.7679   -9.9384 C.ar    1  UNL1        0.1173
     11 O         -25.2476   51.7227  -11.7020 O.3     1  UNL1       -0.4669
     12 C         -26.4509   51.1574  -12.2252 C.3     1  UNL1        0.2527
     13 C         -27.5348   51.1288  -11.1416 C.3     1  UNL1        0.2526
     14 O         -27.0187   50.5475   -9.9421 O.3     1  UNL1       -0.4682
     15 C         -26.2013   49.7827   -7.2432 C.2     1  UNL1        0.2526
     16 O         -26.0817   48.5381   -7.0769 O.2     1  UNL1       -0.2697
     17 N         -27.2132   50.5129   -6.5286 N.am    1  UNL1       -0.2805
     18 H         -27.3210   51.5363   -6.7062 H       1  UNL1        0.1552
     19 C         -28.0828   49.9085   -5.5565 C.ar    1  UNL1        0.0489
     20 C         -27.5378   49.3273   -4.3987 C.ar    1  UNL1        0.0206
     21 C         -28.3575   48.6782   -3.4601 C.ar    1  UNL1        0.1000
     22 C         -29.7326   48.5661   -3.7217 C.ar    1  UNL1        0.1439
     23 F         -30.5459   47.8958   -2.8658 F       1  UNL1       -0.2042
     24 C         -30.2811   49.1278   -4.8761 C.ar    1  UNL1        0.0290
     25 C         -29.4748   49.8267   -5.7918 C.ar    1  UNL1        0.0227
     26 C         -27.7692   48.0330   -2.2275 C.3     1  UNL1        0.4207
     27 F         -27.8580   46.6582   -2.3447 F       1  UNL1       -0.1658
     28 F         -26.4401   48.3806   -2.0560 F       1  UNL1       -0.1658
     29 F         -28.4688   48.4372   -1.1043 F       1  UNL1       -0.1658
     30 C         -30.0865   50.4180   -7.0444 C.3     1  UNL1        0.1649
     31 O         -29.3171   50.1174   -8.1798 O.3     1  UNL1       -0.3772
     32 H         -28.7362   50.9034   -8.3543 H       1  UNL1        0.2109
     33 N         -20.3007   53.1291   -9.8382 N.pl3   1  UNL1       -0.2814
     34 H         -19.7808   52.9436  -10.7241 H       1  UNL1        0.1551
     35 C         -19.8796   54.2414   -9.0354 C.ar    1  UNL1        0.0889
     36 C         -20.3215   55.5336   -9.3646 C.ar    1  UNL1        0.1543
     37 F         -21.1530   55.7242  -10.4198 F       1  UNL1       -0.2028
     38 C         -19.9266   56.6316   -8.5950 C.ar    1  UNL1        0.0310
     39 C         -19.0777   56.4518   -7.5013 C.ar    1  UNL1        0.0033
     40 C         -18.6120   55.1749   -7.1801 C.ar    1  UNL1        0.0128
     41 C         -19.0012   54.0676   -7.9436 C.ar    1  UNL1        0.0733
     42 CL        -18.3112   52.4963   -7.5539 Cl      1  UNL1       -0.0809
@<TRIPOS>BOND
     1     1     2    1
     2     2     3   ar
     3     3    33    1
     4    33    35    1
     5    35    36   ar
     6    36    37    1
     7    36    38   ar
     8    38    39   ar
     9    39    40   ar
    10    40    41   ar
    11    41    42    1
    12     3     4   ar
    13     4     5   ar
    14     5     6   ar
    15     6     7   ar
    16     7    15    1
    17    15    16    2
    18    15    17   am
    19    17    19    1
    20    19    20   ar
    21    20    21   ar
    22    21    26    1
    23    26    27    1
    24    26    28    1
    25    26    29    1
    26    21    22   ar
    27    22    23    1
    28    22    24   ar
    29    24    25   ar
    30    25    30    1
    31    30    31    1
    32     7     8   ar
    33     8     9   ar
    34     9    10   ar
    35     9    11    1
    36    11    12    1
    37    12    13    1
    38    13    14    1
    39    10     2   ar
    40    41    35   ar
    41    10     5   ar
    42    25    19   ar
    43    14     8    1
    44    33    34    1
    45    17    18    1
    46    31    32    1
@<TRIPOS>MOLECULE
*****
 42 46 0 0 0
SMALL
GASTEIGER

@<TRIPOS>ATOM
      1 C         -31.5060   50.4802   -6.5751 C.3     1  UNL1        0.1333
      2 N         -30.1530   50.4274   -6.0215 N.ar    1  UNL1       -0.2950
      3 C         -29.7801   50.2054   -4.7320 C.ar    1  UNL1        0.2019
      4 N         -28.4335   50.1979   -4.5481 N.ar    1  UNL1       -0.2134
      5 C         -27.9600   50.4175   -5.7874 C.ar    1  UNL1        0.1033
      6 C         -26.6250   50.5049   -6.1737 C.ar    1  UNL1        0.0284
      7 C         -26.3331   50.7308   -7.5385 C.ar    1  UNL1        0.0922
      8 C         -27.4008   50.8143   -8.4754 C.ar    1  UNL1        0.1782
      9 C         -28.7417   50.7470   -8.0413 C.ar    1  UNL1        0.1897
     10 C         -28.9849   50.5446   -6.6803 C.ar    1  UNL1        0.1173
     11 O         -29.7726   50.8661   -8.9781 O.3     1  UNL1       -0.4669
     12 C         -29.5106   51.3182  -10.3078 C.3     1  UNL1        0.2527
     13 C         -28.1891   50.7291  -10.8143 C.3     1  UNL1        0.2526
     14 O         -27.1550   50.9341   -9.8490 O.3     1  UNL1       -0.4682
     15 C         -24.9216   50.8296   -7.9679 C.2     1  UNL1        0.2526
     16 O         -24.0789   50.0193   -7.4943 O.2     1  UNL1       -0.2697
     17 N         -24.5061   51.8388   -8.9043 N.am    1  UNL1       -0.2805
     18 H         -25.2106   52.5236   -9.2579 H       1  UNL1        0.1552
     19 C         -23.1616   51.9465   -9.4018 C.ar    1  UNL1        0.0489
     20 C         -22.1082   52.2182   -8.5120 C.ar    1  UNL1        0.0206
     21 C         -20.7932   52.3868   -8.9772 C.ar    1  UNL1        0.1000
     22 C         -20.5498   52.3364  -10.3593 C.ar    1  UNL1        0.1439
     23 F         -19.3021   52.5519  -10.8490 F       1  UNL1       -0.2042
     24 C         -21.5923   52.0813  -11.2522 C.ar    1  UNL1        0.0290
     25 C         -22.9007   51.8567  -10.7887 C.ar    1  UNL1        0.0227
     26 C         -19.6648   52.7020   -8.0238 C.3     1  UNL1        0.4207
     27 F         -18.8274   51.6059   -7.9284 F       1  UNL1       -0.1658
     28 F         -18.9256   53.7914   -8.4523 F       1  UNL1       -0.1658
     29 F         -20.1737   52.9926   -6.7704 F       1  UNL1       -0.1658
     30 C         -24.0201   51.5939  -11.7739 C.3     1  UNL1        0.1649
     31 O         -24.7636   50.4592  -11.4119 O.3     1  UNL1       -0.3772
     32 H         -24.4107   49.6982  -11.9429 H       1  UNL1        0.2109
     33 N         -30.7073   49.9455   -3.6675 N.pl3   1  UNL1       -0.2814
     34 H         -31.6552   50.3804   -3.7114 H       1  UNL1        0.1551
     35 C         -30.4982   48.8907   -2.7173 C.ar    1  UNL1        0.0889
     36 C         -29.9902   47.6578   -3.1592 C.ar    1  UNL1        0.1543
     37 F         -29.6833   47.4737   -4.4681 F       1  UNL1       -0.2028
     38 C         -29.7755   46.6170   -2.2511 C.ar    1  UNL1        0.0310
     39 C         -30.0787   46.7925   -0.8997 C.ar    1  UNL1        0.0033
     40 C         -30.6078   48.0056   -0.4535 C.ar    1  UNL1        0.0128
     41 C         -30.8267   49.0553   -1.3540 C.ar    1  UNL1        0.0733
     42 CL        -31.5828   50.5280   -0.7570 Cl      1  UNL1       -0.0809
@<TRIPOS>BOND
     1     1     2    1
     2     2     3   ar
     3     3    33    1
     4    33    35    1
     5    35    36   ar
     6    36    37    1
     7    36    38   ar
     8    38    39   ar
     9    39    40   ar
    10    40    41   ar
    11    41    42    1
    12     3     4   ar
    13     4     5   ar
    14     5     6   ar
    15     6     7   ar
    16     7    15    1
    17    15    16    2
    18    15    17   am
    19    17    19    1
    20    19    20   ar
    21    20    21   ar
    22    21    26    1
    23    26    27    1
    24    26    28    1
    25    26    29    1
    26    21    22   ar
    27    22    23    1
    28    22    24   ar
    29    24    25   ar
    30    25    30    1
    31    30    31    1
    32     7     8   ar
    33     8     9   ar
    34     9    10   ar
    35     9    11    1
    36    11    12    1
    37    12    13    1
    38    13    14    1
    39    10     2   ar
    40    41    35   ar
    41    10     5   ar
    42    25    19   ar
    43    14     8    1
    44    33    34    1
    45    17    18    1
    46    31    32    1
@<TRIPOS>MOLECULE
*****
 42 46 0 0 0
SMALL
GASTEIGER

@<TRIPOS>ATOM
      1 C         -22.3291   53.0872  -12.0176 C.3     1  UNL1        0.1333
      2 N         -22.3665   52.5234  -10.6683 N.ar    1  UNL1       -0.2950
      3 C         -21.4138   52.5961   -9.6998 C.ar    1  UNL1        0.2019
      4 N         -21.7674   51.9806   -8.5408 N.ar    1  UNL1       -0.2134
      5 C         -23.0001   51.5163   -8.8113 C.ar    1  UNL1        0.1033
      6 C         -23.8345   50.7998   -7.9571 C.ar    1  UNL1        0.0284
      7 C         -25.1080   50.4100   -8.4317 C.ar    1  UNL1        0.0922
      8 C         -25.5139   50.7981   -9.7390 C.ar    1  UNL1        0.1782
      9 C         -24.6297   51.5016  -10.5844 C.ar    1  UNL1        0.1897
     10 C         -23.3727   51.8479  -10.0822 C.ar    1  UNL1        0.1173
     11 O         -25.0411   51.8412  -11.8766 O.3     1  UNL1       -0.4669
     12 C         -26.2170   51.2668  -12.4498 C.3     1  UNL1        0.2527
     13 C         -27.3174   51.1493  -11.3891 C.3     1  UNL1        0.2526
     14 O         -26.8033   50.5232  -10.2116 O.3     1  UNL1       -0.4682
     15 C         -26.0073   49.6459   -7.5406 C.2     1  UNL1        0.2526
     16 O         -25.5240   48.7278   -6.8234 O.2     1  UNL1       -0.2697
     17 N         -27.4156   49.9332   -7.4942 N.am    1  UNL1       -0.2805
     18 H         -27.8035   50.6723   -8.1217 H       1  UNL1        0.1552
     19 C         -28.3275   49.2643   -6.6067 C.ar    1  UNL1        0.0489
     20 C         -28.7726   47.9667   -6.9121 C.ar    1  UNL1        0.0206
     21 C         -29.7085   47.3114   -6.0943 C.ar    1  UNL1        0.1000
     22 C         -30.2417   47.9950   -4.9896 C.ar    1  UNL1        0.1439
     23 F         -31.1903   47.4149   -4.2107 F       1  UNL1       -0.2042
     24 C         -29.8163   49.2897   -4.6864 C.ar    1  UNL1        0.0290
     25 C         -28.8391   49.9300   -5.4688 C.ar    1  UNL1        0.0227
     26 C         -30.2048   45.9261   -6.4352 C.3     1  UNL1        0.4207
     27 F         -31.5099   46.0059   -6.8846 F       1  UNL1       -0.1658
     28 F         -29.4302   45.3356   -7.4191 F       1  UNL1       -0.1658
     29 F         -30.1621   45.1201   -5.3114 F       1  UNL1       -0.1658
     30 C         -28.4000   51.3392   -5.1309 C.3     1  UNL1        0.1649
     31 O         -28.4614   52.1772   -6.2559 O.3     1  UNL1       -0.3772
     32 H         -27.5466   52.2170   -6.6396 H       1  UNL1        0.2109
     33 N         -20.1730   53.3012   -9.8534 N.pl3   1  UNL1       -0.2814
     34 H         -19.6220   53.1606  -10.7288 H       1  UNL1        0.1551
     35 C         -19.8136   54.4019   -9.0059 C.ar    1  UNL1        0.0889
     36 C         -20.3566   55.6722   -9.2610 C.ar    1  UNL1        0.1543
     37 F         -21.2262   55.8510  -10.2871 F       1  UNL1       -0.2028
     38 C         -20.0232   56.7583   -8.4468 C.ar    1  UNL1        0.0310
     39 C         -19.1361   56.5897   -7.3821 C.ar    1  UNL1        0.0033
     40 C         -18.5707   55.3368   -7.1346 C.ar    1  UNL1        0.0128
     41 C         -18.8976   54.2415   -7.9434 C.ar    1  UNL1        0.0733
     42 CL        -18.0854   52.7087   -7.6471 Cl      1  UNL1       -0.0809
@<TRIPOS>BOND
     1     1     2    1
     2     2     3   ar
     3     3    33    1
     4    33    35    1
     5    35    36   ar
     6    36    37    1
     7    36    38   ar
     8    38    39   ar
     9    39    40   ar
    10    40    41   ar
    11    41    42    1
    12     3     4   ar
    13     4     5   ar
    14     5     6   ar
    15     6     7   ar
    16     7    15    1
    17    15    16    2
    18    15    17   am
    19    17    19    1
    20    19    20   ar
    21    20    21   ar
    22    21    26    1
    23    26    27    1
    24    26    28    1
    25    26    29    1
    26    21    22   ar
    27    22    23    1
    28    22    24   ar
    29    24    25   ar
    30    25    30    1
    31    30    31    1
    32     7     8   ar
    33     8     9   ar
    34     9    10   ar
    35     9    11    1
    36    11    12    1
    37    12    13    1
    38    13    14    1
    39    10     2   ar
    40    41    35   ar
    41    10     5   ar
    42    25    19   ar
    43    14     8    1
    44    33    34    1
    45    17    18    1
    46    31    32    1
@<TRIPOS>MOLECULE
*****
 42 46 0 0 0
SMALL
GASTEIGER

@<TRIPOS>ATOM
      1 C         -30.4022   47.5627   -5.7271 C.3     1  UNL1        0.1333
      2 N         -28.9984   47.9646   -5.6404 N.ar    1  UNL1       -0.2950
      3 C         -28.0573   47.5463   -4.7513 C.ar    1  UNL1        0.2019
      4 N         -26.8323   48.0990   -4.9546 N.ar    1  UNL1       -0.2134
      5 C         -27.0325   48.8870   -6.0258 C.ar    1  UNL1        0.1033
      6 C         -26.0925   49.6921   -6.6641 C.ar    1  UNL1        0.0284
      7 C         -26.5031   50.4416   -7.7905 C.ar    1  UNL1        0.0922
      8 C         -27.8396   50.3160   -8.2622 C.ar    1  UNL1        0.1782
      9 C         -28.7700   49.5099   -7.5725 C.ar    1  UNL1        0.1897
     10 C         -28.3270   48.8034   -6.4514 C.ar    1  UNL1        0.1173
     11 O         -30.0861   49.4308   -8.0375 O.3     1  UNL1       -0.4669
     12 C         -30.5756   50.3438   -9.0213 C.3     1  UNL1        0.2527
     13 C         -29.4931   50.6176  -10.0716 C.3     1  UNL1        0.2526
     14 O         -28.2607   50.9589   -9.4331 O.3     1  UNL1       -0.4682
     15 C         -25.5203   51.3046   -8.4802 C.2     1  UNL1        0.2526
     16 O         -25.8039   52.5173   -8.6805 O.2     1  UNL1       -0.2697
     17 N         -24.2610   50.7739   -8.9281 N.am    1  UNL1       -0.2805
     18 H         -24.0588   49.7593   -8.7858 H       1  UNL1        0.1552
     19 C         -23.2443   51.5767   -9.5511 C.ar    1  UNL1        0.0489
     20 C         -22.1291   51.9933   -8.8042 C.ar    1  UNL1        0.0206
     21 C         -21.1494   52.8267   -9.3697 C.ar    1  UNL1        0.1000
     22 C         -21.3270   53.2889  -10.6838 C.ar    1  UNL1        0.1439
     23 F         -20.4306   54.1414  -11.2429 F       1  UNL1       -0.2042
     24 C         -22.4389   52.8920  -11.4290 C.ar    1  UNL1        0.0290
     25 C         -23.3944   52.0139  -10.8876 C.ar    1  UNL1        0.0227
     26 C         -19.9630   53.2936   -8.5599 C.3     1  UNL1        0.4207
     27 F         -18.8019   52.7953   -9.1213 F       1  UNL1       -0.1658
     28 F         -19.8831   54.6753   -8.5241 F       1  UNL1       -0.1658
     29 F         -20.0697   52.8342   -7.2591 F       1  UNL1       -0.1658
     30 C         -24.5999   51.6050  -11.7075 C.3     1  UNL1        0.1649
     31 O         -24.8102   50.2179  -11.6504 O.3     1  UNL1       -0.3772
     32 H         -24.3965   49.8270  -12.4639 H       1  UNL1        0.2109
     33 N         -28.3055   46.5718   -3.7271 N.pl3   1  UNL1       -0.2814
     34 H         -27.7290   45.7016   -3.7133 H       1  UNL1        0.1551
     35 C         -29.0895   46.8737   -2.5639 C.ar    1  UNL1        0.0889
     36 C         -28.7219   47.9573   -1.7490 C.ar    1  UNL1        0.1543
     37 F         -27.6473   48.7211   -2.0699 F       1  UNL1       -0.2028
     38 C         -29.4726   48.2719   -0.6126 C.ar    1  UNL1        0.0310
     39 C         -30.5858   47.5010   -0.2726 C.ar    1  UNL1        0.0033
     40 C         -30.9456   46.4062   -1.0616 C.ar    1  UNL1        0.0128
     41 C         -30.2012   46.0818   -2.2023 C.ar    1  UNL1        0.0733
     42 CL        -30.6405   44.6378   -3.1073 Cl      1  UNL1       -0.0809
@<TRIPOS>BOND
     1     1     2    1
     2     2     3   ar
     3     3    33    1
     4    33    35    1
     5    35    36   ar
     6    36    37    1
     7    36    38   ar
     8    38    39   ar
     9    39    40   ar
    10    40    41   ar
    11    41    42    1
    12     3     4   ar
    13     4     5   ar
    14     5     6   ar
    15     6     7   ar
    16     7    15    1
    17    15    16    2
    18    15    17   am
    19    17    19    1
    20    19    20   ar
    21    20    21   ar
    22    21    26    1
    23    26    27    1
    24    26    28    1
    25    26    29    1
    26    21    22   ar
    27    22    23    1
    28    22    24   ar
    29    24    25   ar
    30    25    30    1
    31    30    31    1
    32     7     8   ar
    33     8     9   ar
    34     9    10   ar
    35     9    11    1
    36    11    12    1
    37    12    13    1
    38    13    14    1
    39    10     2   ar
    40    41    35   ar
    41    10     5   ar
    42    25    19   ar
    43    14     8    1
    44    33    34    1
    45    17    18    1
    46    31    32    1
@<TRIPOS>MOLECULE
*****
 42 46 0 0 0
SMALL
GASTEIGER

@<TRIPOS>ATOM
      1 C         -29.9171   50.8058   -6.9809 C.3     1  UNL1        0.1333
      2 N         -28.4750   50.7273   -6.7484 N.ar    1  UNL1       -0.2950
      3 C         -27.8248   50.4200   -5.5934 C.ar    1  UNL1        0.2019
      4 N         -26.4712   50.4123   -5.7159 N.ar    1  UNL1       -0.2134
      5 C         -26.2852   50.7217   -7.0113 C.ar    1  UNL1        0.1033
      6 C         -25.0697   50.8482   -7.6789 C.ar    1  UNL1        0.0284
      7 C         -25.0888   51.1709   -9.0553 C.ar    1  UNL1        0.0922
      8 C         -26.3382   51.3093   -9.7218 C.ar    1  UNL1        0.1782
      9 C         -27.5486   51.1995   -9.0050 C.ar    1  UNL1        0.1897
     10 C         -27.4829   50.9008   -7.6416 C.ar    1  UNL1        0.1173
     11 O         -28.7620   51.3736   -9.6773 O.3     1  UNL1       -0.4669
     12 C         -28.8008   51.9193  -10.9971 C.3     1  UNL1        0.2527
     13 C         -27.6296   51.3792  -11.8257 C.3     1  UNL1        0.2526
     14 O         -26.4047   51.5263  -11.1039 O.3     1  UNL1       -0.4682
     15 C         -23.8083   51.3125   -9.7810 C.2     1  UNL1        0.2526
     16 O         -23.6728   50.7475  -10.9006 O.2     1  UNL1       -0.2697
     17 N         -22.7246   52.0736   -9.2203 N.am    1  UNL1       -0.2805
     18 H         -22.8423   52.5039   -8.2761 H       1  UNL1        0.1552
     19 C         -21.4797   52.2940   -9.9044 C.ar    1  UNL1        0.0489
     20 C         -20.2939   51.7416   -9.3906 C.ar    1  UNL1        0.0206
     21 C         -19.0547   51.9886  -10.0049 C.ar    1  UNL1        0.1000
     22 C         -19.0060   52.8473  -11.1150 C.ar    1  UNL1        0.1439
     23 F         -17.8195   53.1546  -11.6987 F       1  UNL1       -0.2042
     24 C         -20.1768   53.4123  -11.6240 C.ar    1  UNL1        0.0290
     25 C         -21.4267   53.1249  -11.0475 C.ar    1  UNL1        0.0227
     26 C         -17.7773   51.4142   -9.4392 C.3     1  UNL1        0.4207
     27 F         -17.9982   50.1066   -9.0481 F       1  UNL1       -0.1658
     28 F         -16.7539   51.4335  -10.3713 F       1  UNL1       -0.1658
     29 F         -17.3740   52.1527   -8.3409 F       1  UNL1       -0.1658
     30 C         -22.6837   53.7574  -11.6065 C.3     1  UNL1        0.1649
     31 O         -23.2739   54.6290  -10.6772 O.3     1  UNL1       -0.3772
     32 H         -23.9939   54.1218  -10.2190 H       1  UNL1        0.2109
     33 N         -28.4924   50.0781   -4.3695 N.pl3   1  UNL1       -0.2814
     34 H         -29.2758   50.6842   -4.0400 H       1  UNL1        0.1551
     35 C         -28.3331   48.7940   -3.7493 C.ar    1  UNL1        0.0889
     36 C         -27.1621   48.5217   -3.0225 C.ar    1  UNL1        0.1543
     37 F         -26.2007   49.4706   -2.8936 F       1  UNL1       -0.2028
     38 C         -26.9867   47.2789   -2.4073 C.ar    1  UNL1        0.0310
     39 C         -27.9696   46.2944   -2.5236 C.ar    1  UNL1        0.0033
     40 C         -29.1265   46.5454   -3.2648 C.ar    1  UNL1        0.0128
     41 C         -29.3132   47.7868   -3.8851 C.ar    1  UNL1        0.0733
     42 CL        -30.7433   48.0178   -4.8844 Cl      1  UNL1       -0.0809
@<TRIPOS>BOND
     1     1     2    1
     2     2     3   ar
     3     3    33    1
     4    33    35    1
     5    35    36   ar
     6    36    37    1
     7    36    38   ar
     8    38    39   ar
     9    39    40   ar
    10    40    41   ar
    11    41    42    1
    12     3     4   ar
    13     4     5   ar
    14     5     6   ar
    15     6     7   ar
    16     7    15    1
    17    15    16    2
    18    15    17   am
    19    17    19    1
    20    19    20   ar
    21    20    21   ar
    22    21    26    1
    23    26    27    1
    24    26    28    1
    25    26    29    1
    26    21    22   ar
    27    22    23    1
    28    22    24   ar
    29    24    25   ar
    30    25    30    1
    31    30    31    1
    32     7     8   ar
    33     8     9   ar
    34     9    10   ar
    35     9    11    1
    36    11    12    1
    37    12    13    1
    38    13    14    1
    39    10     2   ar
    40    41    35   ar
    41    10     5   ar
    42    25    19   ar
    43    14     8    1
    44    33    34    1
    45    17    18    1
    46    31    32    1
@<TRIPOS>MOLECULE
*****
 42 46 0 0 0
SMALL
GASTEIGER

@<TRIPOS>ATOM
      1 C         -22.5020   53.1229  -11.8657 C.3     1  UNL1        0.1333
      2 N         -22.4813   52.5141  -10.5358 N.ar    1  UNL1       -0.2950
      3 C         -21.4998   52.5804   -9.5958 C.ar    1  UNL1        0.2019
      4 N         -21.7998   51.9178   -8.4477 N.ar    1  UNL1       -0.2134
      5 C         -23.0283   51.4298   -8.6948 C.ar    1  UNL1        0.1033
      6 C         -23.8158   50.6634   -7.8395 C.ar    1  UNL1        0.0284
      7 C         -25.0936   50.2554   -8.2866 C.ar    1  UNL1        0.0922
      8 C         -25.5514   50.6755   -9.5666 C.ar    1  UNL1        0.1782
      9 C         -24.7135   51.4298  -10.4151 C.ar    1  UNL1        0.1897
     10 C         -23.4502   51.7929   -9.9414 C.ar    1  UNL1        0.1173
     11 O         -25.1751   51.8007  -11.6816 O.3     1  UNL1       -0.4669
     12 C         -26.3537   51.2142  -12.2366 C.3     1  UNL1        0.2527
     13 C         -27.4158   51.0323  -11.1463 C.3     1  UNL1        0.2526
     14 O         -26.8480   50.3818  -10.0073 O.3     1  UNL1       -0.4682
     15 C         -25.9436   49.4386   -7.3939 C.2     1  UNL1        0.2526
     16 O         -26.0193   48.1948   -7.5892 O.2     1  UNL1       -0.2697
     17 N         -26.6842   50.0480   -6.3224 N.am    1  UNL1       -0.2805
     18 H         -26.6377   51.0838   -6.1985 H       1  UNL1        0.1552
     19 C         -27.4797   49.2986   -5.3885 C.ar    1  UNL1        0.0489
     20 C         -28.5684   48.5397   -5.8509 C.ar    1  UNL1        0.0206
     21 C         -29.3985   47.8445   -4.9555 C.ar    1  UNL1        0.1000
     22 C         -29.1602   47.9630   -3.5767 C.ar    1  UNL1        0.1439
     23 F         -29.9762   47.3522   -2.6799 F       1  UNL1       -0.2042
     24 C         -28.0897   48.7262   -3.1070 C.ar    1  UNL1        0.0290
     25 C         -27.2222   49.3793   -4.0003 C.ar    1  UNL1        0.0227
     26 C         -30.5826   47.0479   -5.4504 C.3     1  UNL1        0.4207
     27 F         -31.1067   46.3107   -4.4047 F       1  UNL1       -0.1658
     28 F         -31.5743   47.8709   -5.9562 F       1  UNL1       -0.1658
     29 F         -30.1836   46.1856   -6.4562 F       1  UNL1       -0.1658
     30 C         -26.0742   50.2125   -3.4708 C.3     1  UNL1        0.1649
     31 O         -25.5449   49.6629   -2.2920 O.3     1  UNL1       -0.3772
     32 H         -25.9614   50.1476   -1.5323 H       1  UNL1        0.2109
     33 N         -20.2832   53.3232   -9.7645 N.pl3   1  UNL1       -0.2814
     34 H         -20.3379   54.3624   -9.8460 H       1  UNL1        0.1551
     35 C         -18.9952   52.7374   -9.5259 C.ar    1  UNL1        0.0889
     36 C         -18.2558   52.2368  -10.6104 C.ar    1  UNL1        0.1543
     37 F         -18.7475   52.3238  -11.8721 F       1  UNL1       -0.2028
     38 C         -16.9975   51.6648  -10.4022 C.ar    1  UNL1        0.0310
     39 C         -16.4736   51.5747   -9.1113 C.ar    1  UNL1        0.0033
     40 C         -17.2109   52.0463   -8.0229 C.ar    1  UNL1        0.0128
     41 C         -18.4723   52.6216   -8.2195 C.ar    1  UNL1        0.0733
     42 CL        -19.3989   53.1130   -6.8064 Cl      1  UNL1       -0.0809
@<TRIPOS>BOND
     1     1     2    1
     2     2     3   ar
     3     3    33    1
     4    33    35    1
     5    35    36   ar
     6    36    37    1
     7    36    38   ar
     8    38    39   ar
     9    39    40   ar
    10    40    41   ar
    11    41    42    1
    12     3     4   ar
    13     4     5   ar
    14     5     6   ar
    15     6     7   ar
    16     7    15    1
    17    15    16    2
    18    15    17   am
    19    17    19    1
    20    19    20   ar
    21    20    21   ar
    22    21    26    1
    23    26    27    1
    24    26    28    1
    25    26    29    1
    26    21    22   ar
    27    22    23    1
    28    22    24   ar
    29    24    25   ar
    30    25    30    1
    31    30    31    1
    32     7     8   ar
    33     8     9   ar
    34     9    10   ar
    35     9    11    1
    36    11    12    1
    37    12    13    1
    38    13    14    1
    39    10     2   ar
    40    41    35   ar
    41    10     5   ar
    42    25    19   ar
    43    14     8    1
    44    33    34    1
    45    17    18    1
    46    31    32    1
