@<TRIPOS>MOLECULE
*****
 46 51 0 0 0
SMALL
GASTEIGER

@<TRIPOS>ATOM
      1 C          13.1449   82.8633   24.4076 C.ar    1  UNL1        0.1318
      2 C          13.7435   81.6147   24.6482 C.ar    1  UNL1        0.0356
      3 C          12.9568   80.5433   25.0735 C.ar    1  UNL1        0.0191
      4 C          11.5828   80.7133   25.2791 C.ar    1  UNL1        0.0702
      5 C          11.0171   81.9703   25.0130 C.ar    1  UNL1        0.1149
      6 N          11.8018   82.9983   24.5950 N.ar    1  UNL1       -0.2279
      7 C          15.6125   86.3016   23.2198 C.3     1  UNL1        0.0472
      8 C          15.3666   85.0991   22.2777 C.3     1  UNL1        0.0252
      9 C          15.0690   83.8148   23.0592 C.3     1  UNL1        0.0923
     10 N          13.9233   83.9975   23.9676 N.pl3   1  UNL1       -0.2932
     11 C          13.5005   85.3559   24.3415 C.3     1  UNL1        0.0923
     12 C          14.7218   86.2695   24.4905 C.3     1  UNL1        0.0252
     13 C          15.5175   87.6388   22.4513 C.3     1  UNL1        0.2054
     14 O          14.3248   87.7219   21.6651 O.3     1  UNL1       -0.4755
     15 C          14.0976   88.2113   17.4693 C.ar    1  UNL1       -0.0158
     16 C          14.0405   89.3328   18.3166 C.ar    1  UNL1       -0.0009
     17 C          14.1297   89.1961   19.7006 C.ar    1  UNL1        0.0366
     18 C          14.2555   87.9255   20.2781 C.ar    1  UNL1        0.1387
     19 C          14.3327   86.8049   19.4481 C.ar    1  UNL1        0.0430
     20 C          14.2515   86.9176   18.0475 C.ar    1  UNL1        0.0745
     21 C          14.3085   85.6608   17.2562 C.2     1  UNL1        0.3378
     22 O          15.1096   85.5279   16.2944 O.2     1  UNL1       -0.2451
     23 O          13.4877   84.5899   17.6021 O.3     1  UNL1       -0.4771
     24 H          13.5195   83.7205   17.0831 H       1  UNL1        0.2954
     25 C          14.9883   89.3620   15.4234 C.3     1  UNL1        0.0050
     26 C          13.9053   88.4435   15.9841 C.3     1  UNL1        0.0266
     27 N          10.7815   79.5943   25.6959 N.am    1  UNL1       -0.2766
     28 C          11.3188   78.3816   26.2481 C.2     1  UNL1        0.2839
     29 O          12.5516   78.1347   26.1577 O.2     1  UNL1       -0.2665
     30 H           9.7540   79.6345   25.5082 H       1  UNL1        0.1553
     31 C          10.4164   77.4046   26.8864 C.ar    1  UNL1        0.1946
     32 O          10.8178   76.5599   27.8198 O.2     1  UNL1       -0.4492
     33 C           9.7872   75.8325   28.1751 C.ar    1  UNL1        0.1452
     34 C           9.7574   74.8190   29.1265 C.ar    1  UNL1        0.0375
     35 C           8.5363   74.1604   29.3515 C.ar    1  UNL1        0.0031
     36 C           7.3687   74.5225   28.6266 C.ar    1  UNL1        0.0002
     37 C           7.4421   75.5606   27.6669 C.ar    1  UNL1        0.0028
     38 C           8.6706   76.1929   27.4694 C.ar    1  UNL1        0.0337
     39 C           9.0553   77.2146   26.6222 C.ar    1  UNL1        0.0202
     40 C           8.2013   77.9553   25.6376 C.3     1  UNL1        0.0345
     41 C           6.0842   73.8195   28.8729 C.ar    1  UNL1        0.0000
     42 C           5.7083   72.7173   28.0814 C.ar    1  UNL1        0.0000
     43 C           4.4982   72.0571   28.3156 C.ar    1  UNL1        0.0000
     44 C           3.6519   72.4869   29.3399 C.ar    1  UNL1        0.0000
     45 C           4.0136   73.5785   30.1324 C.ar    1  UNL1        0.0000
     46 C           5.2221   74.2431   29.9021 C.ar    1  UNL1        0.0000
@<TRIPOS>BOND
     1    25    26    1
     2    26    15    1
     3    15    16   ar
     4    16    17   ar
     5    17    18   ar
     6    18    14    1
     7    14    13    1
     8    13     7    1
     9     7     8    1
    10     8     9    1
    11     9    10    1
    12    10     1    1
    13     1     2   ar
    14     2     3   ar
    15     3     4   ar
    16     4    27    1
    17    27    28   am
    18    28    29    2
    19    28    31    1
    20    31    32   ar
    21    32    33   ar
    22    33    34   ar
    23    34    35   ar
    24    35    36   ar
    25    36    41    1
    26    41    42   ar
    27    42    43   ar
    28    43    44   ar
    29    44    45   ar
    30    45    46   ar
    31    36    37   ar
    32    37    38   ar
    33    38    39   ar
    34    39    40    1
    35     4     5   ar
    36     5     6   ar
    37    10    11    1
    38    11    12    1
    39    18    19   ar
    40    19    20   ar
    41    20    21    1
    42    21    22    2
    43    21    23    1
    44    20    15   ar
    45    12     7    1
    46     6     1   ar
    47    39    31   ar
    48    38    33   ar
    49    46    41   ar
    50    27    30    1
    51    23    24    1
@<TRIPOS>MOLECULE
*****
 46 51 0 0 0
SMALL
GASTEIGER

@<TRIPOS>ATOM
      1 C           9.3962   78.8078   25.1176 C.ar    1  UNL1        0.1318
      2 C          10.0299   79.4608   26.1888 C.ar    1  UNL1        0.0356
      3 C          10.7044   80.6614   25.9625 C.ar    1  UNL1        0.0191
      4 C          10.7681   81.2043   24.6740 C.ar    1  UNL1        0.0702
      5 C          10.1095   80.5327   23.6319 C.ar    1  UNL1        0.1149
      6 N           9.4546   79.3670   23.8763 N.ar    1  UNL1       -0.2279
      7 C           7.3849   74.9329   25.6299 C.3     1  UNL1        0.0472
      8 C           7.5228   75.9494   26.7884 C.3     1  UNL1        0.0252
      9 C           8.7403   76.8617   26.6037 C.3     1  UNL1        0.0923
     10 N           8.6886   77.5634   25.3090 N.pl3   1  UNL1       -0.2932
     11 C           7.8206   77.0508   24.2377 C.3     1  UNL1        0.0923
     12 C           7.8048   75.5185   24.2552 C.3     1  UNL1        0.0252
     13 C           5.9752   74.3005   25.6098 C.3     1  UNL1        0.2054
     14 O           4.9809   75.1897   26.1276 O.3     1  UNL1       -0.4755
     15 C           2.4914   77.6700   23.7727 C.ar    1  UNL1       -0.0158
     16 C           2.6676   77.9403   25.1419 C.ar    1  UNL1       -0.0009
     17 C           3.4958   77.1460   25.9327 C.ar    1  UNL1        0.0366
     18 C           4.1545   76.0408   25.3775 C.ar    1  UNL1        0.1387
     19 C           4.0037   75.7720   24.0152 C.ar    1  UNL1        0.0430
     20 C           3.1782   76.5630   23.1944 C.ar    1  UNL1        0.0745
     21 C           3.0581   76.1713   21.7658 C.2     1  UNL1        0.3378
     22 O           3.9768   76.4144   20.9402 O.2     1  UNL1       -0.2451
     23 O           1.9247   75.4885   21.3306 O.3     1  UNL1       -0.4771
     24 H           1.8285   75.2021   20.3636 H       1  UNL1        0.2954
     25 C           2.1886   79.2615   21.8547 C.3     1  UNL1        0.0050
     26 C           1.5058   78.5314   23.0087 C.3     1  UNL1        0.0266
     27 N          11.4476   82.4535   24.4605 N.am    1  UNL1       -0.2766
     28 C          12.7244   82.7824   25.0316 C.2     1  UNL1        0.2839
     29 O          13.2011   82.0829   25.9655 O.2     1  UNL1       -0.2665
     30 H          10.9435   83.1969   23.9260 H       1  UNL1        0.1553
     31 C          13.4592   83.9672   24.5493 C.ar    1  UNL1        0.1946
     32 O          13.0628   85.2045   24.7896 O.2     1  UNL1       -0.4492
     33 C          13.9222   86.0192   24.2281 C.ar    1  UNL1        0.1452
     34 C          13.8923   87.4093   24.2297 C.ar    1  UNL1        0.0375
     35 C          14.9211   88.0924   23.5585 C.ar    1  UNL1        0.0031
     36 C          15.9594   87.3804   22.8994 C.ar    1  UNL1        0.0002
     37 C          15.9528   85.9650   22.9223 C.ar    1  UNL1        0.0028
     38 C          14.9162   85.3194   23.5982 C.ar    1  UNL1        0.0337
     39 C          14.6361   83.9802   23.7921 C.ar    1  UNL1        0.0202
     40 C          15.4211   82.8020   23.2992 C.3     1  UNL1        0.0345
     41 C          17.0410   88.1131   22.1935 C.ar    1  UNL1        0.0000
     42 C          16.8381   88.6085   20.8912 C.ar    1  UNL1        0.0000
     43 C          17.8582   89.2982   20.2289 C.ar    1  UNL1        0.0000
     44 C          19.0890   89.5018   20.8566 C.ar    1  UNL1        0.0000
     45 C          19.3026   89.0159   22.1485 C.ar    1  UNL1        0.0000
     46 C          18.2863   88.3248   22.8152 C.ar    1  UNL1        0.0000
@<TRIPOS>BOND
     1    25    26    1
     2    26    15    1
     3    15    16   ar
     4    16    17   ar
     5    17    18   ar
     6    18    14    1
     7    14    13    1
     8    13     7    1
     9     7     8    1
    10     8     9    1
    11     9    10    1
    12    10     1    1
    13     1     2   ar
    14     2     3   ar
    15     3     4   ar
    16     4    27    1
    17    27    28   am
    18    28    29    2
    19    28    31    1
    20    31    32   ar
    21    32    33   ar
    22    33    34   ar
    23    34    35   ar
    24    35    36   ar
    25    36    41    1
    26    41    42   ar
    27    42    43   ar
    28    43    44   ar
    29    44    45   ar
    30    45    46   ar
    31    36    37   ar
    32    37    38   ar
    33    38    39   ar
    34    39    40    1
    35     4     5   ar
    36     5     6   ar
    37    10    11    1
    38    11    12    1
    39    18    19   ar
    40    19    20   ar
    41    20    21    1
    42    21    22    2
    43    21    23    1
    44    20    15   ar
    45    12     7    1
    46     6     1   ar
    47    39    31   ar
    48    38    33   ar
    49    46    41   ar
    50    27    30    1
    51    23    24    1
@<TRIPOS>MOLECULE
*****
 46 51 0 0 0
SMALL
GASTEIGER

@<TRIPOS>ATOM
      1 C           9.0950   78.7705   24.6474 C.ar    1  UNL1        0.1318
      2 C           9.3733   79.3731   23.4086 C.ar    1  UNL1        0.0356
      3 C          10.1022   80.5626   23.3686 C.ar    1  UNL1        0.0191
      4 C          10.5378   81.1647   24.5547 C.ar    1  UNL1        0.0702
      5 C          10.2553   80.5256   25.7722 C.ar    1  UNL1        0.1149
      6 N           9.5479   79.3652   25.7870 N.ar    1  UNL1       -0.2279
      7 C           6.7833   75.0574   25.0836 C.3     1  UNL1        0.0472
      8 C           6.4508   76.1130   24.0022 C.3     1  UNL1        0.0252
      9 C           6.9039   77.5167   24.4181 C.3     1  UNL1        0.0923
     10 N           8.3433   77.5403   24.7326 N.pl3   1  UNL1       -0.2932
     11 C           9.0443   76.2813   25.0283 C.3     1  UNL1        0.0923
     12 C           8.1271   75.3342   25.8093 C.3     1  UNL1        0.0252
     13 C           6.6926   73.6256   24.5096 C.3     1  UNL1        0.2054
     14 O           7.2114   73.5476   23.1783 O.3     1  UNL1       -0.4755
     15 C          11.2495   72.9006   22.0963 C.ar    1  UNL1       -0.0158
     16 C          10.4470   71.8226   22.5121 C.ar    1  UNL1       -0.0009
     17 C           9.1100   72.0104   22.8575 C.ar    1  UNL1        0.0366
     18 C           8.5436   73.2916   22.8186 C.ar    1  UNL1        0.1387
     19 C           9.3234   74.3679   22.3894 C.ar    1  UNL1        0.0430
     20 C          10.6739   74.2028   22.0291 C.ar    1  UNL1        0.0745
     21 C          11.4257   75.4180   21.6202 C.2     1  UNL1        0.3378
     22 O          11.9262   76.1968   22.4732 O.2     1  UNL1       -0.2451
     23 O          11.6163   75.6887   20.2673 O.3     1  UNL1       -0.4771
     24 H          12.1357   76.5051   19.9676 H       1  UNL1        0.2954
     25 C          12.9158   72.0479   20.4232 C.3     1  UNL1        0.0050
     26 C          12.7138   72.6209   21.8238 C.3     1  UNL1        0.0266
     27 N          11.3070   82.3784   24.4962 N.am    1  UNL1       -0.2766
     28 C          12.7081   82.4581   24.8041 C.2     1  UNL1        0.2839
     29 O          13.2836   81.5044   25.3941 O.2     1  UNL1       -0.2665
     30 H          10.7969   83.2690   24.2986 H       1  UNL1        0.1553
     31 C          13.4645   83.6782   24.4642 C.ar    1  UNL1        0.1946
     32 O          13.0930   84.8848   24.8539 O.2     1  UNL1       -0.4492
     33 C          13.9665   85.7447   24.3901 C.ar    1  UNL1        0.1452
     34 C          13.9638   87.1248   24.5592 C.ar    1  UNL1        0.0375
     35 C          15.0037   87.8642   23.9698 C.ar    1  UNL1        0.0031
     36 C          16.0260   87.2172   23.2242 C.ar    1  UNL1        0.0002
     37 C          15.9918   85.8097   23.0765 C.ar    1  UNL1        0.0028
     38 C          14.9448   85.1072   23.6751 C.ar    1  UNL1        0.0337
     39 C          14.6392   83.7600   23.7079 C.ar    1  UNL1        0.0202
     40 C          15.3995   82.6350   23.0725 C.3     1  UNL1        0.0345
     41 C          17.1196   88.0089   22.6059 C.ar    1  UNL1        0.0000
     42 C          18.3453   88.1822   23.2769 C.ar    1  UNL1        0.0000
     43 C          19.3734   88.9281   22.6924 C.ar    1  UNL1        0.0000
     44 C          19.1915   89.5074   21.4347 C.ar    1  UNL1        0.0000
     45 C          17.9806   89.3423   20.7587 C.ar    1  UNL1        0.0000
     46 C          16.9488   88.5981   21.3388 C.ar    1  UNL1        0.0000
@<TRIPOS>BOND
     1    25    26    1
     2    26    15    1
     3    15    16   ar
     4    16    17   ar
     5    17    18   ar
     6    18    14    1
     7    14    13    1
     8    13     7    1
     9     7     8    1
    10     8     9    1
    11     9    10    1
    12    10     1    1
    13     1     2   ar
    14     2     3   ar
    15     3     4   ar
    16     4    27    1
    17    27    28   am
    18    28    29    2
    19    28    31    1
    20    31    32   ar
    21    32    33   ar
    22    33    34   ar
    23    34    35   ar
    24    35    36   ar
    25    36    41    1
    26    41    42   ar
    27    42    43   ar
    28    43    44   ar
    29    44    45   ar
    30    45    46   ar
    31    36    37   ar
    32    37    38   ar
    33    38    39   ar
    34    39    40    1
    35     4     5   ar
    36     5     6   ar
    37    10    11    1
    38    11    12    1
    39    18    19   ar
    40    19    20   ar
    41    20    21    1
    42    21    22    2
    43    21    23    1
    44    20    15   ar
    45    12     7    1
    46     6     1   ar
    47    39    31   ar
    48    38    33   ar
    49    46    41   ar
    50    27    30    1
    51    23    24    1
@<TRIPOS>MOLECULE
*****
 46 51 0 0 0
SMALL
GASTEIGER

@<TRIPOS>ATOM
      1 C          10.5144   79.6207   23.8958 C.ar    1  UNL1        0.1318
      2 C          10.4313   78.2248   24.0369 C.ar    1  UNL1        0.0356
      3 C           9.4338   77.5215   23.3600 C.ar    1  UNL1        0.0191
      4 C           8.5080   78.2017   22.5605 C.ar    1  UNL1        0.0702
      5 C           8.6321   79.5940   22.4303 C.ar    1  UNL1        0.1149
      6 N           9.6143   80.2577   23.0951 N.ar    1  UNL1       -0.2279
      7 C          13.5400   81.8913   26.1345 C.3     1  UNL1        0.0472
      8 C          13.9174   80.9251   24.9863 C.3     1  UNL1        0.0252
      9 C          12.8720   79.8191   24.8058 C.3     1  UNL1        0.0923
     10 N          11.5307   80.3858   24.5796 N.pl3   1  UNL1       -0.2932
     11 C          11.2579   81.7819   24.9541 C.3     1  UNL1        0.0923
     12 C          12.0121   82.1438   26.2381 C.3     1  UNL1        0.0252
     13 C          14.3622   83.1971   26.0554 C.3     1  UNL1        0.2054
     14 O          13.6778   84.2184   25.3231 O.3     1  UNL1       -0.4755
     15 C          15.2723   86.5514   22.1751 C.ar    1  UNL1       -0.0158
     16 C          15.2000   87.0763   23.4782 C.ar    1  UNL1       -0.0009
     17 C          14.6935   86.3196   24.5332 C.ar    1  UNL1        0.0366
     18 C          14.2217   85.0195   24.3071 C.ar    1  UNL1        0.1387
     19 C          14.3050   84.4788   23.0220 C.ar    1  UNL1        0.0430
     20 C          14.8185   85.2206   21.9417 C.ar    1  UNL1        0.0745
     21 C          14.8309   84.5657   20.6075 C.2     1  UNL1        0.3378
     22 O          14.2057   85.0561   19.6311 O.2     1  UNL1       -0.2451
     23 O          15.5767   83.4051   20.4156 O.3     1  UNL1       -0.4771
     24 H          15.6080   82.9498   19.5111 H       1  UNL1        0.2954
     25 C          16.9919   88.2551   21.5091 C.3     1  UNL1        0.0050
     26 C          15.7552   87.4731   21.0732 C.3     1  UNL1        0.0266
     27 N           7.4998   77.4609   21.8515 N.am    1  UNL1       -0.2766
     28 C           6.3498   76.8673   22.4757 C.2     1  UNL1        0.2839
     29 O           6.2991   76.7478   23.7295 O.2     1  UNL1       -0.2665
     30 H           7.6576   77.2735   20.8354 H       1  UNL1        0.1553
     31 C           5.2440   76.3596   21.6416 C.ar    1  UNL1        0.1946
     32 O           5.4032   75.9994   20.3804 O.2     1  UNL1       -0.4492
     33 C           4.2406   75.6010   19.9253 C.ar    1  UNL1        0.1452
     34 C           3.9483   75.1377   18.6473 C.ar    1  UNL1        0.0375
     35 C           2.6231   74.7610   18.3687 C.ar    1  UNL1        0.0031
     36 C           1.6147   74.8521   19.3659 C.ar    1  UNL1        0.0002
     37 C           1.9547   75.3287   20.6548 C.ar    1  UNL1        0.0028
     38 C           3.2800   75.6937   20.8966 C.ar    1  UNL1        0.0337
     39 C           3.9089   76.1866   22.0239 C.ar    1  UNL1        0.0202
     40 C           3.2948   76.4727   23.3612 C.3     1  UNL1        0.0345
     41 C           0.2181   74.4513   19.0598 C.ar    1  UNL1        0.0000
     42 C          -0.0653   73.1629   18.5675 C.ar    1  UNL1        0.0000
     43 C          -1.3813   72.7882   18.2802 C.ar    1  UNL1        0.0000
     44 C          -2.4272   73.6915   18.4809 C.ar    1  UNL1        0.0000
     45 C          -2.1593   74.9723   18.9693 C.ar    1  UNL1        0.0000
     46 C          -0.8451   75.3527   19.2576 C.ar    1  UNL1        0.0000
@<TRIPOS>BOND
     1    25    26    1
     2    26    15    1
     3    15    16   ar
     4    16    17   ar
     5    17    18   ar
     6    18    14    1
     7    14    13    1
     8    13     7    1
     9     7     8    1
    10     8     9    1
    11     9    10    1
    12    10     1    1
    13     1     2   ar
    14     2     3   ar
    15     3     4   ar
    16     4    27    1
    17    27    28   am
    18    28    29    2
    19    28    31    1
    20    31    32   ar
    21    32    33   ar
    22    33    34   ar
    23    34    35   ar
    24    35    36   ar
    25    36    41    1
    26    41    42   ar
    27    42    43   ar
    28    43    44   ar
    29    44    45   ar
    30    45    46   ar
    31    36    37   ar
    32    37    38   ar
    33    38    39   ar
    34    39    40    1
    35     4     5   ar
    36     5     6   ar
    37    10    11    1
    38    11    12    1
    39    18    19   ar
    40    19    20   ar
    41    20    21    1
    42    21    22    2
    43    21    23    1
    44    20    15   ar
    45    12     7    1
    46     6     1   ar
    47    39    31   ar
    48    38    33   ar
    49    46    41   ar
    50    27    30    1
    51    23    24    1
@<TRIPOS>MOLECULE
*****
 46 51 0 0 0
SMALL
GASTEIGER

@<TRIPOS>ATOM
      1 C          10.5458   79.7058   23.8275 C.ar    1  UNL1        0.1318
      2 C          10.5372   78.3022   23.8990 C.ar    1  UNL1        0.0356
      3 C           9.5412   77.5840   23.2357 C.ar    1  UNL1        0.0191
      4 C           8.5439   78.2556   22.5192 C.ar    1  UNL1        0.0702
      5 C           8.5940   79.6571   22.4564 C.ar    1  UNL1        0.1149
      6 N           9.5761   80.3357   23.1063 N.ar    1  UNL1       -0.2279
      7 C          13.5567   82.0282   26.0326 C.3     1  UNL1        0.0472
      8 C          13.9424   81.0268   24.9179 C.3     1  UNL1        0.0252
      9 C          12.8938   79.9206   24.7581 C.3     1  UNL1        0.0923
     10 N          11.5579   80.4863   24.4999 N.pl3   1  UNL1       -0.2932
     11 C          11.2876   81.8941   24.8299 C.3     1  UNL1        0.0923
     12 C          12.0289   82.2904   26.1113 C.3     1  UNL1        0.0252
     13 C          14.3860   83.3274   25.9245 C.3     1  UNL1        0.2054
     14 O          13.6664   84.3691   25.2575 O.3     1  UNL1       -0.4755
     15 C          14.2338   85.8238   21.3259 C.ar    1  UNL1       -0.0158
     16 C          15.0949   84.8415   21.8480 C.ar    1  UNL1       -0.0009
     17 C          14.9165   84.3365   23.1345 C.ar    1  UNL1        0.0366
     18 C          13.8811   84.8200   23.9458 C.ar    1  UNL1        0.1387
     19 C          13.0071   85.7814   23.4335 C.ar    1  UNL1        0.0430
     20 C          13.1625   86.3022   22.1352 C.ar    1  UNL1        0.0745
     21 C          12.2003   87.3473   21.6984 C.2     1  UNL1        0.3378
     22 O          12.3071   88.5399   22.0871 O.2     1  UNL1       -0.2451
     23 O          11.1781   87.0168   20.8119 O.3     1  UNL1       -0.4771
     24 H          10.5190   87.7168   20.4926 H       1  UNL1        0.2954
     25 C          13.8759   85.5615   18.8548 C.3     1  UNL1        0.0050
     26 C          14.5534   86.3786   19.9522 C.3     1  UNL1        0.0266
     27 N           7.5373   77.5011   21.8224 N.am    1  UNL1       -0.2766
     28 C           6.3849   76.9214   22.4551 C.2     1  UNL1        0.2839
     29 O           6.3300   76.8280   23.7109 O.2     1  UNL1       -0.2665
     30 H           7.6983   77.2924   20.8109 H       1  UNL1        0.1553
     31 C           5.2813   76.3974   21.6281 C.ar    1  UNL1        0.1946
     32 O           5.4401   76.0291   20.3692 O.2     1  UNL1       -0.4492
     33 C           4.2798   75.6168   19.9206 C.ar    1  UNL1        0.1452
     34 C           3.9881   75.1412   18.6470 C.ar    1  UNL1        0.0375
     35 C           2.6656   74.7504   18.3752 C.ar    1  UNL1        0.0031
     36 C           1.6593   74.8398   19.3747 C.ar    1  UNL1        0.0002
     37 C           1.9987   75.3292   20.6589 C.ar    1  UNL1        0.0028
     38 C           3.3213   75.7081   20.8940 C.ar    1  UNL1        0.0337
     39 C           3.9490   76.2152   22.0157 C.ar    1  UNL1        0.0202
     40 C           3.3361   76.5057   23.3527 C.3     1  UNL1        0.0345
     41 C           0.2655   74.4240   19.0757 C.ar    1  UNL1        0.0000
     42 C          -0.0109   73.1196   18.6236 C.ar    1  UNL1        0.0000
     43 C          -1.3243   72.7307   18.3429 C.ar    1  UNL1        0.0000
     44 C          -2.3744   73.6359   18.5104 C.ar    1  UNL1        0.0000
     45 C          -2.1134   74.9326   18.9589 C.ar    1  UNL1        0.0000
     46 C          -0.8019   75.3271   19.2403 C.ar    1  UNL1        0.0000
@<TRIPOS>BOND
     1    25    26    1
     2    26    15    1
     3    15    16   ar
     4    16    17   ar
     5    17    18   ar
     6    18    14    1
     7    14    13    1
     8    13     7    1
     9     7     8    1
    10     8     9    1
    11     9    10    1
    12    10     1    1
    13     1     2   ar
    14     2     3   ar
    15     3     4   ar
    16     4    27    1
    17    27    28   am
    18    28    29    2
    19    28    31    1
    20    31    32   ar
    21    32    33   ar
    22    33    34   ar
    23    34    35   ar
    24    35    36   ar
    25    36    41    1
    26    41    42   ar
    27    42    43   ar
    28    43    44   ar
    29    44    45   ar
    30    45    46   ar
    31    36    37   ar
    32    37    38   ar
    33    38    39   ar
    34    39    40    1
    35     4     5   ar
    36     5     6   ar
    37    10    11    1
    38    11    12    1
    39    18    19   ar
    40    19    20   ar
    41    20    21    1
    42    21    22    2
    43    21    23    1
    44    20    15   ar
    45    12     7    1
    46     6     1   ar
    47    39    31   ar
    48    38    33   ar
    49    46    41   ar
    50    27    30    1
    51    23    24    1
@<TRIPOS>MOLECULE
*****
 46 51 0 0 0
SMALL
GASTEIGER

@<TRIPOS>ATOM
      1 C           9.0005   78.9360   26.8818 C.ar    1  UNL1        0.1318
      2 C           9.6947   79.6260   27.8905 C.ar    1  UNL1        0.0356
      3 C          10.5453   80.6776   27.5465 C.ar    1  UNL1        0.0191
      4 C          10.7234   81.0324   26.2043 C.ar    1  UNL1        0.0702
      5 C          10.0011   80.3316   25.2256 C.ar    1  UNL1        0.1149
      6 N           9.1746   79.3139   25.5841 N.ar    1  UNL1       -0.2279
      7 C           6.3683   75.5983   28.0011 C.3     1  UNL1        0.0472
      8 C           5.8210   76.9104   27.3902 C.3     1  UNL1        0.0252
      9 C           6.7433   78.1002   27.6769 C.3     1  UNL1        0.0923
     10 N           8.1116   77.8417   27.1951 N.pl3   1  UNL1       -0.2932
     11 C           8.5393   76.4603   26.9255 C.3     1  UNL1        0.0923
     12 C           7.9166   75.5031   27.9474 C.3     1  UNL1        0.0252
     13 C           5.6675   74.3649   27.3885 C.3     1  UNL1        0.2054
     14 O           6.4708   73.7343   26.3861 O.3     1  UNL1       -0.4755
     15 C           6.5791   74.5514   22.2369 C.ar    1  UNL1       -0.0158
     16 C           5.5285   75.0493   23.0288 C.ar    1  UNL1       -0.0009
     17 C           5.4816   74.8059   24.4002 C.ar    1  UNL1        0.0366
     18 C           6.4769   74.0344   25.0151 C.ar    1  UNL1        0.1387
     19 C           7.5360   73.5498   24.2443 C.ar    1  UNL1        0.0430
     20 C           7.6092   73.7875   22.8590 C.ar    1  UNL1        0.0745
     21 C           8.7586   73.1979   22.1241 C.2     1  UNL1        0.3378
     22 O           8.7863   71.9759   21.8228 O.2     1  UNL1       -0.2451
     23 O           9.8142   74.0142   21.7248 O.3     1  UNL1       -0.4771
     24 H          10.6014   73.6344   21.2127 H       1  UNL1        0.2954
     25 C           5.5363   73.8160   20.0747 C.3     1  UNL1        0.0050
     26 C           6.5047   74.7896   20.7420 C.3     1  UNL1        0.0266
     27 N          11.5859   82.1327   25.8672 N.am    1  UNL1       -0.2766
     28 C          12.5111   82.1217   24.7680 C.2     1  UNL1        0.2839
     29 O          12.7988   81.0385   24.1912 O.2     1  UNL1       -0.2665
     30 H          11.5987   82.9562   26.5108 H       1  UNL1        0.1553
     31 C          13.1564   83.3779   24.3413 C.ar    1  UNL1        0.1946
     32 O          12.5604   84.5543   24.4218 O.2     1  UNL1       -0.4492
     33 C          13.3912   85.4590   23.9650 C.ar    1  UNL1        0.1452
     34 C          13.1755   86.8289   23.8648 C.ar    1  UNL1        0.0375
     35 C          14.2091   87.6233   23.3392 C.ar    1  UNL1        0.0031
     36 C          15.4368   87.0403   22.9239 C.ar    1  UNL1        0.0002
     37 C          15.6159   85.6412   23.0434 C.ar    1  UNL1        0.0028
     38 C          14.5688   84.8831   23.5697 C.ar    1  UNL1        0.0337
     39 C          14.4399   83.5273   23.8039 C.ar    1  UNL1        0.0202
     40 C          15.4528   82.4543   23.5396 C.3     1  UNL1        0.0345
     41 C          16.5216   87.8897   22.3700 C.ar    1  UNL1        0.0000
     42 C          17.7381   88.0392   23.0629 C.ar    1  UNL1        0.0000
     43 C          18.7579   88.8395   22.5390 C.ar    1  UNL1        0.0000
     44 C          18.5768   89.4975   21.3206 C.ar    1  UNL1        0.0000
     45 C          17.3749   89.3568   20.6232 C.ar    1  UNL1        0.0000
     46 C          16.3514   88.5585   21.1428 C.ar    1  UNL1        0.0000
@<TRIPOS>BOND
     1    25    26    1
     2    26    15    1
     3    15    16   ar
     4    16    17   ar
     5    17    18   ar
     6    18    14    1
     7    14    13    1
     8    13     7    1
     9     7     8    1
    10     8     9    1
    11     9    10    1
    12    10     1    1
    13     1     2   ar
    14     2     3   ar
    15     3     4   ar
    16     4    27    1
    17    27    28   am
    18    28    29    2
    19    28    31    1
    20    31    32   ar
    21    32    33   ar
    22    33    34   ar
    23    34    35   ar
    24    35    36   ar
    25    36    41    1
    26    41    42   ar
    27    42    43   ar
    28    43    44   ar
    29    44    45   ar
    30    45    46   ar
    31    36    37   ar
    32    37    38   ar
    33    38    39   ar
    34    39    40    1
    35     4     5   ar
    36     5     6   ar
    37    10    11    1
    38    11    12    1
    39    18    19   ar
    40    19    20   ar
    41    20    21    1
    42    21    22    2
    43    21    23    1
    44    20    15   ar
    45    12     7    1
    46     6     1   ar
    47    39    31   ar
    48    38    33   ar
    49    46    41   ar
    50    27    30    1
    51    23    24    1
