@<TRIPOS>MOLECULE
*****
 27 29 0 0 0
SMALL
GASTEIGER

@<TRIPOS>ATOM
      1 C         -14.8699    1.3266  -13.2368 C.ar    1  UNL1        0.1385
      2 C         -13.7313    1.9883  -13.7325 C.ar    1  UNL1        0.0366
      3 C         -13.2618    1.7133  -15.0197 C.ar    1  UNL1       -0.0011
      4 C         -13.9222    0.7790  -15.8331 C.ar    1  UNL1       -0.0206
      5 C         -15.0449    0.1046  -15.3275 C.ar    1  UNL1       -0.0011
      6 C         -15.5072    0.3723  -14.0368 C.ar    1  UNL1        0.0366
      7 O         -15.4036    1.5891  -11.9656 O.3     1  UNL1       -0.4750
      8 C         -16.7650    1.3815  -11.5824 C.3     1  UNL1        0.2117
      9 C         -17.5828    2.6745  -11.6990 C.3     1  UNL1        0.0931
     10 C         -21.8197    1.9923  -11.6540 C.ar    1  UNL1        0.0018
     11 C         -21.0841    1.7215  -12.8182 C.ar    1  UNL1       -0.0011
     12 C         -19.7050    1.9288  -12.8455 C.ar    1  UNL1        0.0146
     13 C         -19.0567    2.3850  -11.6928 C.ar    1  UNL1        0.0633
     14 N         -19.7818    2.6357  -10.5695 N.ar    1  UNL1       -0.2432
     15 C         -21.1272    2.4516  -10.5137 C.ar    1  UNL1        0.1110
     16 BR        -22.0147    2.8532   -8.8644 Br      1  UNL1       -0.0284
     17 C         -24.0659    2.9308  -12.2157 C.3     1  UNL1        0.0051
     18 C         -23.3072    1.7390  -11.6404 C.3     1  UNL1        0.0284
     19 C         -13.4519    0.5261  -17.2471 C.3     1  UNL1        0.0468
     20 C         -14.6071    0.3688  -18.2559 C.3     1  UNL1        0.1369
     21 S         -14.9143    1.9300  -19.1886 S.3     1  UNL1       -0.0482
     22 C         -14.5113    1.0972  -20.7173 C.2     1  UNL1        0.2792
     23 O         -14.4478    1.7012  -21.8193 O.2     1  UNL1       -0.2625
     24 N         -14.2589   -0.2886  -20.6112 N.am    1  UNL1       -0.2460
     25 C         -14.3406   -0.7095  -19.2635 C.2     1  UNL1        0.2392
     26 O         -14.2070   -1.9200  -18.9418 O.2     1  UNL1       -0.2737
     27 H         -14.0406   -0.9158  -21.4171 H       1  UNL1        0.1583
@<TRIPOS>BOND
     1    17    18    1
     2    18    10    1
     3    10    11   ar
     4    11    12   ar
     5    12    13   ar
     6    13     9    1
     7     9     8    1
     8     8     7    1
     9     7     1    1
    10     1     2   ar
    11     2     3   ar
    12     3     4   ar
    13     4    19    1
    14    19    20    1
    15    20    21    1
    16    21    22    1
    17    22    23    2
    18    22    24   am
    19    24    25   am
    20    25    26    2
    21     4     5   ar
    22     5     6   ar
    23    13    14   ar
    24    14    15   ar
    25    15    16    1
    26    15    10   ar
    27     6     1   ar
    28    25    20    1
    29    24    27    1
@<TRIPOS>MOLECULE
*****
 27 29 0 0 0
SMALL
GASTEIGER

@<TRIPOS>ATOM
      1 C         -27.2665   -6.0033  -14.1855 C.ar    1  UNL1        0.1385
      2 C         -26.6931   -5.2878  -13.1182 C.ar    1  UNL1        0.0366
      3 C         -26.5448   -5.8900  -11.8659 C.ar    1  UNL1       -0.0011
      4 C         -26.9610   -7.2148  -11.6601 C.ar    1  UNL1       -0.0206
      5 C         -27.5525   -7.9187  -12.7210 C.ar    1  UNL1       -0.0011
      6 C         -27.7101   -7.3123  -13.9695 C.ar    1  UNL1        0.0366
      7 O         -27.4081   -5.4591  -15.4714 O.3     1  UNL1       -0.4750
      8 C         -27.4737   -4.0638  -15.7751 C.3     1  UNL1        0.2117
      9 C         -26.2202   -3.5946  -16.5251 C.3     1  UNL1        0.0931
     10 C         -24.8816   -6.7098  -19.1562 C.ar    1  UNL1        0.0018
     11 C         -25.8400   -5.7867  -19.6025 C.ar    1  UNL1       -0.0011
     12 C         -26.2780   -4.7627  -18.7626 C.ar    1  UNL1        0.0146
     13 C         -25.7339   -4.6482  -17.4789 C.ar    1  UNL1        0.0633
     14 N         -24.8001   -5.5456  -17.0630 N.ar    1  UNL1       -0.2432
     15 C         -24.3590   -6.5588  -17.8544 C.ar    1  UNL1        0.1110
     16 BR        -23.0451   -7.7493  -17.1295 Br      1  UNL1       -0.0284
     17 C         -25.4184   -8.0335  -21.2059 C.3     1  UNL1        0.0051
     18 C         -24.4060   -7.7956  -20.0899 C.3     1  UNL1        0.0284
     19 C         -26.7449   -7.8872  -10.3237 C.3     1  UNL1        0.0468
     20 C         -25.5496   -8.8609  -10.3163 C.3     1  UNL1        0.1369
     21 S         -23.9412   -7.9659  -10.4333 S.3     1  UNL1       -0.0482
     22 C         -23.4655   -8.6099   -8.8358 C.2     1  UNL1        0.2792
     23 O         -22.4010   -8.2675   -8.2590 O.2     1  UNL1       -0.2625
     24 N         -24.3675   -9.5272   -8.2524 N.am    1  UNL1       -0.2460
     25 C         -25.5058   -9.6995   -9.0738 C.2     1  UNL1        0.2392
     26 O         -26.4158  -10.5180   -8.7758 O.2     1  UNL1       -0.2737
     27 H         -24.2153  -10.0106   -7.3393 H       1  UNL1        0.1583
@<TRIPOS>BOND
     1    17    18    1
     2    18    10    1
     3    10    11   ar
     4    11    12   ar
     5    12    13   ar
     6    13     9    1
     7     9     8    1
     8     8     7    1
     9     7     1    1
    10     1     2   ar
    11     2     3   ar
    12     3     4   ar
    13     4    19    1
    14    19    20    1
    15    20    21    1
    16    21    22    1
    17    22    23    2
    18    22    24   am
    19    24    25   am
    20    25    26    2
    21     4     5   ar
    22     5     6   ar
    23    13    14   ar
    24    14    15   ar
    25    15    16    1
    26    15    10   ar
    27     6     1   ar
    28    25    20    1
    29    24    27    1
@<TRIPOS>MOLECULE
*****
 27 29 0 0 0
SMALL
GASTEIGER

@<TRIPOS>ATOM
      1 C         -17.4468    2.2373  -12.6634 C.ar    1  UNL1        0.1385
      2 C         -18.2521    3.0952  -11.8918 C.ar    1  UNL1        0.0366
      3 C         -19.6205    2.8455  -11.7583 C.ar    1  UNL1       -0.0011
      4 C         -20.2054    1.7351  -12.3872 C.ar    1  UNL1       -0.0206
      5 C         -19.4034    0.8934  -13.1740 C.ar    1  UNL1       -0.0011
      6 C         -18.0376    1.1499  -13.3157 C.ar    1  UNL1        0.0366
      7 O         -16.0626    2.4219  -12.8032 O.3     1  UNL1       -0.4750
      8 C         -15.0627    1.4561  -12.4706 C.3     1  UNL1        0.2117
      9 C         -14.9507    0.3716  -13.5502 C.3     1  UNL1        0.0931
     10 C         -13.2352    1.9378  -17.1590 C.ar    1  UNL1        0.0018
     11 C         -12.9611    2.5606  -15.9314 C.ar    1  UNL1       -0.0011
     12 C         -13.5032    2.0578  -14.7487 C.ar    1  UNL1        0.0146
     13 C         -14.3027    0.9106  -14.7936 C.ar    1  UNL1        0.0633
     14 N         -14.5531    0.3133  -15.9897 N.ar    1  UNL1       -0.2432
     15 C         -14.0465    0.7835  -17.1600 C.ar    1  UNL1        0.1110
     16 BR        -14.4912   -0.1592  -18.7671 Br      1  UNL1       -0.0284
     17 C         -12.9404    3.9684  -18.5844 C.3     1  UNL1        0.0051
     18 C         -12.6194    2.4858  -18.4229 C.3     1  UNL1        0.0284
     19 C         -21.6729    1.4294  -12.1933 C.3     1  UNL1        0.0468
     20 C         -22.4694    2.6092  -11.6013 C.3     1  UNL1        0.1369
     21 S         -23.9434    3.0207  -12.6307 S.3     1  UNL1       -0.0482
     22 C         -25.0145    2.6308  -11.2546 C.2     1  UNL1        0.2792
     23 O         -26.2689    2.6329  -11.3531 O.2     1  UNL1       -0.2625
     24 N         -24.3625    2.3100  -10.0433 N.am    1  UNL1       -0.2460
     25 C         -22.9585    2.3264  -10.2121 C.2     1  UNL1        0.2392
     26 O         -22.1760    2.1252   -9.2457 O.2     1  UNL1       -0.2737
     27 H         -24.8504    2.0897   -9.1466 H       1  UNL1        0.1583
@<TRIPOS>BOND
     1    17    18    1
     2    18    10    1
     3    10    11   ar
     4    11    12   ar
     5    12    13   ar
     6    13     9    1
     7     9     8    1
     8     8     7    1
     9     7     1    1
    10     1     2   ar
    11     2     3   ar
    12     3     4   ar
    13     4    19    1
    14    19    20    1
    15    20    21    1
    16    21    22    1
    17    22    23    2
    18    22    24   am
    19    24    25   am
    20    25    26    2
    21     4     5   ar
    22     5     6   ar
    23    13    14   ar
    24    14    15   ar
    25    15    16    1
    26    15    10   ar
    27     6     1   ar
    28    25    20    1
    29    24    27    1
@<TRIPOS>MOLECULE
*****
 27 29 0 0 0
SMALL
GASTEIGER

@<TRIPOS>ATOM
      1 C         -24.5202   -5.5736  -11.8544 C.ar    1  UNL1        0.1385
      2 C         -23.3644   -4.8133  -11.5977 C.ar    1  UNL1        0.0366
      3 C         -22.1466   -5.4484  -11.3399 C.ar    1  UNL1       -0.0011
      4 C         -22.0616   -6.8497  -11.3388 C.ar    1  UNL1       -0.0206
      5 C         -23.2211   -7.6055  -11.5737 C.ar    1  UNL1       -0.0011
      6 C         -24.4401   -6.9698  -11.8208 C.ar    1  UNL1        0.0366
      7 O         -25.7602   -4.9877  -12.1524 O.3     1  UNL1       -0.4750
      8 C         -26.7306   -5.5223  -13.0555 C.3     1  UNL1        0.2117
      9 C         -26.1731   -5.6225  -14.4814 C.3     1  UNL1        0.0931
     10 C         -28.6276   -3.3153  -17.1406 C.ar    1  UNL1        0.0018
     11 C         -27.2686   -3.5039  -17.4363 C.ar    1  UNL1       -0.0011
     12 C         -26.4600   -4.2592  -16.5870 C.ar    1  UNL1        0.0146
     13 C         -27.0220   -4.8496  -15.4501 C.ar    1  UNL1        0.0633
     14 N         -28.3425   -4.6646  -15.1807 N.ar    1  UNL1       -0.2432
     15 C         -29.1544   -3.9277  -15.9838 C.ar    1  UNL1        0.1110
     16 BR        -30.9918   -3.7500  -15.4725 Br      1  UNL1       -0.0284
     17 C         -28.7018   -2.1154  -19.3307 C.3     1  UNL1        0.0051
     18 C         -29.4883   -2.5134  -18.0856 C.3     1  UNL1        0.0284
     19 C         -20.7330   -7.5367  -11.1211 C.3     1  UNL1        0.0468
     20 C         -20.7603   -8.5706   -9.9778 C.3     1  UNL1        0.1369
     21 S         -19.9874  -10.1668  -10.4843 S.3     1  UNL1       -0.0482
     22 C         -18.7428   -9.9672   -9.2178 C.2     1  UNL1        0.2792
     23 O         -17.7764  -10.7626   -9.0889 O.2     1  UNL1       -0.2625
     24 N         -18.9068   -8.8499   -8.3692 N.am    1  UNL1       -0.2460
     25 C         -20.0343   -8.0893   -8.7570 C.2     1  UNL1        0.2392
     26 O         -20.4035   -7.0778   -8.1034 O.2     1  UNL1       -0.2737
     27 H         -18.2806   -8.6167   -7.5667 H       1  UNL1        0.1583
@<TRIPOS>BOND
     1    17    18    1
     2    18    10    1
     3    10    11   ar
     4    11    12   ar
     5    12    13   ar
     6    13     9    1
     7     9     8    1
     8     8     7    1
     9     7     1    1
    10     1     2   ar
    11     2     3   ar
    12     3     4   ar
    13     4    19    1
    14    19    20    1
    15    20    21    1
    16    21    22    1
    17    22    23    2
    18    22    24   am
    19    24    25   am
    20    25    26    2
    21     4     5   ar
    22     5     6   ar
    23    13    14   ar
    24    14    15   ar
    25    15    16    1
    26    15    10   ar
    27     6     1   ar
    28    25    20    1
    29    24    27    1
@<TRIPOS>MOLECULE
*****
 27 29 0 0 0
SMALL
GASTEIGER

@<TRIPOS>ATOM
      1 C         -25.5104  -13.3139  -14.3230 C.ar    1  UNL1        0.1385
      2 C         -25.6810  -12.0275  -14.8670 C.ar    1  UNL1        0.0366
      3 C         -25.3935  -10.8949  -14.1005 C.ar    1  UNL1       -0.0011
      4 C         -24.9277  -11.0276  -12.7829 C.ar    1  UNL1       -0.0206
      5 C         -24.7794  -12.3119  -12.2357 C.ar    1  UNL1       -0.0011
      6 C         -25.0771  -13.4431  -12.9992 C.ar    1  UNL1        0.0366
      7 O         -25.7515  -14.4843  -15.0589 O.3     1  UNL1       -0.4750
      8 C         -24.9213  -14.9855  -16.1090 C.3     1  UNL1        0.2117
      9 C         -23.4487  -15.0384  -15.6816 C.3     1  UNL1        0.0931
     10 C         -21.7946  -11.0797  -15.7936 C.ar    1  UNL1        0.0018
     11 C         -21.3810  -11.9784  -14.7978 C.ar    1  UNL1       -0.0011
     12 C         -21.9020  -13.2715  -14.7540 C.ar    1  UNL1        0.0146
     13 C         -22.8223  -13.6739  -15.7278 C.ar    1  UNL1        0.0633
     14 N         -23.2078  -12.7945  -16.6913 N.ar    1  UNL1       -0.2432
     15 C         -22.7248  -11.5257  -16.7561 C.ar    1  UNL1        0.1110
     16 BR        -23.3653  -10.3986  -18.1663 Br      1  UNL1       -0.0284
     17 C         -21.9075   -8.7702  -14.8477 C.3     1  UNL1        0.0051
     18 C         -21.2005   -9.6933  -15.8351 C.3     1  UNL1        0.0284
     19 C         -24.5581   -9.8054  -11.9740 C.3     1  UNL1        0.0468
     20 C         -23.8941  -10.1441  -10.6244 C.3     1  UNL1        0.1369
     21 S         -22.2896   -9.2594  -10.4137 S.3     1  UNL1       -0.0482
     22 C         -22.9442   -8.4109   -8.9838 C.2     1  UNL1        0.2792
     23 O         -22.3014   -7.5159   -8.3764 O.2     1  UNL1       -0.2625
     24 N         -24.2393   -8.8033   -8.5789 N.am    1  UNL1       -0.2460
     25 C         -24.7617   -9.7821   -9.4560 C.2     1  UNL1        0.2392
     26 O         -25.8833  -10.3182   -9.2526 O.2     1  UNL1       -0.2737
     27 H         -24.7425   -8.4220   -7.7471 H       1  UNL1        0.1583
@<TRIPOS>BOND
     1    17    18    1
     2    18    10    1
     3    10    11   ar
     4    11    12   ar
     5    12    13   ar
     6    13     9    1
     7     9     8    1
     8     8     7    1
     9     7     1    1
    10     1     2   ar
    11     2     3   ar
    12     3     4   ar
    13     4    19    1
    14    19    20    1
    15    20    21    1
    16    21    22    1
    17    22    23    2
    18    22    24   am
    19    24    25   am
    20    25    26    2
    21     4     5   ar
    22     5     6   ar
    23    13    14   ar
    24    14    15   ar
    25    15    16    1
    26    15    10   ar
    27     6     1   ar
    28    25    20    1
    29    24    27    1
@<TRIPOS>MOLECULE
*****
 27 29 0 0 0
SMALL
GASTEIGER

@<TRIPOS>ATOM
      1 C         -25.3689  -13.2248  -14.3885 C.ar    1  UNL1        0.1385
      2 C         -25.6112  -12.0090  -15.0541 C.ar    1  UNL1        0.0366
      3 C         -25.5010  -10.7965  -14.3682 C.ar    1  UNL1       -0.0011
      4 C         -25.1433  -10.7774  -13.0108 C.ar    1  UNL1       -0.0206
      5 C         -24.9235  -11.9931  -12.3441 C.ar    1  UNL1       -0.0011
      6 C         -25.0443  -13.2051  -13.0279 C.ar    1  UNL1        0.0366
      7 O         -25.4324  -14.4678  -15.0370 O.3     1  UNL1       -0.4750
      8 C         -24.5102  -14.9315  -16.0259 C.3     1  UNL1        0.2117
      9 C         -23.0578  -14.7464  -15.5675 C.3     1  UNL1        0.0931
     10 C         -21.7286  -10.6715  -15.7854 C.ar    1  UNL1        0.0018
     11 C         -22.1014  -11.3450  -16.9590 C.ar    1  UNL1       -0.0011
     12 C         -22.5448  -12.6664  -16.9035 C.ar    1  UNL1        0.0146
     13 C         -22.6392  -13.3070  -15.6634 C.ar    1  UNL1        0.0633
     14 N         -22.2818  -12.6388  -14.5337 N.ar    1  UNL1       -0.2432
     15 C         -21.8385  -11.3542  -14.5555 C.ar    1  UNL1        0.1110
     16 BR        -21.3651  -10.5456  -12.8849 Br      1  UNL1       -0.0284
     17 C         -22.3724   -8.3499  -16.4466 C.3     1  UNL1        0.0051
     18 C         -21.2736   -9.2351  -15.8669 C.3     1  UNL1        0.0284
     19 C         -24.9637   -9.4643  -12.2841 C.3     1  UNL1        0.0468
     20 C         -25.1919   -8.2327  -13.1829 C.3     1  UNL1        0.1369
     21 S         -26.8571   -7.4886  -12.9089 S.3     1  UNL1       -0.0482
     22 C         -26.0897   -5.9691  -12.3653 C.2     1  UNL1        0.2792
     23 O         -26.7543   -4.9993  -11.9172 O.2     1  UNL1       -0.2625
     24 N         -24.6812   -5.9259  -12.4627 N.am    1  UNL1       -0.2460
     25 C         -24.1757   -7.1563  -12.9431 C.2     1  UNL1        0.2392
     26 O         -22.9466   -7.3231  -13.1627 O.2     1  UNL1       -0.2737
     27 H         -24.0938   -5.0994  -12.2130 H       1  UNL1        0.1583
@<TRIPOS>BOND
     1    17    18    1
     2    18    10    1
     3    10    11   ar
     4    11    12   ar
     5    12    13   ar
     6    13     9    1
     7     9     8    1
     8     8     7    1
     9     7     1    1
    10     1     2   ar
    11     2     3   ar
    12     3     4   ar
    13     4    19    1
    14    19    20    1
    15    20    21    1
    16    21    22    1
    17    22    23    2
    18    22    24   am
    19    24    25   am
    20    25    26    2
    21     4     5   ar
    22     5     6   ar
    23    13    14   ar
    24    14    15   ar
    25    15    16    1
    26    15    10   ar
    27     6     1   ar
    28    25    20    1
    29    24    27    1
@<TRIPOS>MOLECULE
*****
 27 29 0 0 0
SMALL
GASTEIGER

@<TRIPOS>ATOM
      1 C         -22.7824   -8.4159  -14.0641 C.ar    1  UNL1        0.1385
      2 C         -21.6034   -7.8216  -13.5775 C.ar    1  UNL1        0.0366
      3 C         -21.0343   -8.2637  -12.3802 C.ar    1  UNL1       -0.0011
      4 C         -21.6287   -9.3071  -11.6530 C.ar    1  UNL1       -0.0206
      5 C         -22.8168   -9.8832  -12.1299 C.ar    1  UNL1       -0.0011
      6 C         -23.3907   -9.4333  -13.3214 C.ar    1  UNL1        0.0366
      7 O         -23.3770   -8.0341  -15.2767 O.3     1  UNL1       -0.4750
      8 C         -22.7146   -7.9868  -16.5425 C.3     1  UNL1        0.2117
      9 C         -21.5418   -8.9744  -16.5980 C.3     1  UNL1        0.0931
     10 C         -22.9277  -12.9805  -15.9273 C.ar    1  UNL1        0.0018
     11 C         -23.5586  -12.1786  -16.8911 C.ar    1  UNL1       -0.0011
     12 C         -23.1137  -10.8779  -17.1275 C.ar    1  UNL1        0.0146
     13 C         -22.0152  -10.3879  -16.4130 C.ar    1  UNL1        0.0633
     14 N         -21.4089  -11.1795  -15.4877 N.ar    1  UNL1       -0.2432
     15 C         -21.8237  -12.4476  -15.2287 C.ar    1  UNL1        0.1110
     16 BR        -20.8757  -13.4407  -13.8930 Br      1  UNL1       -0.0284
     17 C         -24.8844  -14.4047  -15.3074 C.3     1  UNL1        0.0051
     18 C         -23.4116  -14.3922  -15.7045 C.3     1  UNL1        0.0284
     19 C         -20.9808   -9.8273  -10.3904 C.3     1  UNL1        0.0468
     20 C         -19.8220   -8.9423   -9.8894 C.3     1  UNL1        0.1369
     21 S         -20.4369   -7.5023   -8.9147 S.3     1  UNL1       -0.0482
     22 C         -19.5600   -8.0997   -7.4770 C.2     1  UNL1        0.2792
     23 O         -19.6546   -7.5478   -6.3502 O.2     1  UNL1       -0.2625
     24 N         -18.7548   -9.2421   -7.6821 N.am    1  UNL1       -0.2460
     25 C         -18.8647   -9.6976   -9.0165 C.2     1  UNL1        0.2392
     26 O         -18.1871  -10.6722   -9.4381 O.2     1  UNL1       -0.2737
     27 H         -18.1610   -9.6895   -6.9488 H       1  UNL1        0.1583
@<TRIPOS>BOND
     1    17    18    1
     2    18    10    1
     3    10    11   ar
     4    11    12   ar
     5    12    13   ar
     6    13     9    1
     7     9     8    1
     8     8     7    1
     9     7     1    1
    10     1     2   ar
    11     2     3   ar
    12     3     4   ar
    13     4    19    1
    14    19    20    1
    15    20    21    1
    16    21    22    1
    17    22    23    2
    18    22    24   am
    19    24    25   am
    20    25    26    2
    21     4     5   ar
    22     5     6   ar
    23    13    14   ar
    24    14    15   ar
    25    15    16    1
    26    15    10   ar
    27     6     1   ar
    28    25    20    1
    29    24    27    1
@<TRIPOS>MOLECULE
*****
 27 29 0 0 0
SMALL
GASTEIGER

@<TRIPOS>ATOM
      1 C         -23.3449  -12.5783  -13.2472 C.ar    1  UNL1        0.1385
      2 C         -24.0897  -11.7059  -12.4322 C.ar    1  UNL1        0.0366
      3 C         -23.4466  -10.7012  -11.7042 C.ar    1  UNL1       -0.0011
      4 C         -22.0532  -10.5482  -11.7812 C.ar    1  UNL1       -0.0206
      5 C         -21.3107  -11.4339  -12.5781 C.ar    1  UNL1       -0.0011
      6 C         -21.9533  -12.4446  -13.2971 C.ar    1  UNL1        0.0366
      7 O         -23.9428  -13.5819  -14.0250 O.3     1  UNL1       -0.4750
      8 C         -25.0649  -13.3972  -14.8911 C.3     1  UNL1        0.2117
      9 C         -24.6263  -12.9206  -16.2819 C.3     1  UNL1        0.0931
     10 C         -22.1875   -9.4139  -15.8630 C.ar    1  UNL1        0.0018
     11 C         -21.7034  -10.5154  -16.5859 C.ar    1  UNL1       -0.0011
     12 C         -22.4879  -11.6585  -16.7391 C.ar    1  UNL1        0.0146
     13 C         -23.7731  -11.6879  -16.1873 C.ar    1  UNL1        0.0633
     14 N         -24.2317  -10.6098  -15.4961 N.ar    1  UNL1       -0.2432
     15 C         -23.4888   -9.4850  -15.3224 C.ar    1  UNL1        0.1110
     16 BR        -24.2653   -8.0494  -14.3197 Br      1  UNL1       -0.0284
     17 C         -20.1312   -8.2469  -16.6699 C.3     1  UNL1        0.0051
     18 C         -21.3303   -8.1793  -15.7295 C.3     1  UNL1        0.0284
     19 C         -21.3638   -9.4239  -11.0429 C.3     1  UNL1        0.0468
     20 C         -22.2042   -8.1333  -10.9733 C.3     1  UNL1        0.1369
     21 S         -22.5858   -7.6620   -9.2316 S.3     1  UNL1       -0.0482
     22 C         -21.6899   -6.1311   -9.4485 C.2     1  UNL1        0.2792
     23 O         -21.4938   -5.3235   -8.5039 O.2     1  UNL1       -0.2625
     24 N         -21.2052   -5.8852  -10.7523 N.am    1  UNL1       -0.2460
     25 C         -21.5104   -6.9667  -11.6110 C.2     1  UNL1        0.2392
     26 O         -21.2222   -6.9365  -12.8368 O.2     1  UNL1       -0.2737
     27 H         -20.6908   -5.0237  -11.0419 H       1  UNL1        0.1583
@<TRIPOS>BOND
     1    17    18    1
     2    18    10    1
     3    10    11   ar
     4    11    12   ar
     5    12    13   ar
     6    13     9    1
     7     9     8    1
     8     8     7    1
     9     7     1    1
    10     1     2   ar
    11     2     3   ar
    12     3     4   ar
    13     4    19    1
    14    19    20    1
    15    20    21    1
    16    21    22    1
    17    22    23    2
    18    22    24   am
    19    24    25   am
    20    25    26    2
    21     4     5   ar
    22     5     6   ar
    23    13    14   ar
    24    14    15   ar
    25    15    16    1
    26    15    10   ar
    27     6     1   ar
    28    25    20    1
    29    24    27    1
@<TRIPOS>MOLECULE
*****
 27 29 0 0 0
SMALL
GASTEIGER

@<TRIPOS>ATOM
      1 C         -22.2881  -10.1622  -10.4304 C.ar    1  UNL1        0.1385
      2 C         -21.6694  -10.9135  -11.4466 C.ar    1  UNL1        0.0366
      3 C         -22.4414  -11.5373  -12.4305 C.ar    1  UNL1       -0.0011
      4 C         -23.8400  -11.4177  -12.4189 C.ar    1  UNL1       -0.0206
      5 C         -24.4556  -10.6856  -11.3913 C.ar    1  UNL1       -0.0011
      6 C         -23.6838  -10.0713  -10.4022 C.ar    1  UNL1        0.0366
      7 O         -21.5597   -9.4877   -9.4384 O.3     1  UNL1       -0.4750
      8 C         -21.8236   -8.1602   -8.9787 C.3     1  UNL1        0.2117
      9 C         -21.2134   -7.1111   -9.9174 C.3     1  UNL1        0.0931
     10 C         -22.3215   -7.7487  -14.0143 C.ar    1  UNL1        0.0018
     11 C         -20.9794   -7.8867  -13.6274 C.ar    1  UNL1       -0.0011
     12 C         -20.6050   -7.6923  -12.2978 C.ar    1  UNL1        0.0146
     13 C         -21.5839   -7.3835  -11.3474 C.ar    1  UNL1        0.0633
     14 N         -22.8818   -7.2608  -11.7359 N.ar    1  UNL1       -0.2432
     15 C         -23.2770   -7.4359  -13.0244 C.ar    1  UNL1        0.1110
     16 BR        -25.1386   -7.2242  -13.4229 Br      1  UNL1       -0.0284
     17 C         -21.4679   -8.1792  -16.3225 C.3     1  UNL1        0.0051
     18 C         -22.7068   -7.9860  -15.4538 C.3     1  UNL1        0.0284
     19 C         -24.6715  -12.0404  -13.5169 C.3     1  UNL1        0.0468
     20 C         -23.8363  -12.8410  -14.5359 C.3     1  UNL1        0.1369
     21 S         -24.2230  -14.6431  -14.4675 S.3     1  UNL1       -0.0482
     22 C         -24.7897  -14.5868  -16.1613 C.2     1  UNL1        0.2792
     23 O         -25.3097  -15.5796  -16.7331 O.2     1  UNL1       -0.2625
     24 N         -24.6243  -13.3488  -16.8211 N.am    1  UNL1       -0.2460
     25 C         -24.0694  -12.3864  -15.9458 C.2     1  UNL1        0.2392
     26 O         -23.7823  -11.2250  -16.3399 O.2     1  UNL1       -0.2737
     27 H         -24.8782  -13.1686  -17.8179 H       1  UNL1        0.1583
@<TRIPOS>BOND
     1    17    18    1
     2    18    10    1
     3    10    11   ar
     4    11    12   ar
     5    12    13   ar
     6    13     9    1
     7     9     8    1
     8     8     7    1
     9     7     1    1
    10     1     2   ar
    11     2     3   ar
    12     3     4   ar
    13     4    19    1
    14    19    20    1
    15    20    21    1
    16    21    22    1
    17    22    23    2
    18    22    24   am
    19    24    25   am
    20    25    26    2
    21     4     5   ar
    22     5     6   ar
    23    13    14   ar
    24    14    15   ar
    25    15    16    1
    26    15    10   ar
    27     6     1   ar
    28    25    20    1
    29    24    27    1
