@<TRIPOS>MOLECULE
*****
 62 66 0 0 0
SMALL
GASTEIGER

@<TRIPOS>ATOM
      1 C          46.0926   12.4604  -27.6630 C.ar    1  UNL1        0.0548
      2 C          45.5717   11.6507  -26.6397 C.ar    1  UNL1        0.0077
      3 C          45.6912   12.0355  -25.3025 C.ar    1  UNL1        0.0390
      4 C          46.3337   13.2283  -24.9573 C.ar    1  UNL1        0.1598
      5 C          46.8025   14.0811  -25.9822 C.ar    1  UNL1        0.0993
      6 C          46.6960   13.6823  -27.3211 C.ar    1  UNL1        0.0235
      7 N          45.5028   12.9984  -30.0773 N.am    1  UNL1       -0.3040
      8 C          45.9743   12.0633  -29.0864 C.2     1  UNL1        0.2458
      9 O          46.2737   10.8848  -29.4194 O.2     1  UNL1       -0.2701
     10 H          45.0522   13.8752  -29.7299 H       1  UNL1        0.1496
     11 C          45.9367   14.1299  -32.2365 C.3     1  UNL1        0.0196
     12 C          45.5962   12.7990  -31.5375 C.3     1  UNL1        0.0572
     13 C          46.6611   11.7339  -31.8646 C.3     1  UNL1        0.0196
     14 C          44.2329   12.3051  -32.0650 C.3     1  UNL1        0.0196
     15 N          47.3501   15.3672  -25.6880 N.pl3   1  UNL1       -0.2120
     16 H          46.7978   16.0117  -25.0795 H       1  UNL1        0.1738
     17 S          49.0644   15.5995  -25.7347 S.O2    1  UNL1        0.0745
     18 O          49.4486   16.7485  -24.8467 O.2     1  UNL1       -0.1499
     19 O          49.4982   15.9238  -27.1368 O.2     1  UNL1       -0.1499
     20 C          49.8654   14.1233  -25.1743 C.ar    1  UNL1        0.1358
     21 C          49.4724   12.9017  -25.7274 C.ar    1  UNL1        0.0207
     22 C          50.0565   11.7122  -25.3075 C.ar    1  UNL1       -0.0026
     23 C          51.0180   11.7059  -24.2876 C.ar    1  UNL1       -0.0154
     24 C          51.4623   12.9373  -23.7392 C.ar    1  UNL1        0.0834
     25 C          50.9001   14.1511  -24.2124 C.ar    1  UNL1        0.0824
     26 CL         51.5683   15.7035  -23.6854 Cl      1  UNL1       -0.0806
     27 C          52.5064   12.9596  -22.6832 C.2     1  UNL1        0.3386
     28 O          52.1793   13.0362  -21.4684 O.2     1  UNL1       -0.2451
     29 O          53.8539   12.8792  -23.0212 O.3     1  UNL1       -0.4771
     30 H          54.5718   12.8893  -22.3068 H       1  UNL1        0.2954
     31 C          51.6023   10.3788  -23.8582 C.3     1  UNL1        0.0226
     32 C          51.9603    9.4171  -24.9870 C.3     1  UNL1        0.0047
     33 C          50.7271    9.1640  -24.1435 C.3     1  UNL1        0.0047
     34 O          46.4771   13.5288  -23.5937 O.3     1  UNL1       -0.4513
     35 C          47.3734   12.9067  -22.7108 C.ar    1  UNL1        0.1580
     36 C          47.3826   11.5079  -22.6618 C.ar    1  UNL1        0.0677
     37 C          48.2067   10.8292  -21.7618 C.ar    1  UNL1        0.1398
     38 F          48.1422    9.4751  -21.6964 F       1  UNL1       -0.2044
     39 C          49.0744   11.5465  -20.9231 C.ar    1  UNL1        0.0175
     40 C          49.1088   12.9471  -21.0077 C.ar    1  UNL1        0.0130
     41 C          48.2769   13.6308  -21.9008 C.ar    1  UNL1        0.0919
     42 CL         48.4625   15.3762  -22.0265 Cl      1  UNL1       -0.0791
     43 C          49.9047   10.8395  -19.8858 C.3     1  UNL1        0.1382
     44 C          49.4061   11.1888  -18.5206 C.2     1  UNL1        0.3234
     45 O          48.1858   11.4528  -18.3430 O.2     1  UNL1       -0.2497
     46 O          50.3154   11.2398  -17.4584 O.3     1  UNL1       -0.4215
     47 C          50.1010   11.9851  -16.2626 C.3     1  UNL1        0.3207
     48 O          51.3644   12.2806  -15.7008 O.3     1  UNL1       -0.3070
     49 C          51.2261   13.2454  -14.6716 C.3     1  UNL1        0.2456
     50 C          50.2415   12.7878  -13.5504 C.3     1  UNL1        0.1781
     51 O          49.1592   13.6825  -13.4949 O.3     1  UNL1       -0.3790
     52 C          49.7251   11.3524  -13.7966 C.3     1  UNL1        0.1733
     53 O          50.7586   10.4470  -13.4992 O.3     1  UNL1       -0.3793
     54 C          49.2580   11.1509  -15.2630 C.3     1  UNL1        0.2106
     55 O          47.8874   11.4355  -15.4005 O.3     1  UNL1       -0.3766
     56 H          48.7145   13.5497  -12.6169 H       1  UNL1        0.2106
     57 H          50.3338    9.5635  -13.3405 H       1  UNL1        0.2105
     58 H          47.7508   12.3924  -15.1791 H       1  UNL1        0.2107
     59 C          52.5868   13.5382  -14.1020 C.2     1  UNL1        0.3439
     60 O          53.0878   14.6862  -14.2344 O.2     1  UNL1       -0.2475
     61 O          53.2892   12.5671  -13.3931 O.3     1  UNL1       -0.4785
     62 H          52.9112   11.6379  -13.2551 H       1  UNL1        0.2951
@<TRIPOS>BOND
     1    11    12    1
     2    12    13    1
     3    12    14    1
     4    12     7    1
     5     7     8   am
     6     8     9    2
     7     8     1    1
     8     1     2   ar
     9     2     3   ar
    10     3     4   ar
    11     4    34    1
    12    34    35    1
    13    35    36   ar
    14    36    37   ar
    15    37    38    1
    16    37    39   ar
    17    39    43    1
    18    43    44    1
    19    44    45    2
    20    44    46    1
    21    46    47    1
    22    47    48    1
    23    48    49    1
    24    49    59    1
    25    59    60    2
    26    59    61    1
    27    49    50    1
    28    50    51    1
    29    50    52    1
    30    52    53    1
    31    52    54    1
    32    54    55    1
    33    39    40   ar
    34    40    41   ar
    35    41    42    1
    36     4     5   ar
    37     5    15    1
    38    15    17    1
    39    17    18    2
    40    17    19    2
    41    17    20    1
    42    20    21   ar
    43    21    22   ar
    44    22    23   ar
    45    23    31    1
    46    31    32    1
    47    32    33    1
    48    23    24   ar
    49    24    27    1
    50    27    28    2
    51    27    29    1
    52    24    25   ar
    53    25    26    1
    54     5     6   ar
    55     6     1   ar
    56    41    35   ar
    57    25    20   ar
    58    54    47    1
    59    33    31    1
    60     7    10    1
    61    61    62    1
    62    51    56    1
    63    53    57    1
    64    55    58    1
    65    15    16    1
    66    29    30    1
@<TRIPOS>MOLECULE
*****
 62 66 0 0 0
SMALL
GASTEIGER

@<TRIPOS>ATOM
      1 C          46.0566   12.5286  -27.8332 C.ar    1  UNL1        0.0548
      2 C          45.5111   11.7295  -26.8145 C.ar    1  UNL1        0.0077
      3 C          45.5894   12.1330  -25.4798 C.ar    1  UNL1        0.0390
      4 C          46.2144   13.3344  -25.1325 C.ar    1  UNL1        0.1598
      5 C          46.7075   14.1764  -26.1549 C.ar    1  UNL1        0.0993
      6 C          46.6424   13.7589  -27.4908 C.ar    1  UNL1        0.0235
      7 N          45.4879   13.0143  -30.2637 N.am    1  UNL1       -0.3040
      8 C          45.9821   12.1116  -29.2540 C.2     1  UNL1        0.2458
      9 O          46.3394   10.9441  -29.5681 O.2     1  UNL1       -0.2701
     10 H          44.9926   13.8738  -29.9343 H       1  UNL1        0.1496
     11 C          45.9648   14.1313  -32.4213 C.3     1  UNL1        0.0196
     12 C          45.6167   12.8038  -31.7196 C.3     1  UNL1        0.0572
     13 C          46.6959   11.7432  -32.0130 C.3     1  UNL1        0.0196
     14 C          44.2694   12.2966  -32.2747 C.3     1  UNL1        0.0196
     15 N          47.2387   15.4698  -25.8626 N.pl3   1  UNL1       -0.2120
     16 H          46.6630   16.1206  -25.2830 H       1  UNL1        0.1738
     17 S          48.9523   15.7107  -25.8554 S.O2    1  UNL1        0.0745
     18 O          49.2982   16.8947  -24.9980 O.2     1  UNL1       -0.1499
     19 O          49.4358   15.9848  -27.2519 O.2     1  UNL1       -0.1499
     20 C          49.7393   14.2616  -25.2107 C.ar    1  UNL1        0.1358
     21 C          49.3373   13.0143  -25.6958 C.ar    1  UNL1        0.0207
     22 C          49.9101   11.8454  -25.2082 C.ar    1  UNL1       -0.0026
     23 C          50.8689   11.8881  -24.1866 C.ar    1  UNL1       -0.0154
     24 C          51.3222   13.1445  -23.7066 C.ar    1  UNL1        0.0834
     25 C          50.7717   14.3346  -24.2487 C.ar    1  UNL1        0.0824
     26 CL         51.4517   15.9084  -23.8074 Cl      1  UNL1       -0.0806
     27 C          52.3637   13.2172  -22.6502 C.2     1  UNL1        0.3386
     28 O          53.5331   12.8083  -22.8821 O.2     1  UNL1       -0.2451
     29 O          52.0652   13.7519  -21.4006 O.3     1  UNL1       -0.4771
     30 H          52.7708   13.8090  -20.6762 H       1  UNL1        0.2954
     31 C          51.4407   10.5823  -23.6817 C.3     1  UNL1        0.0226
     32 C          52.1463    9.7215  -24.7251 C.3     1  UNL1        0.0047
     33 C          50.7697    9.3278  -24.2287 C.3     1  UNL1        0.0047
     34 O          46.3163   13.6542  -23.7696 O.3     1  UNL1       -0.4513
     35 C          47.1221   12.9882  -22.8330 C.ar    1  UNL1        0.1580
     36 C          47.0286   11.5935  -22.7604 C.ar    1  UNL1        0.0677
     37 C          47.7576   10.8764  -21.8094 C.ar    1  UNL1        0.1398
     38 F          47.5930    9.5319  -21.7248 F       1  UNL1       -0.2044
     39 C          48.6329   11.5473  -20.9408 C.ar    1  UNL1        0.0175
     40 C          48.7718   12.9399  -21.0469 C.ar    1  UNL1        0.0130
     41 C          48.0350   13.6627  -21.9915 C.ar    1  UNL1        0.0919
     42 CL         48.3511   15.3877  -22.1369 Cl      1  UNL1       -0.0791
     43 C          49.3595   10.8043  -19.8521 C.3     1  UNL1        0.1382
     44 C          50.2982   11.7329  -19.1512 C.2     1  UNL1        0.3234
     45 O          51.4532   11.9321  -19.6166 O.2     1  UNL1       -0.2497
     46 O          49.8826   12.3522  -17.9675 O.3     1  UNL1       -0.4215
     47 C          50.2552   11.9100  -16.6648 C.3     1  UNL1        0.3207
     48 O          49.1041   11.9503  -15.8449 O.3     1  UNL1       -0.3070
     49 C          49.3490   11.2669  -14.6275 C.3     1  UNL1        0.2456
     50 C          50.5729   11.8465  -13.8514 C.3     1  UNL1        0.1781
     51 O          51.5554   10.8489  -13.7301 O.3     1  UNL1       -0.3790
     52 C          51.1648   13.0838  -14.5630 C.3     1  UNL1        0.1733
     53 O          50.3001   14.1736  -14.3608 O.3     1  UNL1       -0.3793
     54 C          51.3528   12.8395  -16.0843 C.3     1  UNL1        0.2106
     55 O          52.6367   12.3357  -16.3603 O.3     1  UNL1       -0.3766
     56 H          52.1738   11.1338  -13.0073 H       1  UNL1        0.2106
     57 H          50.8295   14.9981  -14.5222 H       1  UNL1        0.2105
     58 H          52.7226   11.4563  -15.9103 H       1  UNL1        0.2107
     59 C          48.1047   11.3258  -13.7850 C.2     1  UNL1        0.3439
     60 O          47.5606   10.2587  -13.3954 O.2     1  UNL1       -0.2475
     61 O          47.5631   12.5477  -13.3942 O.3     1  UNL1       -0.4785
     62 H          47.9818   13.4251  -13.6771 H       1  UNL1        0.2951
@<TRIPOS>BOND
     1    11    12    1
     2    12    13    1
     3    12    14    1
     4    12     7    1
     5     7     8   am
     6     8     9    2
     7     8     1    1
     8     1     2   ar
     9     2     3   ar
    10     3     4   ar
    11     4    34    1
    12    34    35    1
    13    35    36   ar
    14    36    37   ar
    15    37    38    1
    16    37    39   ar
    17    39    43    1
    18    43    44    1
    19    44    45    2
    20    44    46    1
    21    46    47    1
    22    47    48    1
    23    48    49    1
    24    49    59    1
    25    59    60    2
    26    59    61    1
    27    49    50    1
    28    50    51    1
    29    50    52    1
    30    52    53    1
    31    52    54    1
    32    54    55    1
    33    39    40   ar
    34    40    41   ar
    35    41    42    1
    36     4     5   ar
    37     5    15    1
    38    15    17    1
    39    17    18    2
    40    17    19    2
    41    17    20    1
    42    20    21   ar
    43    21    22   ar
    44    22    23   ar
    45    23    31    1
    46    31    32    1
    47    32    33    1
    48    23    24   ar
    49    24    27    1
    50    27    28    2
    51    27    29    1
    52    24    25   ar
    53    25    26    1
    54     5     6   ar
    55     6     1   ar
    56    41    35   ar
    57    25    20   ar
    58    54    47    1
    59    33    31    1
    60     7    10    1
    61    61    62    1
    62    51    56    1
    63    53    57    1
    64    55    58    1
    65    15    16    1
    66    29    30    1
@<TRIPOS>MOLECULE
*****
 62 66 0 0 0
SMALL
GASTEIGER

@<TRIPOS>ATOM
      1 C          51.4975    7.9068  -30.2033 C.ar    1  UNL1        0.0548
      2 C          50.3337    7.5854  -30.9218 C.ar    1  UNL1        0.0077
      3 C          49.0817    8.0025  -30.4648 C.ar    1  UNL1        0.0390
      4 C          48.9625    8.7421  -29.2843 C.ar    1  UNL1        0.1598
      5 C          50.1319    9.1266  -28.5899 C.ar    1  UNL1        0.0993
      6 C          51.3841    8.6907  -29.0427 C.ar    1  UNL1        0.0235
      7 N          54.0325    8.1075  -30.1948 N.am    1  UNL1       -0.3040
      8 C          52.8327    7.4690  -30.6759 C.2     1  UNL1        0.2458
      9 O          52.9065    6.5392  -31.5241 O.2     1  UNL1       -0.2701
     10 H          53.9192    9.0108  -29.6811 H       1  UNL1        0.1496
     11 C          56.4375    8.6816  -30.0654 C.3     1  UNL1        0.0196
     12 C          55.4009    7.5878  -30.3893 C.3     1  UNL1        0.0572
     13 C          55.6335    6.3493  -29.5019 C.3     1  UNL1        0.0196
     14 C          55.5750    7.1715  -31.8647 C.3     1  UNL1        0.0196
     15 N          50.0726    9.9882  -27.4521 N.pl3   1  UNL1       -0.2120
     16 H          49.3630   10.7545  -27.4494 H       1  UNL1        0.1738
     17 S          50.6244    9.4165  -25.9148 S.O2    1  UNL1        0.0745
     18 O          52.1251    9.4572  -25.8632 O.2     1  UNL1       -0.1499
     19 O          50.1857    7.9934  -25.7113 O.2     1  UNL1       -0.1499
     20 C          49.9591   10.4483  -24.6390 C.ar    1  UNL1        0.1358
     21 C          49.1396    9.8637  -23.6698 C.ar    1  UNL1        0.0207
     22 C          48.5768   10.6336  -22.6585 C.ar    1  UNL1       -0.0026
     23 C          48.7794   12.0199  -22.6149 C.ar    1  UNL1       -0.0154
     24 C          49.6402   12.6300  -23.5644 C.ar    1  UNL1        0.0834
     25 C          50.2545   11.8278  -24.5606 C.ar    1  UNL1        0.0824
     26 CL         51.4762   12.5271  -25.6343 Cl      1  UNL1       -0.0806
     27 C          49.8999   14.0915  -23.5173 C.2     1  UNL1        0.3386
     28 O          50.9806   14.5294  -23.0390 O.2     1  UNL1       -0.2451
     29 O          48.9622   14.9913  -24.0152 O.3     1  UNL1       -0.4771
     30 H          49.1336   15.9892  -23.9908 H       1  UNL1        0.2954
     31 C          48.1238   12.8081  -21.5032 C.3     1  UNL1        0.0226
     32 C          48.8137   12.7351  -20.1445 C.3     1  UNL1        0.0047
     33 C          47.5278   11.9684  -20.3794 C.3     1  UNL1        0.0047
     34 O          47.6725    9.0779  -28.8446 O.3     1  UNL1       -0.4513
     35 C          47.2489   10.3600  -28.4614 C.ar    1  UNL1        0.1580
     36 C          47.3789   10.7194  -27.1148 C.ar    1  UNL1        0.0677
     37 C          46.9208   11.9566  -26.6574 C.ar    1  UNL1        0.1398
     38 F          47.0040   12.2455  -25.3339 F       1  UNL1       -0.2044
     39 C          46.3632   12.8777  -27.5582 C.ar    1  UNL1        0.0175
     40 C          46.2814   12.5437  -28.9190 C.ar    1  UNL1        0.0130
     41 C          46.7297   11.3008  -29.3790 C.ar    1  UNL1        0.0919
     42 CL         46.6972   11.0047  -31.1133 Cl      1  UNL1       -0.0791
     43 C          45.7836   14.1787  -27.0716 C.3     1  UNL1        0.1382
     44 C          46.8403   14.9661  -26.3661 C.2     1  UNL1        0.3234
     45 O          46.5733   15.5495  -25.2804 O.2     1  UNL1       -0.2497
     46 O          48.1126   15.0618  -26.9404 O.3     1  UNL1       -0.4215
     47 C          48.8037   16.2917  -27.1429 C.3     1  UNL1        0.3207
     48 O          49.6110   16.5303  -26.0069 O.3     1  UNL1       -0.3070
     49 C          50.5205   17.5855  -26.2687 C.3     1  UNL1        0.2456
     50 C          49.8014   18.9038  -26.6941 C.3     1  UNL1        0.1781
     51 O          50.2038   19.2482  -27.9959 O.3     1  UNL1       -0.3790
     52 C          48.2641   18.7573  -26.6403 C.3     1  UNL1        0.1733
     53 O          47.8597   18.7666  -25.2940 O.3     1  UNL1       -0.3793
     54 C          47.7852   17.4477  -27.3221 C.3     1  UNL1        0.2106
     55 O          47.5006   17.6612  -28.6829 O.3     1  UNL1       -0.3766
     56 H          49.9751   20.2053  -28.1292 H       1  UNL1        0.2106
     57 H          46.8955   19.0034  -25.2821 H       1  UNL1        0.2105
     58 H          48.3420   17.9335  -29.1315 H       1  UNL1        0.2107
     59 C          51.3639   17.8075  -25.0435 C.2     1  UNL1        0.3439
     60 O          52.1634   18.7798  -25.0008 O.2     1  UNL1       -0.2475
     61 O          51.2468   16.9738  -23.9344 O.3     1  UNL1       -0.4785
     62 H          50.6045   16.1910  -23.9281 H       1  UNL1        0.2951
@<TRIPOS>BOND
     1    11    12    1
     2    12    13    1
     3    12    14    1
     4    12     7    1
     5     7     8   am
     6     8     9    2
     7     8     1    1
     8     1     2   ar
     9     2     3   ar
    10     3     4   ar
    11     4    34    1
    12    34    35    1
    13    35    36   ar
    14    36    37   ar
    15    37    38    1
    16    37    39   ar
    17    39    43    1
    18    43    44    1
    19    44    45    2
    20    44    46    1
    21    46    47    1
    22    47    48    1
    23    48    49    1
    24    49    59    1
    25    59    60    2
    26    59    61    1
    27    49    50    1
    28    50    51    1
    29    50    52    1
    30    52    53    1
    31    52    54    1
    32    54    55    1
    33    39    40   ar
    34    40    41   ar
    35    41    42    1
    36     4     5   ar
    37     5    15    1
    38    15    17    1
    39    17    18    2
    40    17    19    2
    41    17    20    1
    42    20    21   ar
    43    21    22   ar
    44    22    23   ar
    45    23    31    1
    46    31    32    1
    47    32    33    1
    48    23    24   ar
    49    24    27    1
    50    27    28    2
    51    27    29    1
    52    24    25   ar
    53    25    26    1
    54     5     6   ar
    55     6     1   ar
    56    41    35   ar
    57    25    20   ar
    58    54    47    1
    59    33    31    1
    60     7    10    1
    61    61    62    1
    62    51    56    1
    63    53    57    1
    64    55    58    1
    65    15    16    1
    66    29    30    1
@<TRIPOS>MOLECULE
*****
 62 66 0 0 0
SMALL
GASTEIGER

@<TRIPOS>ATOM
      1 C          51.3321   11.0758  -26.6774 C.ar    1  UNL1        0.0548
      2 C          52.5664   11.5647  -26.2174 C.ar    1  UNL1        0.0077
      3 C          52.6131   12.5819  -25.2616 C.ar    1  UNL1        0.0390
      4 C          51.4356   13.1347  -24.7490 C.ar    1  UNL1        0.1598
      5 C          50.1903   12.6049  -25.1563 C.ar    1  UNL1        0.0993
      6 C          50.1483   11.5968  -26.1284 C.ar    1  UNL1        0.0235
      7 N          50.1515    9.0863  -27.7330 N.am    1  UNL1       -0.3040
      8 C          51.2679    9.9976  -27.6930 C.2     1  UNL1        0.2458
      9 O          52.2166    9.8737  -28.5140 O.2     1  UNL1       -0.2701
     10 H          49.5132    9.0769  -26.9054 H       1  UNL1        0.1496
     11 C          51.0745    8.0533  -29.7852 C.3     1  UNL1        0.0196
     12 C          49.8577    8.1603  -28.8452 C.3     1  UNL1        0.0572
     13 C          49.4794    6.7701  -28.2975 C.3     1  UNL1        0.0196
     14 C          48.6632    8.7089  -29.6530 C.3     1  UNL1        0.0196
     15 N          48.9654   13.0463  -24.5685 N.pl3   1  UNL1       -0.2120
     16 H          48.8787   14.0533  -24.3054 H       1  UNL1        0.1738
     17 S          47.5000   12.1852  -24.8935 S.O2    1  UNL1        0.0745
     18 O          46.4679   12.5233  -23.8557 O.2     1  UNL1       -0.1499
     19 O          47.7541   10.7049  -24.8386 O.2     1  UNL1       -0.1499
     20 C          46.9014   12.6424  -26.4959 C.ar    1  UNL1        0.1358
     21 C          46.8566   11.6649  -27.4935 C.ar    1  UNL1        0.0207
     22 C          46.4133   11.9774  -28.7734 C.ar    1  UNL1       -0.0026
     23 C          46.0464   13.2888  -29.1054 C.ar    1  UNL1       -0.0154
     24 C          46.0451   14.2896  -28.0989 C.ar    1  UNL1        0.0834
     25 C          46.4469   13.9495  -26.7812 C.ar    1  UNL1        0.0824
     26 CL         46.2736   15.1254  -25.4692 Cl      1  UNL1       -0.0806
     27 C          45.6258   15.6784  -28.4168 C.2     1  UNL1        0.3386
     28 O          44.4857   16.0918  -28.0737 O.2     1  UNL1       -0.2451
     29 O          46.4915   16.5425  -29.0807 O.3     1  UNL1       -0.4771
     30 H          46.2148   17.4924  -29.2973 H       1  UNL1        0.2954
     31 C          45.5927   13.5726  -30.5198 C.3     1  UNL1        0.0226
     32 C          44.8181   12.4504  -31.2040 C.3     1  UNL1        0.0047
     33 C          46.2569   12.7210  -31.5954 C.3     1  UNL1        0.0047
     34 O          51.5484   14.1965  -23.8380 O.3     1  UNL1       -0.4513
     35 C          51.4621   14.0862  -22.4414 C.ar    1  UNL1        0.1580
     36 C          52.5626   13.5599  -21.7550 C.ar    1  UNL1        0.0677
     37 C          52.5180   13.3673  -20.3727 C.ar    1  UNL1        0.1398
     38 F          53.5788   12.7946  -19.7494 F       1  UNL1       -0.2044
     39 C          51.3781   13.7451  -19.6457 C.ar    1  UNL1        0.0175
     40 C          50.2933   14.3246  -20.3222 C.ar    1  UNL1        0.0130
     41 C          50.3305   14.5093  -21.7085 C.ar    1  UNL1        0.0919
     42 CL         48.9789   15.3456  -22.4637 Cl      1  UNL1       -0.0791
     43 C          51.2757   13.4647  -18.1705 C.3     1  UNL1        0.1382
     44 C          50.4730   12.2231  -17.9503 C.2     1  UNL1        0.3234
     45 O          49.5473   12.2138  -17.0940 O.2     1  UNL1       -0.2497
     46 O          50.7816   11.0755  -18.6889 O.3     1  UNL1       -0.4215
     47 C          49.8483   10.3885  -19.5186 C.3     1  UNL1        0.3207
     48 O          50.3702   10.3616  -20.8323 O.3     1  UNL1       -0.3070
     49 C          49.6249    9.4611  -21.6341 C.3     1  UNL1        0.2456
     50 C          48.1049    9.8130  -21.6749 C.3     1  UNL1        0.1781
     51 O          47.3707    8.7462  -21.1290 O.3     1  UNL1       -0.3790
     52 C          47.8001   11.1133  -20.8979 C.3     1  UNL1        0.1733
     53 O          48.2510   12.2063  -21.6584 O.3     1  UNL1       -0.3793
     54 C          48.4843   11.1268  -19.5047 C.3     1  UNL1        0.2106
     55 O          47.6339   10.5944  -18.5188 O.3     1  UNL1       -0.3766
     56 H          46.4289    8.8584  -21.4234 H       1  UNL1        0.2106
     57 H          47.7698   13.0091  -21.3267 H       1  UNL1        0.2105
     58 H          47.4568    9.6461  -18.7484 H       1  UNL1        0.2107
     59 C          50.2100    9.4547  -23.0195 C.2     1  UNL1        0.3439
     60 O          51.2873   10.0660  -23.2476 O.2     1  UNL1       -0.2475
     61 O          49.5972    8.7479  -24.0511 O.3     1  UNL1       -0.4785
     62 H          48.7380    8.2338  -23.9007 H       1  UNL1        0.2951
@<TRIPOS>BOND
     1    11    12    1
     2    12    13    1
     3    12    14    1
     4    12     7    1
     5     7     8   am
     6     8     9    2
     7     8     1    1
     8     1     2   ar
     9     2     3   ar
    10     3     4   ar
    11     4    34    1
    12    34    35    1
    13    35    36   ar
    14    36    37   ar
    15    37    38    1
    16    37    39   ar
    17    39    43    1
    18    43    44    1
    19    44    45    2
    20    44    46    1
    21    46    47    1
    22    47    48    1
    23    48    49    1
    24    49    59    1
    25    59    60    2
    26    59    61    1
    27    49    50    1
    28    50    51    1
    29    50    52    1
    30    52    53    1
    31    52    54    1
    32    54    55    1
    33    39    40   ar
    34    40    41   ar
    35    41    42    1
    36     4     5   ar
    37     5    15    1
    38    15    17    1
    39    17    18    2
    40    17    19    2
    41    17    20    1
    42    20    21   ar
    43    21    22   ar
    44    22    23   ar
    45    23    31    1
    46    31    32    1
    47    32    33    1
    48    23    24   ar
    49    24    27    1
    50    27    28    2
    51    27    29    1
    52    24    25   ar
    53    25    26    1
    54     5     6   ar
    55     6     1   ar
    56    41    35   ar
    57    25    20   ar
    58    54    47    1
    59    33    31    1
    60     7    10    1
    61    61    62    1
    62    51    56    1
    63    53    57    1
    64    55    58    1
    65    15    16    1
    66    29    30    1
@<TRIPOS>MOLECULE
*****
 62 66 0 0 0
SMALL
GASTEIGER

@<TRIPOS>ATOM
      1 C          51.6787    7.8306  -30.2721 C.ar    1  UNL1        0.0548
      2 C          50.5815    7.8261  -31.1497 C.ar    1  UNL1        0.0077
      3 C          49.3177    8.2203  -30.7049 C.ar    1  UNL1        0.0390
      4 C          49.1200    8.6217  -29.3804 C.ar    1  UNL1        0.1598
      5 C          50.2296    8.6927  -28.5079 C.ar    1  UNL1        0.0993
      6 C          51.4918    8.2792  -28.9538 C.ar    1  UNL1        0.0235
      7 N          54.2087    8.0866  -30.2565 N.am    1  UNL1       -0.3040
      8 C          53.0254    7.4130  -30.7304 C.2     1  UNL1        0.2458
      9 O          53.1234    6.4687  -31.5600 O.2     1  UNL1       -0.2701
     10 H          54.0734    8.9970  -29.7610 H       1  UNL1        0.1496
     11 C          55.8219    6.3376  -29.5719 C.3     1  UNL1        0.0196
     12 C          55.5890    7.5932  -30.4349 C.3     1  UNL1        0.0572
     13 C          55.8571    7.2803  -31.9201 C.3     1  UNL1        0.0196
     14 C          56.5763    8.6883  -29.9803 C.3     1  UNL1        0.0196
     15 N          50.1040    9.2168  -27.1850 N.pl3   1  UNL1       -0.2120
     16 H          49.5076    8.6978  -26.5027 H       1  UNL1        0.1738
     17 S          51.3590   10.2169  -26.5371 S.O2    1  UNL1        0.0745
     18 O          51.9252   11.0915  -27.6192 O.2     1  UNL1       -0.1499
     19 O          52.4689    9.3589  -25.9975 O.2     1  UNL1       -0.1499
     20 C          50.6877   11.2281  -25.2479 C.ar    1  UNL1        0.1358
     21 C          50.5497   12.5990  -25.4810 C.ar    1  UNL1        0.0207
     22 C          50.0463   13.4391  -24.4945 C.ar    1  UNL1       -0.0026
     23 C          49.7103   12.9389  -23.2290 C.ar    1  UNL1       -0.0154
     24 C          49.8037   11.5443  -22.9820 C.ar    1  UNL1        0.0834
     25 C          50.2668   10.6862  -24.0128 C.ar    1  UNL1        0.0824
     26 CL         50.2125    8.9299  -23.7967 Cl      1  UNL1       -0.0806
     27 C          49.4192   10.9849  -21.6610 C.2     1  UNL1        0.3386
     28 O          48.2375   10.5980  -21.4548 O.2     1  UNL1       -0.2451
     29 O          50.3612   10.8662  -20.6436 O.3     1  UNL1       -0.4771
     30 H          50.1081   10.4818  -19.7414 H       1  UNL1        0.2954
     31 C          49.1878   13.9048  -22.1892 C.3     1  UNL1        0.0226
     32 C          47.7097   14.2647  -22.3041 C.3     1  UNL1        0.0047
     33 C          48.7649   15.2670  -22.7265 C.3     1  UNL1        0.0047
     34 O          47.8150    8.9463  -28.9781 O.3     1  UNL1       -0.4513
     35 C          47.3761   10.2190  -28.5810 C.ar    1  UNL1        0.1580
     36 C          47.5676   10.5926  -27.2458 C.ar    1  UNL1        0.0677
     37 C          47.0996   11.8201  -26.7725 C.ar    1  UNL1        0.1398
     38 F          47.2451   12.1218  -25.4572 F       1  UNL1       -0.2044
     39 C          46.4686   12.7180  -27.6480 C.ar    1  UNL1        0.0175
     40 C          46.3238   12.3709  -29.0002 C.ar    1  UNL1        0.0130
     41 C          46.7821   11.1375  -29.4755 C.ar    1  UNL1        0.0919
     42 CL         46.6655   10.8267  -31.2037 Cl      1  UNL1       -0.0791
     43 C          45.8791   14.0060  -27.1395 C.3     1  UNL1        0.1382
     44 C          46.9257   14.7822  -26.4069 C.2     1  UNL1        0.3234
     45 O          46.6578   15.3055  -25.2912 O.2     1  UNL1       -0.2497
     46 O          48.1889   14.9352  -26.9887 O.3     1  UNL1       -0.4215
     47 C          48.8442   16.1906  -27.1493 C.3     1  UNL1        0.3207
     48 O          49.6385   16.4176  -26.0019 O.3     1  UNL1       -0.3070
     49 C          50.5176   17.5069  -26.2258 C.3     1  UNL1        0.2456
     50 C          49.7618   18.8159  -26.6145 C.3     1  UNL1        0.1781
     51 O          50.1601   19.2121  -27.9028 O.3     1  UNL1       -0.3790
     52 C          48.2293   18.6225  -26.5741 C.3     1  UNL1        0.1733
     53 O          47.8183   18.5781  -25.2304 O.3     1  UNL1       -0.3793
     54 C          47.7927   17.3211  -27.2987 C.3     1  UNL1        0.2106
     55 O          47.5085   17.5682  -28.6538 O.3     1  UNL1       -0.3766
     56 H          49.9037   20.1657  -28.0078 H       1  UNL1        0.2106
     57 H          46.8474   18.7859  -25.2168 H       1  UNL1        0.2105
     58 H          48.3436   17.8789  -29.0890 H       1  UNL1        0.2107
     59 C          51.3481   17.7155  -24.9895 C.2     1  UNL1        0.3439
     60 O          51.2754   16.8920  -24.0394 O.2     1  UNL1       -0.2475
     61 O          52.2298   18.7891  -24.8934 O.3     1  UNL1       -0.4785
     62 H          52.3245   19.4628  -25.6433 H       1  UNL1        0.2951
@<TRIPOS>BOND
     1    11    12    1
     2    12    13    1
     3    12    14    1
     4    12     7    1
     5     7     8   am
     6     8     9    2
     7     8     1    1
     8     1     2   ar
     9     2     3   ar
    10     3     4   ar
    11     4    34    1
    12    34    35    1
    13    35    36   ar
    14    36    37   ar
    15    37    38    1
    16    37    39   ar
    17    39    43    1
    18    43    44    1
    19    44    45    2
    20    44    46    1
    21    46    47    1
    22    47    48    1
    23    48    49    1
    24    49    59    1
    25    59    60    2
    26    59    61    1
    27    49    50    1
    28    50    51    1
    29    50    52    1
    30    52    53    1
    31    52    54    1
    32    54    55    1
    33    39    40   ar
    34    40    41   ar
    35    41    42    1
    36     4     5   ar
    37     5    15    1
    38    15    17    1
    39    17    18    2
    40    17    19    2
    41    17    20    1
    42    20    21   ar
    43    21    22   ar
    44    22    23   ar
    45    23    31    1
    46    31    32    1
    47    32    33    1
    48    23    24   ar
    49    24    27    1
    50    27    28    2
    51    27    29    1
    52    24    25   ar
    53    25    26    1
    54     5     6   ar
    55     6     1   ar
    56    41    35   ar
    57    25    20   ar
    58    54    47    1
    59    33    31    1
    60     7    10    1
    61    61    62    1
    62    51    56    1
    63    53    57    1
    64    55    58    1
    65    15    16    1
    66    29    30    1
@<TRIPOS>MOLECULE
*****
 62 66 0 0 0
SMALL
GASTEIGER

@<TRIPOS>ATOM
      1 C          51.3565    7.9581  -29.9968 C.ar    1  UNL1        0.0548
      2 C          50.1497    7.7021  -30.6693 C.ar    1  UNL1        0.0077
      3 C          48.9426    8.1960  -30.1701 C.ar    1  UNL1        0.0390
      4 C          48.9115    8.9488  -28.9924 C.ar    1  UNL1        0.1598
      5 C          50.1267    9.2673  -28.3448 C.ar    1  UNL1        0.0993
      6 C          51.3331    8.7546  -28.8396 C.ar    1  UNL1        0.0235
      7 N          53.8887    8.0905  -30.1886 N.am    1  UNL1       -0.3040
      8 C          52.6449    7.4385  -30.5146 C.2     1  UNL1        0.2458
      9 O          52.6384    6.4250  -31.2644 O.2     1  UNL1       -0.2701
     10 H          53.8309    9.0443  -29.7650 H       1  UNL1        0.1496
     11 C          55.4859    6.3467  -29.4546 C.3     1  UNL1        0.0196
     12 C          55.2290    7.5171  -30.4241 C.3     1  UNL1        0.0572
     13 C          55.3578    7.0415  -31.8846 C.3     1  UNL1        0.0196
     14 C          56.2926    8.6052  -30.1689 C.3     1  UNL1        0.0196
     15 N          50.1610   10.1381  -27.2129 N.pl3   1  UNL1       -0.2120
     16 H          49.4697   10.9197  -27.1701 H       1  UNL1        0.1738
     17 S          50.8008    9.5654  -25.7105 S.O2    1  UNL1        0.0745
     18 O          52.2938    9.4321  -25.8085 O.2     1  UNL1       -0.1499
     19 O          50.2280    8.2123  -25.3937 O.2     1  UNL1       -0.1499
     20 C          50.3911   10.7164  -24.4290 C.ar    1  UNL1        0.1358
     21 C          49.8588   10.2219  -23.2353 C.ar    1  UNL1        0.0207
     22 C          49.5026   11.0855  -22.2059 C.ar    1  UNL1       -0.0026
     23 C          49.6248   12.4734  -22.3591 C.ar    1  UNL1       -0.0154
     24 C          50.2004   12.9969  -23.5463 C.ar    1  UNL1        0.0834
     25 C          50.6120   12.1049  -24.5701 C.ar    1  UNL1        0.0824
     26 CL         51.5032   12.7147  -25.9730 Cl      1  UNL1       -0.0806
     27 C          50.3742   14.4619  -23.7177 C.2     1  UNL1        0.3386
     28 O          51.3139   15.0629  -23.1309 O.2     1  UNL1       -0.2451
     29 O          49.5136   15.1832  -24.5397 O.3     1  UNL1       -0.4771
     30 H          49.6281   16.1817  -24.6654 H       1  UNL1        0.2954
     31 C          49.2011   13.3637  -21.2125 C.3     1  UNL1        0.0226
     32 C          50.2035   13.4931  -20.0698 C.3     1  UNL1        0.0047
     33 C          48.9606   12.6449  -19.8901 C.3     1  UNL1        0.0047
     34 O          47.6610    9.3637  -28.5084 O.3     1  UNL1       -0.4513
     35 C          47.1159   10.6492  -28.6518 C.ar    1  UNL1        0.1580
     36 C          46.6682   11.0348  -29.9207 C.ar    1  UNL1        0.0677
     37 C          46.1720   12.3208  -30.1437 C.ar    1  UNL1        0.1398
     38 F          45.8075   12.6813  -31.4003 F       1  UNL1       -0.2044
     39 C          46.0732   13.2315  -29.0799 C.ar    1  UNL1        0.0175
     40 C          46.4692   12.8310  -27.7943 C.ar    1  UNL1        0.0130
     41 C          46.9767   11.5468  -27.5694 C.ar    1  UNL1        0.0919
     42 CL         47.3430   11.0855  -25.9112 Cl      1  UNL1       -0.0791
     43 C          45.6248   14.6487  -29.3164 C.3     1  UNL1        0.1382
     44 C          45.7068   15.4207  -28.0391 C.2     1  UNL1        0.3234
     45 O          44.6588   15.8876  -27.5157 O.2     1  UNL1       -0.2497
     46 O          46.9597   15.6334  -27.4538 O.3     1  UNL1       -0.4215
     47 C          47.4258   16.9057  -27.0117 C.3     1  UNL1        0.3207
     48 O          48.7829   16.7677  -26.6399 O.3     1  UNL1       -0.3070
     49 C          49.3700   18.0448  -26.4568 C.3     1  UNL1        0.2456
     50 C          48.6146   18.9043  -25.3953 C.3     1  UNL1        0.1781
     51 O          48.1119   20.0620  -26.0137 O.3     1  UNL1       -0.3790
     52 C          47.4596   18.1144  -24.7399 C.3     1  UNL1        0.1733
     53 O          48.0075   17.1780  -23.8459 O.3     1  UNL1       -0.3793
     54 C          46.5887   17.3828  -25.7962 C.3     1  UNL1        0.2106
     55 O          45.5135   18.1892  -26.2109 O.3     1  UNL1       -0.3766
     56 H          47.9009   20.7108  -25.2921 H       1  UNL1        0.2106
     57 H          47.2861   16.9252  -23.2121 H       1  UNL1        0.2105
     58 H          45.8885   18.9958  -26.6492 H       1  UNL1        0.2107
     59 C          50.8109   17.8596  -26.0681 C.2     1  UNL1        0.3439
     60 O          51.7211   18.0910  -26.9073 O.2     1  UNL1       -0.2475
     61 O          51.1588   17.4715  -24.7768 O.3     1  UNL1       -0.4785
     62 H          50.4543   17.2905  -24.0724 H       1  UNL1        0.2951
@<TRIPOS>BOND
     1    11    12    1
     2    12    13    1
     3    12    14    1
     4    12     7    1
     5     7     8   am
     6     8     9    2
     7     8     1    1
     8     1     2   ar
     9     2     3   ar
    10     3     4   ar
    11     4    34    1
    12    34    35    1
    13    35    36   ar
    14    36    37   ar
    15    37    38    1
    16    37    39   ar
    17    39    43    1
    18    43    44    1
    19    44    45    2
    20    44    46    1
    21    46    47    1
    22    47    48    1
    23    48    49    1
    24    49    59    1
    25    59    60    2
    26    59    61    1
    27    49    50    1
    28    50    51    1
    29    50    52    1
    30    52    53    1
    31    52    54    1
    32    54    55    1
    33    39    40   ar
    34    40    41   ar
    35    41    42    1
    36     4     5   ar
    37     5    15    1
    38    15    17    1
    39    17    18    2
    40    17    19    2
    41    17    20    1
    42    20    21   ar
    43    21    22   ar
    44    22    23   ar
    45    23    31    1
    46    31    32    1
    47    32    33    1
    48    23    24   ar
    49    24    27    1
    50    27    28    2
    51    27    29    1
    52    24    25   ar
    53    25    26    1
    54     5     6   ar
    55     6     1   ar
    56    41    35   ar
    57    25    20   ar
    58    54    47    1
    59    33    31    1
    60     7    10    1
    61    61    62    1
    62    51    56    1
    63    53    57    1
    64    55    58    1
    65    15    16    1
    66    29    30    1
@<TRIPOS>MOLECULE
*****
 62 66 0 0 0
SMALL
GASTEIGER

@<TRIPOS>ATOM
      1 C          51.8850    7.8721  -30.1025 C.ar    1  UNL1        0.0548
      2 C          50.7220    7.4004  -30.7341 C.ar    1  UNL1        0.0077
      3 C          49.4609    7.7881  -30.2762 C.ar    1  UNL1        0.0390
      4 C          49.3320    8.6471  -29.1806 C.ar    1  UNL1        0.1598
      5 C          50.4956    9.1788  -28.5801 C.ar    1  UNL1        0.0993
      6 C          51.7583    8.7730  -29.0318 C.ar    1  UNL1        0.0235
      7 N          54.4119    8.1562  -30.1223 N.am    1  UNL1       -0.3040
      8 C          53.2299    7.4673  -30.5771 C.2     1  UNL1        0.2458
      9 O          53.3272    6.5203  -31.4036 O.2     1  UNL1       -0.2701
     10 H          54.2732    9.0673  -29.6290 H       1  UNL1        0.1496
     11 C          56.0382    6.3995  -29.4902 C.3     1  UNL1        0.0196
     12 C          55.7951    7.6773  -30.3171 C.3     1  UNL1        0.0572
     13 C          56.0622    7.4081  -31.8110 C.3     1  UNL1        0.0196
     14 C          56.7761    8.7658  -29.8337 C.3     1  UNL1        0.0196
     15 N          50.4171   10.1577  -27.5427 N.pl3   1  UNL1       -0.2120
     16 H          49.4714   10.4791  -27.2377 H       1  UNL1        0.1738
     17 S          51.7070   10.2980  -26.3977 S.O2    1  UNL1        0.0745
     18 O          52.7402   11.2619  -26.9076 O.2     1  UNL1       -0.1499
     19 O          52.3665    8.9613  -26.2044 O.2     1  UNL1       -0.1499
     20 C          51.0562   10.8853  -24.8594 C.ar    1  UNL1        0.1358
     21 C          51.1594   12.2486  -24.5702 C.ar    1  UNL1        0.0207
     22 C          50.6816   12.7567  -23.3677 C.ar    1  UNL1       -0.0026
     23 C          50.1290   11.9077  -22.3990 C.ar    1  UNL1       -0.0154
     24 C          49.9767   10.5261  -22.6865 C.ar    1  UNL1        0.0834
     25 C          50.4172   10.0249  -23.9387 C.ar    1  UNL1        0.0824
     26 CL         50.0676    8.3510  -24.3973 Cl      1  UNL1       -0.0806
     27 C          49.3608    9.6121  -21.6910 C.2     1  UNL1        0.3386
     28 O          50.0666    9.0890  -20.7872 O.2     1  UNL1       -0.2451
     29 O          47.9974    9.3367  -21.7345 O.3     1  UNL1       -0.4771
     30 H          47.5689    8.7179  -21.0567 H       1  UNL1        0.2954
     31 C          49.6457   12.5154  -21.1013 C.3     1  UNL1        0.0226
     32 C          48.2420   13.1121  -21.1324 C.3     1  UNL1        0.0047
     33 C          49.4502   14.0268  -21.1280 C.3     1  UNL1        0.0047
     34 O          48.0378    8.9498  -28.7294 O.3     1  UNL1       -0.4513
     35 C          47.3719   10.1707  -28.9197 C.ar    1  UNL1        0.1580
     36 C          46.8683   10.4521  -30.1950 C.ar    1  UNL1        0.0677
     37 C          46.2496   11.6743  -30.4658 C.ar    1  UNL1        0.1398
     38 F          45.8314   11.9391  -31.7296 F       1  UNL1       -0.2044
     39 C          46.0838   12.6214  -29.4430 C.ar    1  UNL1        0.0175
     40 C          46.5375   12.3210  -28.1492 C.ar    1  UNL1        0.0130
     41 C          47.1674   11.1018  -27.8767 C.ar    1  UNL1        0.0919
     42 CL         47.6037   10.7560  -26.2074 Cl      1  UNL1       -0.0791
     43 C          45.5001   13.9777  -29.7344 C.3     1  UNL1        0.1382
     44 C          45.8127   14.9108  -28.6092 C.2     1  UNL1        0.3234
     45 O          44.9356   15.7174  -28.1962 O.2     1  UNL1       -0.2497
     46 O          47.0925   14.8883  -28.0443 O.3     1  UNL1       -0.4215
     47 C          47.5050   15.7347  -26.9743 C.3     1  UNL1        0.3207
     48 O          48.3747   16.7153  -27.5046 O.3     1  UNL1       -0.3070
     49 C          48.5946   17.7391  -26.5492 C.3     1  UNL1        0.2456
     50 C          49.1702   17.1909  -25.2060 C.3     1  UNL1        0.1781
     51 O          48.2610   17.4645  -24.1699 O.3     1  UNL1       -0.3790
     52 C          49.4412   15.6715  -25.2802 C.3     1  UNL1        0.1733
     53 O          50.5911   15.4588  -26.0606 O.3     1  UNL1       -0.3793
     54 C          48.2417   14.9007  -25.8938 C.3     1  UNL1        0.2106
     55 O          47.3503   14.4736  -24.8931 O.3     1  UNL1       -0.3766
     56 H          48.7575   17.3769  -23.3143 H       1  UNL1        0.2106
     57 H          50.9344   14.5556  -25.8315 H       1  UNL1        0.2105
     58 H          46.9827   15.2797  -24.4477 H       1  UNL1        0.2107
     59 C          49.5176   18.7643  -27.1480 C.2     1  UNL1        0.3439
     60 O          50.7564   18.6949  -26.9313 O.2     1  UNL1       -0.2475
     61 O          49.0269   19.7721  -27.9742 O.3     1  UNL1       -0.4785
     62 H          48.0389   19.8502  -28.1815 H       1  UNL1        0.2951
@<TRIPOS>BOND
     1    11    12    1
     2    12    13    1
     3    12    14    1
     4    12     7    1
     5     7     8   am
     6     8     9    2
     7     8     1    1
     8     1     2   ar
     9     2     3   ar
    10     3     4   ar
    11     4    34    1
    12    34    35    1
    13    35    36   ar
    14    36    37   ar
    15    37    38    1
    16    37    39   ar
    17    39    43    1
    18    43    44    1
    19    44    45    2
    20    44    46    1
    21    46    47    1
    22    47    48    1
    23    48    49    1
    24    49    59    1
    25    59    60    2
    26    59    61    1
    27    49    50    1
    28    50    51    1
    29    50    52    1
    30    52    53    1
    31    52    54    1
    32    54    55    1
    33    39    40   ar
    34    40    41   ar
    35    41    42    1
    36     4     5   ar
    37     5    15    1
    38    15    17    1
    39    17    18    2
    40    17    19    2
    41    17    20    1
    42    20    21   ar
    43    21    22   ar
    44    22    23   ar
    45    23    31    1
    46    31    32    1
    47    32    33    1
    48    23    24   ar
    49    24    27    1
    50    27    28    2
    51    27    29    1
    52    24    25   ar
    53    25    26    1
    54     5     6   ar
    55     6     1   ar
    56    41    35   ar
    57    25    20   ar
    58    54    47    1
    59    33    31    1
    60     7    10    1
    61    61    62    1
    62    51    56    1
    63    53    57    1
    64    55    58    1
    65    15    16    1
    66    29    30    1
@<TRIPOS>MOLECULE
*****
 62 66 0 0 0
SMALL
GASTEIGER

@<TRIPOS>ATOM
      1 C          50.6630   12.4771  -17.8347 C.ar    1  UNL1        0.0548
      2 C          51.5666   13.2124  -18.6201 C.ar    1  UNL1        0.0077
      3 C          51.4667   13.1999  -20.0131 C.ar    1  UNL1        0.0390
      4 C          50.4711   12.4539  -20.6510 C.ar    1  UNL1        0.1598
      5 C          49.5176   11.7641  -19.8683 C.ar    1  UNL1        0.0993
      6 C          49.6327   11.7653  -18.4719 C.ar    1  UNL1        0.0235
      7 N          49.7241   13.0794  -15.5496 N.am    1  UNL1       -0.3040
      8 C          50.7585   12.4800  -16.3553 C.2     1  UNL1        0.2458
      9 O          51.7710   11.9665  -15.8070 O.2     1  UNL1       -0.2701
     10 H          49.0303   13.6885  -16.0395 H       1  UNL1        0.1496
     11 C          50.9380   13.1601  -13.3931 C.3     1  UNL1        0.0196
     12 C          49.5862   12.9080  -14.0893 C.3     1  UNL1        0.0572
     13 C          48.5122   13.8659  -13.5377 C.3     1  UNL1        0.0196
     14 C          49.1470   11.4589  -13.7931 C.3     1  UNL1        0.0196
     15 N          48.4076   11.0936  -20.4673 N.pl3   1  UNL1       -0.2120
     16 H          47.5790   11.6640  -20.7481 H       1  UNL1        0.1738
     17 S          48.6589    9.5997  -21.3039 S.O2    1  UNL1        0.0745
     18 O          47.3860    8.8023  -21.3193 O.2     1  UNL1       -0.1499
     19 O          49.7118    8.7905  -20.5998 O.2     1  UNL1       -0.1499
     20 C          49.1635    9.9432  -22.9660 C.ar    1  UNL1        0.1358
     21 C          50.2720    9.2642  -23.4788 C.ar    1  UNL1        0.0207
     22 C          50.7203    9.5122  -24.7710 C.ar    1  UNL1       -0.0026
     23 C          50.1008   10.4816  -25.5717 C.ar    1  UNL1       -0.0154
     24 C          48.9489   11.1549  -25.0877 C.ar    1  UNL1        0.0834
     25 C          48.4650   10.8560  -23.7877 C.ar    1  UNL1        0.0824
     26 CL         46.9274   11.5372  -23.2348 Cl      1  UNL1       -0.0806
     27 C          48.2528   12.1601  -25.9308 C.2     1  UNL1        0.3386
     28 O          47.2244   11.8381  -26.5844 O.2     1  UNL1       -0.2451
     29 O          48.7174   13.4703  -25.9954 O.3     1  UNL1       -0.4771
     30 H          48.2459   14.1628  -26.5646 H       1  UNL1        0.2954
     31 C          50.6464   10.7224  -26.9614 C.3     1  UNL1        0.0226
     32 C          50.9819    9.4709  -27.7667 C.3     1  UNL1        0.0047
     33 C          52.0974   10.3039  -27.1682 C.3     1  UNL1        0.0047
     34 O          50.4615   12.4317  -22.0544 O.3     1  UNL1       -0.4513
     35 C          50.5550   13.5564  -22.8890 C.ar    1  UNL1        0.1580
     36 C          49.6721   14.6184  -22.6610 C.ar    1  UNL1        0.0677
     37 C          49.6723   15.7397  -23.4932 C.ar    1  UNL1        0.1398
     38 F          48.7590   16.7212  -23.2820 F       1  UNL1       -0.2044
     39 C          50.5956   15.8346  -24.5464 C.ar    1  UNL1        0.0175
     40 C          51.5197   14.7969  -24.7448 C.ar    1  UNL1        0.0130
     41 C          51.5154   13.6673  -23.9195 C.ar    1  UNL1        0.0919
     42 CL         52.7780   12.4659  -24.1624 Cl      1  UNL1       -0.0791
     43 C          50.5537   16.9922  -25.5074 C.3     1  UNL1        0.1382
     44 C          49.8572   16.5769  -26.7631 C.2     1  UNL1        0.3234
     45 O          50.2343   15.5449  -27.3821 O.2     1  UNL1       -0.2497
     46 O          48.8042   17.3612  -27.2465 O.3     1  UNL1       -0.4215
     47 C          47.4355   16.9654  -27.2103 C.3     1  UNL1        0.3207
     48 O          47.2877   16.0005  -26.1874 O.3     1  UNL1       -0.3070
     49 C          45.9130   15.7772  -25.9235 C.3     1  UNL1        0.2456
     50 C          45.1248   15.3281  -27.1935 C.3     1  UNL1        0.1781
     51 O          44.1356   16.2835  -27.4831 O.3     1  UNL1       -0.3790
     52 C          46.0592   15.1528  -28.4116 C.3     1  UNL1        0.1733
     53 O          46.8007   13.9706  -28.2414 O.3     1  UNL1       -0.3793
     54 C          47.0242   16.3573  -28.5766 C.3     1  UNL1        0.2106
     55 O          46.4687   17.3385  -29.4174 O.3     1  UNL1       -0.3766
     56 H          43.4803   15.8509  -28.0912 H       1  UNL1        0.2106
     57 H          47.1303   13.7028  -29.1390 H       1  UNL1        0.2105
     58 H          45.6451   17.6809  -28.9840 H       1  UNL1        0.2107
     59 C          45.7945   14.7518  -24.8298 C.2     1  UNL1        0.3439
     60 O          45.1937   13.6669  -25.0504 O.2     1  UNL1       -0.2475
     61 O          46.3745   14.9668  -23.5823 O.3     1  UNL1       -0.4785
     62 H          46.8768   15.8210  -23.3741 H       1  UNL1        0.2951
@<TRIPOS>BOND
     1    11    12    1
     2    12    13    1
     3    12    14    1
     4    12     7    1
     5     7     8   am
     6     8     9    2
     7     8     1    1
     8     1     2   ar
     9     2     3   ar
    10     3     4   ar
    11     4    34    1
    12    34    35    1
    13    35    36   ar
    14    36    37   ar
    15    37    38    1
    16    37    39   ar
    17    39    43    1
    18    43    44    1
    19    44    45    2
    20    44    46    1
    21    46    47    1
    22    47    48    1
    23    48    49    1
    24    49    59    1
    25    59    60    2
    26    59    61    1
    27    49    50    1
    28    50    51    1
    29    50    52    1
    30    52    53    1
    31    52    54    1
    32    54    55    1
    33    39    40   ar
    34    40    41   ar
    35    41    42    1
    36     4     5   ar
    37     5    15    1
    38    15    17    1
    39    17    18    2
    40    17    19    2
    41    17    20    1
    42    20    21   ar
    43    21    22   ar
    44    22    23   ar
    45    23    31    1
    46    31    32    1
    47    32    33    1
    48    23    24   ar
    49    24    27    1
    50    27    28    2
    51    27    29    1
    52    24    25   ar
    53    25    26    1
    54     5     6   ar
    55     6     1   ar
    56    41    35   ar
    57    25    20   ar
    58    54    47    1
    59    33    31    1
    60     7    10    1
    61    61    62    1
    62    51    56    1
    63    53    57    1
    64    55    58    1
    65    15    16    1
    66    29    30    1
@<TRIPOS>MOLECULE
*****
 62 66 0 0 0
SMALL
GASTEIGER

@<TRIPOS>ATOM
      1 C          49.1250   11.2476  -20.8601 C.ar    1  UNL1        0.0548
      2 C          48.0243   10.4171  -21.1299 C.ar    1  UNL1        0.0077
      3 C          47.5110   10.3208  -22.4251 C.ar    1  UNL1        0.0390
      4 C          48.0782   11.0505  -23.4742 C.ar    1  UNL1        0.1598
      5 C          49.2257   11.8372  -23.2260 C.ar    1  UNL1        0.0993
      6 C          49.7261   11.9445  -21.9217 C.ar    1  UNL1        0.0235
      7 N          49.2484   12.4130  -18.6033 N.am    1  UNL1       -0.3040
      8 C          49.6790   11.3606  -19.4896 C.2     1  UNL1        0.2458
      9 O          50.5514   10.5322  -19.1125 O.2     1  UNL1       -0.2701
     10 H          48.7084   13.2018  -19.0261 H       1  UNL1        0.1496
     11 C          49.0710   11.1561  -16.4775 C.3     1  UNL1        0.0196
     12 C          49.5284   12.4632  -17.1543 C.3     1  UNL1        0.0572
     13 C          51.0319   12.6967  -16.9082 C.3     1  UNL1        0.0196
     14 C          48.7434   13.6364  -16.5315 C.3     1  UNL1        0.0196
     15 N          49.9179   12.4993  -24.2859 N.pl3   1  UNL1       -0.2120
     16 H          49.6945   13.5026  -24.4705 H       1  UNL1        0.1738
     17 S          51.4790   11.9341  -24.7741 S.O2    1  UNL1        0.0745
     18 O          52.1143   11.1584  -23.6556 O.2     1  UNL1       -0.1499
     19 O          52.3668   13.1025  -25.0991 O.2     1  UNL1       -0.1499
     20 C          51.3005   10.8903  -26.1931 C.ar    1  UNL1        0.1358
     21 C          50.0992   10.1968  -26.3623 C.ar    1  UNL1        0.0207
     22 C          49.9163    9.3495  -27.4490 C.ar    1  UNL1       -0.0026
     23 C          50.9481    9.1349  -28.3731 C.ar    1  UNL1       -0.0154
     24 C          52.1623    9.8587  -28.2447 C.ar    1  UNL1        0.0834
     25 C          52.3202   10.7632  -27.1629 C.ar    1  UNL1        0.0824
     26 CL         53.7419   11.8154  -27.0861 Cl      1  UNL1       -0.0806
     27 C          53.2571    9.6763  -29.2315 C.2     1  UNL1        0.3386
     28 O          54.0059    8.6643  -29.1695 O.2     1  UNL1       -0.2451
     29 O          53.4575   10.6099  -30.2439 O.3     1  UNL1       -0.4771
     30 H          54.1991   10.4906  -30.9233 H       1  UNL1        0.2954
     31 C          50.6978    8.1853  -29.5232 C.3     1  UNL1        0.0226
     32 C          49.3811    8.3813  -30.2685 C.3     1  UNL1        0.0047
     33 C          49.5430    7.2117  -29.3185 C.3     1  UNL1        0.0047
     34 O          47.4784   10.9595  -24.7400 O.3     1  UNL1       -0.4513
     35 C          46.9498   12.0343  -25.4718 C.ar    1  UNL1        0.1580
     36 C          46.9605   11.9459  -26.8687 C.ar    1  UNL1        0.0677
     37 C          46.5056   13.0058  -27.6558 C.ar    1  UNL1        0.1398
     38 F          46.5909   12.9114  -29.0070 F       1  UNL1       -0.2044
     39 C          45.9864   14.1606  -27.0495 C.ar    1  UNL1        0.0175
     40 C          45.9224   14.2312  -25.6492 C.ar    1  UNL1        0.0130
     41 C          46.3870   13.1755  -24.8575 C.ar    1  UNL1        0.0919
     42 CL         46.1666   13.2944  -23.1156 Cl      1  UNL1       -0.0791
     43 C          45.5739   15.3478  -27.8776 C.3     1  UNL1        0.1382
     44 C          46.3005   16.5658  -27.4053 C.2     1  UNL1        0.3234
     45 O          45.8319   17.2519  -26.4566 O.2     1  UNL1       -0.2497
     46 O          47.4869   16.9394  -28.0460 O.3     1  UNL1       -0.4215
     47 C          48.7143   17.1883  -27.3656 C.3     1  UNL1        0.3207
     48 O          48.7178   16.4209  -26.1780 O.3     1  UNL1       -0.3070
     49 C          50.0147   16.4145  -25.6060 C.3     1  UNL1        0.2456
     50 C          50.5452   17.8521  -25.3095 C.3     1  UNL1        0.1781
     51 O          51.7061   18.0799  -26.0683 O.3     1  UNL1       -0.3790
     52 C          49.4854   18.9287  -25.6337 C.3     1  UNL1        0.1733
     53 O          48.4968   18.8998  -24.6346 O.3     1  UNL1       -0.3793
     54 C          48.8331   18.6963  -27.0229 C.3     1  UNL1        0.2106
     55 O          49.5296   19.3880  -28.0304 O.3     1  UNL1       -0.3766
     56 H          52.1751   18.8542  -25.6600 H       1  UNL1        0.2106
     57 H          48.0283   19.7749  -24.6644 H       1  UNL1        0.2105
     58 H          50.4491   19.0192  -28.0738 H       1  UNL1        0.2107
     59 C          49.9818   15.5869  -24.3508 C.2     1  UNL1        0.3439
     60 O          48.8761   15.2322  -23.8629 O.2     1  UNL1       -0.2475
     61 O          51.1608   15.1713  -23.7374 O.3     1  UNL1       -0.4785
     62 H          52.0674   15.4259  -24.1096 H       1  UNL1        0.2951
@<TRIPOS>BOND
     1    11    12    1
     2    12    13    1
     3    12    14    1
     4    12     7    1
     5     7     8   am
     6     8     9    2
     7     8     1    1
     8     1     2   ar
     9     2     3   ar
    10     3     4   ar
    11     4    34    1
    12    34    35    1
    13    35    36   ar
    14    36    37   ar
    15    37    38    1
    16    37    39   ar
    17    39    43    1
    18    43    44    1
    19    44    45    2
    20    44    46    1
    21    46    47    1
    22    47    48    1
    23    48    49    1
    24    49    59    1
    25    59    60    2
    26    59    61    1
    27    49    50    1
    28    50    51    1
    29    50    52    1
    30    52    53    1
    31    52    54    1
    32    54    55    1
    33    39    40   ar
    34    40    41   ar
    35    41    42    1
    36     4     5   ar
    37     5    15    1
    38    15    17    1
    39    17    18    2
    40    17    19    2
    41    17    20    1
    42    20    21   ar
    43    21    22   ar
    44    22    23   ar
    45    23    31    1
    46    31    32    1
    47    32    33    1
    48    23    24   ar
    49    24    27    1
    50    27    28    2
    51    27    29    1
    52    24    25   ar
    53    25    26    1
    54     5     6   ar
    55     6     1   ar
    56    41    35   ar
    57    25    20   ar
    58    54    47    1
    59    33    31    1
    60     7    10    1
    61    61    62    1
    62    51    56    1
    63    53    57    1
    64    55    58    1
    65    15    16    1
    66    29    30    1
