@<TRIPOS>MOLECULE
*****
 52 57 0 0 0
SMALL
GASTEIGER

@<TRIPOS>ATOM
      1 N         -63.1219  -46.8844  -26.6617 N.am    1  UNL1       -0.2945
      2 C         -62.0890  -46.3801  -25.7983 C.2     1  UNL1        0.2483
      3 O         -61.0038  -47.0132  -25.6849 O.2     1  UNL1       -0.2701
      4 H         -64.0890  -46.5096  -26.5414 H       1  UNL1        0.1501
      5 C         -62.2898  -45.1282  -25.0273 C.ar    1  UNL1        0.0808
      6 C         -62.1960  -45.1344  -23.6239 C.ar    1  UNL1        0.0080
      7 C         -62.3887  -43.9603  -22.8923 C.ar    1  UNL1        0.0148
      8 C         -62.6842  -42.7558  -23.5456 C.ar    1  UNL1        0.0502
      9 C         -62.7838  -42.7441  -24.9456 C.ar    1  UNL1        0.0443
     10 C         -62.5931  -43.9175  -25.6822 C.ar    1  UNL1        0.1457
     11 F         -62.6843  -43.8602  -27.0353 F       1  UNL1       -0.2040
     12 N         -62.8767  -41.5484  -22.7846 N.pl3   1  UNL1       -0.3040
     13 C         -61.7900  -40.9997  -21.9663 C.3     1  UNL1        0.1123
     14 C         -62.3456  -40.4372  -20.6551 C.3     1  UNL1        0.1136
     15 N         -63.5226  -39.5947  -20.9126 N.pl3   1  UNL1       -0.2897
     16 C         -64.5984  -40.1497  -21.7447 C.3     1  UNL1        0.1136
     17 C         -64.0278  -40.6817  -23.0576 C.3     1  UNL1        0.1123
     18 C         -63.7609  -38.3924  -20.1529 C.ar    1  UNL1        0.1318
     19 C         -64.8032  -38.3155  -19.2146 C.ar    1  UNL1        0.0343
     20 C         -65.0028  -37.1328  -18.5010 C.ar    1  UNL1        0.0083
     21 C         -64.1831  -36.0186  -18.7353 C.ar    1  UNL1        0.0906
     22 C         -63.1420  -36.1419  -19.6683 C.ar    1  UNL1        0.1041
     23 N         -62.9653  -37.3048  -20.3493 N.ar    1  UNL1       -0.2292
     24 C         -64.3564  -34.7523  -17.9361 C.3     1  UNL1        0.4200
     25 F         -63.2135  -33.9740  -18.0002 F       1  UNL1       -0.1658
     26 F         -64.6066  -35.0778  -16.6162 F       1  UNL1       -0.1658
     27 F         -65.4155  -34.0074  -18.4256 F       1  UNL1       -0.1658
     28 C         -62.9427  -48.0767  -27.5003 C.3     1  UNL1        0.1535
     29 C         -63.3093  -49.3275  -26.7393 C.2     1  UNL1        0.2443
     30 O         -63.8096  -50.3123  -27.3490 O.2     1  UNL1       -0.2730
     31 N         -63.0950  -49.3837  -25.3200 N.am    1  UNL1       -0.2825
     32 H         -62.9368  -48.4807  -24.8178 H       1  UNL1        0.1549
     33 C         -63.1783  -50.5854  -24.5339 C.ar    1  UNL1        0.0535
     34 C         -62.1651  -50.8729  -23.6089 C.ar    1  UNL1        0.0353
     35 C         -62.2253  -52.0501  -22.8595 C.ar    1  UNL1        0.1002
     36 N         -63.2532  -52.9209  -23.0390 N.ar    1  UNL1       -0.2422
     37 C         -64.2402  -52.6801  -23.9419 C.ar    1  UNL1        0.1002
     38 C         -64.2192  -51.5138  -24.7108 C.ar    1  UNL1        0.0353
     39 C         -63.7464  -47.9527  -28.8106 C.3     1  UNL1        0.0569
     40 C         -62.3849  -43.4289  -30.3416 C.ar    1  UNL1        0.0228
     41 C         -60.9929  -43.6048  -30.1756 C.ar    1  UNL1       -0.0004
     42 C         -60.4732  -44.8288  -29.7030 C.ar    1  UNL1       -0.0002
     43 C         -61.3312  -45.8980  -29.3984 C.ar    1  UNL1        0.0011
     44 C         -62.7007  -45.7067  -29.5765 C.ar    1  UNL1        0.0129
     45 C         -63.7716  -46.5535  -29.3641 C.ar    1  UNL1       -0.0017
     46 C         -64.9022  -45.8252  -29.7173 C.ar    1  UNL1        0.0681
     47 N         -64.5559  -44.5849  -30.1286 N.ar    1  UNL1       -0.3524
     48 C         -63.2136  -44.5190  -30.0364 C.ar    1  UNL1        0.0546
     49 H         -65.2093  -43.8362  -30.4484 H       1  UNL1        0.1660
     50 C         -62.9462  -42.1363  -30.8628 C.3     1  UNL1        0.1701
     51 C         -64.8143  -41.0763  -30.0343 C.3     1  UNL1        0.1746
     52 O         -64.3544  -42.1819  -30.7783 O.3     1  UNL1       -0.3463
@<TRIPOS>BOND
     1    51    52    1
     2    52    50    1
     3    50    40    1
     4    40    41   ar
     5    41    42   ar
     6    42    43   ar
     7    43    44   ar
     8    44    45   ar
     9    45    39    1
    10    39    28    1
    11    28     1    1
    12     1     2   am
    13     2     3    2
    14     2     5    1
    15     5     6   ar
    16     6     7   ar
    17     7     8   ar
    18     8    12    1
    19    12    13    1
    20    13    14    1
    21    14    15    1
    22    15    18    1
    23    18    19   ar
    24    19    20   ar
    25    20    21   ar
    26    21    24    1
    27    24    25    1
    28    24    26    1
    29    24    27    1
    30    21    22   ar
    31    22    23   ar
    32    15    16    1
    33    16    17    1
    34     8     9   ar
    35     9    10   ar
    36    10    11    1
    37    28    29    1
    38    29    30    2
    39    29    31   am
    40    31    33    1
    41    33    34   ar
    42    34    35   ar
    43    35    36   ar
    44    36    37   ar
    45    37    38   ar
    46    45    46   ar
    47    46    47   ar
    48    47    48   ar
    49    48    40   ar
    50    48    44   ar
    51    10     5   ar
    52    38    33   ar
    53    17    12    1
    54    23    18   ar
    55     1     4    1
    56    31    32    1
    57    47    49    1
@<TRIPOS>MOLECULE
*****
 52 57 0 0 0
SMALL
GASTEIGER

@<TRIPOS>ATOM
      1 N         -62.5300  -46.8005  -25.9018 N.am    1  UNL1       -0.2945
      2 C         -61.5781  -46.1358  -25.0542 C.2     1  UNL1        0.2483
      3 O         -60.4327  -46.6369  -24.8861 O.2     1  UNL1       -0.2701
      4 H         -63.5348  -46.5290  -25.8193 H       1  UNL1        0.1501
      5 C         -61.9322  -44.8714  -24.3626 C.ar    1  UNL1        0.0808
      6 C         -62.0017  -44.8240  -22.9586 C.ar    1  UNL1        0.0080
      7 C         -62.3392  -43.6383  -22.3022 C.ar    1  UNL1        0.0148
      8 C         -62.6194  -42.4756  -23.0334 C.ar    1  UNL1        0.0502
      9 C         -62.5564  -42.5178  -24.4349 C.ar    1  UNL1        0.0443
     10 C         -62.2204  -43.7031  -25.0965 C.ar    1  UNL1        0.1457
     11 F         -62.1568  -43.6977  -26.4524 F       1  UNL1       -0.2040
     12 N         -62.9619  -41.2556  -22.3490 N.pl3   1  UNL1       -0.3040
     13 C         -61.9752  -40.5677  -21.5095 C.3     1  UNL1        0.1123
     14 C         -62.6493  -39.9959  -20.2593 C.3     1  UNL1        0.1136
     15 N         -63.8827  -39.2813  -20.6192 N.pl3   1  UNL1       -0.2897
     16 C         -64.8572  -39.9752  -21.4716 C.3     1  UNL1        0.1136
     17 C         -64.1709  -40.5153  -22.7243 C.3     1  UNL1        0.1123
     18 C         -64.2702  -38.0707  -19.9381 C.ar    1  UNL1        0.1318
     19 C         -65.5997  -37.6181  -19.9517 C.ar    1  UNL1        0.0343
     20 C         -65.9340  -36.4400  -19.2822 C.ar    1  UNL1        0.0083
     21 C         -64.9448  -35.6985  -18.6191 C.ar    1  UNL1        0.0906
     22 C         -63.6317  -36.1938  -18.6143 C.ar    1  UNL1        0.1041
     23 N         -63.3305  -37.3451  -19.2710 N.ar    1  UNL1       -0.2292
     24 C         -65.3013  -34.4514  -17.8507 C.3     1  UNL1        0.4200
     25 F         -64.4469  -33.4136  -18.1806 F       1  UNL1       -0.1658
     26 F         -65.1986  -34.7066  -16.4961 F       1  UNL1       -0.1658
     27 F         -66.5959  -34.0545  -18.1381 F       1  UNL1       -0.1658
     28 C         -62.2024  -48.0120  -26.6647 C.3     1  UNL1        0.1535
     29 C         -62.3924  -49.2467  -25.8177 C.2     1  UNL1        0.2443
     30 O         -63.2510  -50.1107  -26.1467 O.2     1  UNL1       -0.2730
     31 N         -61.5989  -49.4246  -24.6335 N.am    1  UNL1       -0.2825
     32 H         -61.1034  -48.5869  -24.2521 H       1  UNL1        0.1549
     33 C         -61.5186  -50.6517  -23.8874 C.ar    1  UNL1        0.0535
     34 C         -62.6991  -51.2685  -23.4505 C.ar    1  UNL1        0.0353
     35 C         -62.6292  -52.4470  -22.7039 C.ar    1  UNL1        0.1002
     36 N         -61.4211  -52.9836  -22.3882 N.ar    1  UNL1       -0.2422
     37 C         -60.2585  -52.3988  -22.7802 C.ar    1  UNL1        0.1002
     38 C         -60.2834  -51.2201  -23.5299 C.ar    1  UNL1        0.0353
     39 C         -63.0282  -48.0825  -27.9652 C.3     1  UNL1        0.0569
     40 C         -61.7611  -43.7442  -30.0233 C.ar    1  UNL1        0.0228
     41 C         -60.3803  -43.8147  -29.7325 C.ar    1  UNL1       -0.0004
     42 C         -59.8436  -44.9291  -29.0530 C.ar    1  UNL1       -0.0002
     43 C         -60.6723  -45.9934  -28.6624 C.ar    1  UNL1        0.0011
     44 C         -62.0305  -45.9080  -28.9656 C.ar    1  UNL1        0.0129
     45 C         -63.0742  -46.7776  -28.7134 C.ar    1  UNL1       -0.0017
     46 C         -64.2055  -46.1719  -29.2488 C.ar    1  UNL1        0.0681
     47 N         -63.8857  -44.9828  -29.8066 N.ar    1  UNL1       -0.3524
     48 C         -62.5597  -44.8273  -29.6269 C.ar    1  UNL1        0.0546
     49 H         -64.5455  -44.3247  -30.2772 H       1  UNL1        0.1660
     50 C         -62.3384  -42.5711  -30.7636 C.3     1  UNL1        0.1701
     51 C         -62.2625  -43.1738  -32.9842 C.3     1  UNL1        0.1746
     52 O         -63.0967  -43.0470  -31.8548 O.3     1  UNL1       -0.3463
@<TRIPOS>BOND
     1    51    52    1
     2    52    50    1
     3    50    40    1
     4    40    41   ar
     5    41    42   ar
     6    42    43   ar
     7    43    44   ar
     8    44    45   ar
     9    45    39    1
    10    39    28    1
    11    28     1    1
    12     1     2   am
    13     2     3    2
    14     2     5    1
    15     5     6   ar
    16     6     7   ar
    17     7     8   ar
    18     8    12    1
    19    12    13    1
    20    13    14    1
    21    14    15    1
    22    15    18    1
    23    18    19   ar
    24    19    20   ar
    25    20    21   ar
    26    21    24    1
    27    24    25    1
    28    24    26    1
    29    24    27    1
    30    21    22   ar
    31    22    23   ar
    32    15    16    1
    33    16    17    1
    34     8     9   ar
    35     9    10   ar
    36    10    11    1
    37    28    29    1
    38    29    30    2
    39    29    31   am
    40    31    33    1
    41    33    34   ar
    42    34    35   ar
    43    35    36   ar
    44    36    37   ar
    45    37    38   ar
    46    45    46   ar
    47    46    47   ar
    48    47    48   ar
    49    48    40   ar
    50    48    44   ar
    51    10     5   ar
    52    38    33   ar
    53    17    12    1
    54    23    18   ar
    55     1     4    1
    56    31    32    1
    57    47    49    1
@<TRIPOS>MOLECULE
*****
 52 57 0 0 0
SMALL
GASTEIGER

@<TRIPOS>ATOM
      1 N         -65.4305  -53.9553  -22.5644 N.am    1  UNL1       -0.2945
      2 C         -64.0612  -53.5989  -22.8187 C.2     1  UNL1        0.2483
      3 O         -63.1352  -54.3771  -22.4605 O.2     1  UNL1       -0.2701
      4 H         -66.1521  -53.2025  -22.6178 H       1  UNL1        0.1501
      5 C         -63.7231  -52.3178  -23.4868 C.ar    1  UNL1        0.0808
      6 C         -64.5304  -51.8234  -24.5270 C.ar    1  UNL1        0.0080
      7 C         -64.2146  -50.6206  -25.1630 C.ar    1  UNL1        0.0148
      8 C         -63.0832  -49.8882  -24.7777 C.ar    1  UNL1        0.0502
      9 C         -62.2710  -50.3787  -23.7435 C.ar    1  UNL1        0.0443
     10 C         -62.5824  -51.5832  -23.1049 C.ar    1  UNL1        0.1457
     11 F         -61.7787  -52.0154  -22.0999 F       1  UNL1       -0.2040
     12 N         -62.7670  -48.6464  -25.4351 N.pl3   1  UNL1       -0.3040
     13 C         -61.9834  -47.6151  -24.7467 C.3     1  UNL1        0.1123
     14 C         -62.5212  -46.2232  -25.0901 C.3     1  UNL1        0.1136
     15 N         -62.7296  -46.0936  -26.5396 N.pl3   1  UNL1       -0.2897
     16 C         -63.5043  -47.1396  -27.2204 C.3     1  UNL1        0.1136
     17 C         -62.9369  -48.5173  -26.8860 C.3     1  UNL1        0.1123
     18 C         -62.4479  -44.8575  -27.2270 C.ar    1  UNL1        0.1318
     19 C         -61.1341  -44.3801  -27.3632 C.ar    1  UNL1        0.0343
     20 C         -60.9033  -43.1779  -28.0335 C.ar    1  UNL1        0.0083
     21 C         -61.9781  -42.4375  -28.5480 C.ar    1  UNL1        0.0906
     22 C         -63.2739  -42.9576  -28.4063 C.ar    1  UNL1        0.1041
     23 N         -63.4739  -44.1320  -27.7520 N.ar    1  UNL1       -0.2292
     24 C         -61.7385  -41.1633  -29.3170 C.3     1  UNL1        0.4200
     25 F         -62.8675  -40.3626  -29.2995 F       1  UNL1       -0.1658
     26 F         -61.4268  -41.4743  -30.6273 F       1  UNL1       -0.1658
     27 F         -60.6916  -40.4478  -28.7619 F       1  UNL1       -0.1658
     28 C         -65.8184  -55.2430  -21.9740 C.3     1  UNL1        0.1535
     29 C         -66.8432  -55.0460  -20.8836 C.2     1  UNL1        0.2443
     30 O         -67.3121  -53.8962  -20.6597 O.2     1  UNL1       -0.2730
     31 N         -67.2707  -56.1709  -20.0992 N.am    1  UNL1       -0.2825
     32 H         -66.6809  -57.0335  -20.1276 H       1  UNL1        0.1549
     33 C         -68.3990  -56.1561  -19.2071 C.ar    1  UNL1        0.0535
     34 C         -68.2980  -55.4809  -17.9829 C.ar    1  UNL1        0.0353
     35 C         -69.3803  -55.4828  -17.0998 C.ar    1  UNL1        0.1002
     36 N         -70.5199  -56.1509  -17.4193 N.ar    1  UNL1       -0.2422
     37 C         -70.6416  -56.8311  -18.5896 C.ar    1  UNL1        0.1002
     38 C         -69.5837  -56.8535  -19.5019 C.ar    1  UNL1        0.0353
     39 C         -66.3234  -56.2152  -23.0594 C.3     1  UNL1        0.0569
     40 C         -70.4306  -54.6830  -25.3930 C.ar    1  UNL1        0.0228
     41 C         -71.3551  -55.1366  -24.4256 C.ar    1  UNL1       -0.0004
     42 C         -70.9111  -55.7863  -23.2542 C.ar    1  UNL1       -0.0002
     43 C         -69.5400  -55.9849  -23.0248 C.ar    1  UNL1        0.0011
     44 C         -68.6437  -55.5230  -23.9877 C.ar    1  UNL1        0.0129
     45 C         -67.2640  -55.5735  -24.0434 C.ar    1  UNL1       -0.0017
     46 C         -66.9132  -54.9517  -25.2365 C.ar    1  UNL1        0.0681
     47 N         -68.0178  -54.5346  -25.8946 N.ar    1  UNL1       -0.3524
     48 C         -69.0682  -54.8894  -25.1294 C.ar    1  UNL1        0.0546
     49 H         -68.0385  -54.0397  -26.8136 H       1  UNL1        0.1660
     50 C         -70.8926  -53.9727  -26.6337 C.3     1  UNL1        0.1701
     51 C         -70.6200  -55.3033  -28.4925 C.3     1  UNL1        0.1746
     52 O         -70.0262  -54.3012  -27.6984 O.3     1  UNL1       -0.3463
@<TRIPOS>BOND
     1    51    52    1
     2    52    50    1
     3    50    40    1
     4    40    41   ar
     5    41    42   ar
     6    42    43   ar
     7    43    44   ar
     8    44    45   ar
     9    45    39    1
    10    39    28    1
    11    28     1    1
    12     1     2   am
    13     2     3    2
    14     2     5    1
    15     5     6   ar
    16     6     7   ar
    17     7     8   ar
    18     8    12    1
    19    12    13    1
    20    13    14    1
    21    14    15    1
    22    15    18    1
    23    18    19   ar
    24    19    20   ar
    25    20    21   ar
    26    21    24    1
    27    24    25    1
    28    24    26    1
    29    24    27    1
    30    21    22   ar
    31    22    23   ar
    32    15    16    1
    33    16    17    1
    34     8     9   ar
    35     9    10   ar
    36    10    11    1
    37    28    29    1
    38    29    30    2
    39    29    31   am
    40    31    33    1
    41    33    34   ar
    42    34    35   ar
    43    35    36   ar
    44    36    37   ar
    45    37    38   ar
    46    45    46   ar
    47    46    47   ar
    48    47    48   ar
    49    48    40   ar
    50    48    44   ar
    51    10     5   ar
    52    38    33   ar
    53    17    12    1
    54    23    18   ar
    55     1     4    1
    56    31    32    1
    57    47    49    1
@<TRIPOS>MOLECULE
*****
 52 57 0 0 0
SMALL
GASTEIGER

@<TRIPOS>ATOM
      1 N         -62.1473  -46.6579  -25.7542 N.am    1  UNL1       -0.2945
      2 C         -61.2940  -46.0720  -24.7566 C.2     1  UNL1        0.2483
      3 O         -60.2059  -46.6346  -24.4552 O.2     1  UNL1       -0.2701
      4 H         -63.1411  -46.3405  -25.7983 H       1  UNL1        0.1501
      5 C         -61.6851  -44.8180  -24.0663 C.ar    1  UNL1        0.0808
      6 C         -61.8932  -43.6368  -24.8009 C.ar    1  UNL1        0.0080
      7 C         -62.2567  -42.4522  -24.1564 C.ar    1  UNL1        0.0148
      8 C         -62.4154  -42.4201  -22.7640 C.ar    1  UNL1        0.0502
      9 C         -62.2045  -43.5944  -22.0248 C.ar    1  UNL1        0.0443
     10 C         -61.8389  -44.7824  -22.6656 C.ar    1  UNL1        0.1457
     11 F         -61.6583  -45.8992  -21.9155 F       1  UNL1       -0.2040
     12 N         -62.7952  -41.1959  -22.1073 N.pl3   1  UNL1       -0.3040
     13 C         -61.8628  -40.5119  -21.2049 C.3     1  UNL1        0.1123
     14 C         -62.6160  -39.9321  -20.0044 C.3     1  UNL1        0.1136
     15 N         -63.8176  -39.2107  -20.4485 N.pl3   1  UNL1       -0.2897
     16 C         -64.7369  -39.9009  -21.3630 C.3     1  UNL1        0.1136
     17 C         -63.9713  -40.4490  -22.5652 C.3     1  UNL1        0.1123
     18 C         -64.2422  -37.9957  -19.7980 C.ar    1  UNL1        0.1318
     19 C         -65.5594  -37.5236  -19.9195 C.ar    1  UNL1        0.0343
     20 C         -65.9304  -36.3418  -19.2764 C.ar    1  UNL1        0.0083
     21 C         -64.9885  -35.6160  -18.5321 C.ar    1  UNL1        0.0906
     22 C         -63.6876  -36.1306  -18.4209 C.ar    1  UNL1        0.1041
     23 N         -63.3501  -37.2851  -19.0539 N.ar    1  UNL1       -0.2292
     24 C         -65.3889  -34.3652  -17.7921 C.3     1  UNL1        0.4200
     25 F         -65.2581  -34.5432  -16.4256 F       1  UNL1       -0.1658
     26 F         -66.7065  -34.0661  -18.0835 F       1  UNL1       -0.1658
     27 F         -64.5904  -33.2989  -18.1683 F       1  UNL1       -0.1658
     28 C         -61.7703  -47.8553  -26.5164 C.3     1  UNL1        0.1535
     29 C         -62.1106  -49.1091  -25.7482 C.2     1  UNL1        0.2443
     30 O         -63.0406  -49.8614  -26.1498 O.2     1  UNL1       -0.2730
     31 N         -61.3778  -49.4322  -24.5557 N.am    1  UNL1       -0.2825
     32 H         -60.8133  -48.6719  -24.1130 H       1  UNL1        0.1549
     33 C         -61.4454  -50.7005  -23.8806 C.ar    1  UNL1        0.0535
     34 C         -62.6980  -51.2638  -23.6004 C.ar    1  UNL1        0.0353
     35 C         -62.7732  -52.4829  -22.9228 C.ar    1  UNL1        0.1002
     36 N         -61.6367  -53.1115  -22.5221 N.ar    1  UNL1       -0.2422
     37 C         -60.4083  -52.5815  -22.7613 C.ar    1  UNL1        0.1002
     38 C         -60.2882  -51.3648  -23.4375 C.ar    1  UNL1        0.0353
     39 C         -62.4271  -47.8479  -27.9116 C.3     1  UNL1        0.0569
     40 C         -63.3867  -43.6660  -30.4124 C.ar    1  UNL1        0.0228
     41 C         -64.7956  -43.7663  -30.3775 C.ar    1  UNL1       -0.0004
     42 C         -65.4242  -44.8541  -29.7347 C.ar    1  UNL1       -0.0002
     43 C         -64.6594  -45.8520  -29.1092 C.ar    1  UNL1        0.0011
     44 C         -63.2709  -45.7304  -29.1481 C.ar    1  UNL1        0.0129
     45 C         -62.2734  -46.5376  -28.6357 C.ar    1  UNL1       -0.0017
     46 C         -61.0765  -45.9169  -28.9754 C.ar    1  UNL1        0.0681
     47 N         -61.3134  -44.7796  -29.6665 N.ar    1  UNL1       -0.3524
     48 C         -62.6523  -44.6747  -29.7710 C.ar    1  UNL1        0.0546
     49 H         -60.5926  -44.1240  -30.0415 H       1  UNL1        0.1660
     50 C         -62.7087  -42.5015  -31.0770 C.3     1  UNL1        0.1701
     51 C         -62.0104  -43.2362  -33.1440 C.3     1  UNL1        0.1746
     52 O         -63.0116  -42.5216  -32.4555 O.3     1  UNL1       -0.3463
@<TRIPOS>BOND
     1    51    52    1
     2    52    50    1
     3    50    40    1
     4    40    41   ar
     5    41    42   ar
     6    42    43   ar
     7    43    44   ar
     8    44    45   ar
     9    45    39    1
    10    39    28    1
    11    28     1    1
    12     1     2   am
    13     2     3    2
    14     2     5    1
    15     5     6   ar
    16     6     7   ar
    17     7     8   ar
    18     8    12    1
    19    12    13    1
    20    13    14    1
    21    14    15    1
    22    15    18    1
    23    18    19   ar
    24    19    20   ar
    25    20    21   ar
    26    21    24    1
    27    24    25    1
    28    24    26    1
    29    24    27    1
    30    21    22   ar
    31    22    23   ar
    32    15    16    1
    33    16    17    1
    34     8     9   ar
    35     9    10   ar
    36    10    11    1
    37    28    29    1
    38    29    30    2
    39    29    31   am
    40    31    33    1
    41    33    34   ar
    42    34    35   ar
    43    35    36   ar
    44    36    37   ar
    45    37    38   ar
    46    45    46   ar
    47    46    47   ar
    48    47    48   ar
    49    48    40   ar
    50    48    44   ar
    51    10     5   ar
    52    38    33   ar
    53    17    12    1
    54    23    18   ar
    55     1     4    1
    56    31    32    1
    57    47    49    1
@<TRIPOS>MOLECULE
*****
 52 57 0 0 0
SMALL
GASTEIGER

@<TRIPOS>ATOM
      1 N         -61.4155  -48.1609  -23.8019 N.am    1  UNL1       -0.2945
      2 C         -60.4301  -47.1569  -23.5056 C.2     1  UNL1        0.2483
      3 O         -59.2070  -47.4090  -23.6832 O.2     1  UNL1       -0.2701
      4 H         -62.3740  -48.0405  -23.4055 H       1  UNL1        0.1501
      5 C         -60.8349  -45.8297  -22.9795 C.ar    1  UNL1        0.0808
      6 C         -61.3015  -45.7000  -21.6590 C.ar    1  UNL1        0.0080
      7 C         -61.6884  -44.4543  -21.1597 C.ar    1  UNL1        0.0148
      8 C         -61.6226  -43.3121  -21.9695 C.ar    1  UNL1        0.0502
      9 C         -61.1623  -43.4357  -23.2896 C.ar    1  UNL1        0.0443
     10 C         -60.7752  -44.6812  -23.7944 C.ar    1  UNL1        0.1457
     11 F         -60.3226  -44.7551  -25.0720 F       1  UNL1       -0.2040
     12 N         -62.0187  -42.0303  -21.4458 N.pl3   1  UNL1       -0.3040
     13 C         -61.4513  -41.5288  -20.1896 C.3     1  UNL1        0.1123
     14 C         -62.5251  -40.8012  -19.3760 C.3     1  UNL1        0.1136
     15 N         -63.2739  -39.8666  -20.2288 N.pl3   1  UNL1       -0.2897
     16 C         -63.8257  -40.3768  -21.4909 C.3     1  UNL1        0.1136
     17 C         -62.7344  -41.0758  -22.2987 C.3     1  UNL1        0.1123
     18 C         -63.7088  -38.5852  -19.7302 C.ar    1  UNL1        0.1318
     19 C         -64.8147  -38.4722  -18.8718 C.ar    1  UNL1        0.0343
     20 C         -65.2055  -37.2134  -18.4129 C.ar    1  UNL1        0.0083
     21 C         -64.5136  -36.0645  -18.8243 C.ar    1  UNL1        0.0906
     22 C         -63.4036  -36.2218  -19.6685 C.ar    1  UNL1        0.1041
     23 N         -63.0400  -37.4582  -20.1004 N.ar    1  UNL1       -0.2292
     24 C         -64.8946  -34.7048  -18.2967 C.3     1  UNL1        0.4200
     25 F         -63.8124  -33.8428  -18.3413 F       1  UNL1       -0.1658
     26 F         -65.3194  -34.8275  -16.9871 F       1  UNL1       -0.1658
     27 F         -65.9162  -34.1566  -19.0529 F       1  UNL1       -0.1658
     28 C         -61.0708  -49.4605  -24.3928 C.3     1  UNL1        0.1535
     29 C         -61.8060  -50.5787  -23.6950 C.2     1  UNL1        0.2443
     30 O         -61.7207  -50.7038  -22.4424 O.2     1  UNL1       -0.2730
     31 N         -62.5915  -51.5019  -24.4659 N.am    1  UNL1       -0.2825
     32 H         -62.4276  -51.5334  -25.4978 H       1  UNL1        0.1549
     33 C         -63.5160  -52.4486  -23.9020 C.ar    1  UNL1        0.0535
     34 C         -63.0898  -53.2921  -22.8668 C.ar    1  UNL1        0.0353
     35 C         -63.9737  -54.2315  -22.3307 C.ar    1  UNL1        0.1002
     36 N         -65.2361  -54.3383  -22.8226 N.ar    1  UNL1       -0.2422
     37 C         -65.6729  -53.5485  -23.8388 C.ar    1  UNL1        0.1002
     38 C         -64.8217  -52.5948  -24.4026 C.ar    1  UNL1        0.0353
     39 C         -61.3416  -49.4629  -25.9109 C.3     1  UNL1        0.0569
     40 C         -62.1836  -45.0077  -27.9369 C.ar    1  UNL1        0.0228
     41 C         -60.8810  -44.8024  -28.4440 C.ar    1  UNL1       -0.0004
     42 C         -59.8758  -45.7762  -28.2622 C.ar    1  UNL1       -0.0002
     43 C         -60.1560  -46.9722  -27.5816 C.ar    1  UNL1        0.0011
     44 C         -61.4495  -47.1588  -27.0958 C.ar    1  UNL1        0.0129
     45 C         -62.0154  -48.2087  -26.3982 C.ar    1  UNL1       -0.0017
     46 C         -63.3405  -47.8460  -26.1835 C.ar    1  UNL1        0.0681
     47 N         -63.5904  -46.6302  -26.7188 N.ar    1  UNL1       -0.3524
     48 C         -62.4327  -46.2163  -27.2695 C.ar    1  UNL1        0.0546
     49 H         -64.5028  -46.1232  -26.6993 H       1  UNL1        0.1660
     50 C         -63.2656  -43.9857  -28.1427 C.3     1  UNL1        0.1701
     51 C         -65.0816  -43.8762  -29.5534 C.3     1  UNL1        0.1746
     52 O         -64.4433  -44.6435  -28.5578 O.3     1  UNL1       -0.3463
@<TRIPOS>BOND
     1    51    52    1
     2    52    50    1
     3    50    40    1
     4    40    41   ar
     5    41    42   ar
     6    42    43   ar
     7    43    44   ar
     8    44    45   ar
     9    45    39    1
    10    39    28    1
    11    28     1    1
    12     1     2   am
    13     2     3    2
    14     2     5    1
    15     5     6   ar
    16     6     7   ar
    17     7     8   ar
    18     8    12    1
    19    12    13    1
    20    13    14    1
    21    14    15    1
    22    15    18    1
    23    18    19   ar
    24    19    20   ar
    25    20    21   ar
    26    21    24    1
    27    24    25    1
    28    24    26    1
    29    24    27    1
    30    21    22   ar
    31    22    23   ar
    32    15    16    1
    33    16    17    1
    34     8     9   ar
    35     9    10   ar
    36    10    11    1
    37    28    29    1
    38    29    30    2
    39    29    31   am
    40    31    33    1
    41    33    34   ar
    42    34    35   ar
    43    35    36   ar
    44    36    37   ar
    45    37    38   ar
    46    45    46   ar
    47    46    47   ar
    48    47    48   ar
    49    48    40   ar
    50    48    44   ar
    51    10     5   ar
    52    38    33   ar
    53    17    12    1
    54    23    18   ar
    55     1     4    1
    56    31    32    1
    57    47    49    1
@<TRIPOS>MOLECULE
*****
 52 57 0 0 0
SMALL
GASTEIGER

@<TRIPOS>ATOM
      1 N         -61.7368  -46.6302  -25.6829 N.am    1  UNL1       -0.2945
      2 C         -60.9127  -46.0922  -24.6350 C.2     1  UNL1        0.2483
      3 O         -59.8040  -46.6328  -24.3709 O.2     1  UNL1       -0.2701
      4 H         -62.7425  -46.3508  -25.7093 H       1  UNL1        0.1501
      5 C         -61.3579  -44.9142  -23.8500 C.ar    1  UNL1        0.0808
      6 C         -61.2633  -44.9176  -22.4467 C.ar    1  UNL1        0.0080
      7 C         -61.6851  -43.8138  -21.7020 C.ar    1  UNL1        0.0148
      8 C         -62.2151  -42.6849  -22.3419 C.ar    1  UNL1        0.0502
      9 C         -62.3165  -42.6773  -23.7417 C.ar    1  UNL1        0.0443
     10 C         -61.8969  -43.7808  -24.4914 C.ar    1  UNL1        0.1457
     11 F         -61.9991  -43.7273  -25.8439 F       1  UNL1       -0.2040
     12 N         -62.6433  -41.5488  -21.5673 N.pl3   1  UNL1       -0.3040
     13 C         -63.9951  -41.4978  -21.0002 C.3     1  UNL1        0.1123
     14 C         -64.5555  -40.0759  -21.0924 C.3     1  UNL1        0.1136
     15 N         -63.5622  -39.0983  -20.6243 N.pl3   1  UNL1       -0.2897
     16 C         -62.2080  -39.1678  -21.1892 C.3     1  UNL1        0.1136
     17 C         -61.6573  -40.5866  -21.0646 C.3     1  UNL1        0.1123
     18 C         -63.9574  -37.9357  -19.8682 C.ar    1  UNL1        0.1318
     19 C         -65.1005  -37.9486  -19.0522 C.ar    1  UNL1        0.0343
     20 C         -65.4509  -36.8018  -18.3380 C.ar    1  UNL1        0.0083
     21 C         -64.6805  -35.6349  -18.4519 C.ar    1  UNL1        0.0906
     22 C         -63.5364  -35.6685  -19.2639 C.ar    1  UNL1        0.1041
     23 N         -63.2135  -36.7978  -19.9478 N.ar    1  UNL1       -0.2292
     24 C         -65.0196  -34.4057  -17.6478 C.3     1  UNL1        0.4200
     25 F         -64.8715  -34.6518  -16.2937 F       1  UNL1       -0.1658
     26 F         -66.3299  -34.0445  -17.8995 F       1  UNL1       -0.1658
     27 F         -64.1878  -33.3537  -17.9903 F       1  UNL1       -0.1658
     28 C         -61.3077  -47.7467  -26.5352 C.3     1  UNL1        0.1535
     29 C         -61.5623  -49.0695  -25.8547 C.2     1  UNL1        0.2443
     30 O         -61.9649  -50.0576  -26.5281 O.2     1  UNL1       -0.2730
     31 N         -61.3538  -49.1913  -24.4385 N.am    1  UNL1       -0.2825
     32 H         -61.2835  -48.3095  -23.8816 H       1  UNL1        0.1549
     33 C         -61.3312  -50.4408  -23.7264 C.ar    1  UNL1        0.0535
     34 C         -60.1151  -51.1201  -23.5693 C.ar    1  UNL1        0.0353
     35 C         -60.0882  -52.3464  -22.9010 C.ar    1  UNL1        0.1002
     36 N         -61.2391  -52.8863  -22.4202 N.ar    1  UNL1       -0.2422
     37 C         -62.4365  -52.2618  -22.5738 C.ar    1  UNL1        0.1002
     38 C         -62.5077  -51.0329  -23.2345 C.ar    1  UNL1        0.0353
     39 C         -61.9904  -47.6775  -27.9163 C.3     1  UNL1        0.0569
     40 C         -63.1469  -43.3860  -30.1316 C.ar    1  UNL1        0.0228
     41 C         -64.5504  -43.5387  -30.0763 C.ar    1  UNL1       -0.0004
     42 C         -65.1273  -44.6860  -29.4910 C.ar    1  UNL1       -0.0002
     43 C         -64.3153  -45.6926  -28.9438 C.ar    1  UNL1        0.0011
     44 C         -62.9330  -45.5192  -29.0015 C.ar    1  UNL1        0.0129
     45 C         -61.8975  -46.3203  -28.5597 C.ar    1  UNL1       -0.0017
     46 C         -60.7302  -45.6373  -28.8826 C.ar    1  UNL1        0.0681
     47 N         -61.0209  -44.4686  -29.4965 N.ar    1  UNL1       -0.3524
     48 C         -62.3646  -44.4054  -29.5687 C.ar    1  UNL1        0.0546
     49 H         -60.3313  -43.7656  -29.8433 H       1  UNL1        0.1660
     50 C         -62.5238  -42.1590  -30.7348 C.3     1  UNL1        0.1701
     51 C         -61.7610  -40.8574  -28.9959 C.3     1  UNL1        0.1746
     52 O         -61.3895  -41.8012  -29.9750 O.3     1  UNL1       -0.3463
@<TRIPOS>BOND
     1    51    52    1
     2    52    50    1
     3    50    40    1
     4    40    41   ar
     5    41    42   ar
     6    42    43   ar
     7    43    44   ar
     8    44    45   ar
     9    45    39    1
    10    39    28    1
    11    28     1    1
    12     1     2   am
    13     2     3    2
    14     2     5    1
    15     5     6   ar
    16     6     7   ar
    17     7     8   ar
    18     8    12    1
    19    12    13    1
    20    13    14    1
    21    14    15    1
    22    15    18    1
    23    18    19   ar
    24    19    20   ar
    25    20    21   ar
    26    21    24    1
    27    24    25    1
    28    24    26    1
    29    24    27    1
    30    21    22   ar
    31    22    23   ar
    32    15    16    1
    33    16    17    1
    34     8     9   ar
    35     9    10   ar
    36    10    11    1
    37    28    29    1
    38    29    30    2
    39    29    31   am
    40    31    33    1
    41    33    34   ar
    42    34    35   ar
    43    35    36   ar
    44    36    37   ar
    45    37    38   ar
    46    45    46   ar
    47    46    47   ar
    48    47    48   ar
    49    48    40   ar
    50    48    44   ar
    51    10     5   ar
    52    38    33   ar
    53    17    12    1
    54    23    18   ar
    55     1     4    1
    56    31    32    1
    57    47    49    1
@<TRIPOS>MOLECULE
*****
 52 57 0 0 0
SMALL
GASTEIGER

@<TRIPOS>ATOM
      1 N         -66.5460  -55.2604  -21.6448 N.am    1  UNL1       -0.2945
      2 C         -65.1695  -55.1848  -22.0523 C.2     1  UNL1        0.2483
      3 O         -64.3993  -56.1608  -21.8393 O.2     1  UNL1       -0.2701
      4 H         -67.0892  -54.3709  -21.5817 H       1  UNL1        0.1501
      5 C         -64.6397  -53.9646  -22.7100 C.ar    1  UNL1        0.0808
      6 C         -63.3432  -53.5046  -22.4171 C.ar    1  UNL1        0.0080
      7 C         -62.8408  -52.3541  -23.0292 C.ar    1  UNL1        0.0148
      8 C         -63.6237  -51.6352  -23.9431 C.ar    1  UNL1        0.0502
      9 C         -64.9200  -52.0864  -24.2359 C.ar    1  UNL1        0.0443
     10 C         -65.4279  -53.2370  -23.6244 C.ar    1  UNL1        0.1457
     11 F         -66.6812  -53.6474  -23.9459 F       1  UNL1       -0.2040
     12 N         -63.0967  -50.4526  -24.5738 N.pl3   1  UNL1       -0.3040
     13 C         -61.7180  -50.0213  -24.3191 C.3     1  UNL1        0.1123
     14 C         -61.6486  -48.4945  -24.2269 C.3     1  UNL1        0.1136
     15 N         -62.3813  -47.8763  -25.3415 N.pl3   1  UNL1       -0.2897
     16 C         -63.7565  -48.3260  -25.5955 C.3     1  UNL1        0.1136
     17 C         -63.8003  -49.8482  -25.7097 C.3     1  UNL1        0.1123
     18 C         -61.8968  -46.6776  -25.9802 C.ar    1  UNL1        0.1318
     19 C         -60.8301  -46.7160  -26.8930 C.ar    1  UNL1        0.0343
     20 C         -60.3888  -45.5332  -27.4881 C.ar    1  UNL1        0.0083
     21 C         -60.9903  -44.3091  -27.1597 C.ar    1  UNL1        0.0906
     22 C         -62.0644  -44.3157  -26.2564 C.ar    1  UNL1        0.1041
     23 N         -62.4786  -45.4806  -25.6916 N.ar    1  UNL1       -0.2292
     24 C         -60.5563  -43.0318  -27.8323 C.3     1  UNL1        0.4200
     25 F         -61.6077  -42.4677  -28.5341 F       1  UNL1       -0.1658
     26 F         -59.5250  -43.3076  -28.7103 F       1  UNL1       -0.1658
     27 F         -60.1177  -42.1117  -26.8958 F       1  UNL1       -0.1658
     28 C         -67.1342  -56.4718  -21.0584 C.3     1  UNL1        0.1535
     29 C         -67.6014  -56.2119  -19.6470 C.2     1  UNL1        0.2443
     30 O         -66.7821  -55.8099  -18.7759 O.2     1  UNL1       -0.2730
     31 N         -68.9780  -56.4351  -19.3023 N.am    1  UNL1       -0.2825
     32 H         -69.5545  -57.0099  -19.9579 H       1  UNL1        0.1549
     33 C         -69.5870  -56.0021  -18.0732 C.ar    1  UNL1        0.0535
     34 C         -69.1875  -56.5890  -16.8645 C.ar    1  UNL1        0.0353
     35 C         -69.7916  -56.1924  -15.6692 C.ar    1  UNL1        0.1002
     36 N         -70.7743  -55.2536  -15.6805 N.ar    1  UNL1       -0.2422
     37 C         -71.1973  -54.6803  -16.8379 C.ar    1  UNL1        0.1002
     38 C         -70.6186  -55.0471  -18.0556 C.ar    1  UNL1        0.0353
     39 C         -68.2748  -57.0128  -21.9441 C.3     1  UNL1        0.0569
     40 C         -68.9415  -55.0597  -26.4611 C.ar    1  UNL1        0.0228
     41 C         -69.9988  -54.1885  -26.1154 C.ar    1  UNL1       -0.0004
     42 C         -70.4792  -54.1298  -24.7898 C.ar    1  UNL1       -0.0002
     43 C         -69.9074  -54.9303  -23.7877 C.ar    1  UNL1        0.0011
     44 C         -68.8601  -55.7774  -24.1477 C.ar    1  UNL1        0.0129
     45 C         -68.1137  -56.6680  -23.4000 C.ar    1  UNL1       -0.0017
     46 C         -67.2042  -57.2331  -24.2870 C.ar    1  UNL1        0.0681
     47 N         -67.3740  -56.7228  -25.5272 N.ar    1  UNL1       -0.3524
     48 C         -68.3869  -55.8394  -25.4351 C.ar    1  UNL1        0.0546
     49 H         -66.8245  -56.9743  -26.3784 H       1  UNL1        0.1660
     50 C         -68.4101  -55.1148  -27.8653 C.3     1  UNL1        0.1701
     51 C         -70.1070  -56.0245  -29.1275 C.3     1  UNL1        0.1746
     52 O         -68.8802  -56.2918  -28.4866 O.3     1  UNL1       -0.3463
@<TRIPOS>BOND
     1    51    52    1
     2    52    50    1
     3    50    40    1
     4    40    41   ar
     5    41    42   ar
     6    42    43   ar
     7    43    44   ar
     8    44    45   ar
     9    45    39    1
    10    39    28    1
    11    28     1    1
    12     1     2   am
    13     2     3    2
    14     2     5    1
    15     5     6   ar
    16     6     7   ar
    17     7     8   ar
    18     8    12    1
    19    12    13    1
    20    13    14    1
    21    14    15    1
    22    15    18    1
    23    18    19   ar
    24    19    20   ar
    25    20    21   ar
    26    21    24    1
    27    24    25    1
    28    24    26    1
    29    24    27    1
    30    21    22   ar
    31    22    23   ar
    32    15    16    1
    33    16    17    1
    34     8     9   ar
    35     9    10   ar
    36    10    11    1
    37    28    29    1
    38    29    30    2
    39    29    31   am
    40    31    33    1
    41    33    34   ar
    42    34    35   ar
    43    35    36   ar
    44    36    37   ar
    45    37    38   ar
    46    45    46   ar
    47    46    47   ar
    48    47    48   ar
    49    48    40   ar
    50    48    44   ar
    51    10     5   ar
    52    38    33   ar
    53    17    12    1
    54    23    18   ar
    55     1     4    1
    56    31    32    1
    57    47    49    1
@<TRIPOS>MOLECULE
*****
 52 57 0 0 0
SMALL
GASTEIGER

@<TRIPOS>ATOM
      1 N         -62.1130  -46.8750  -25.9249 N.am    1  UNL1       -0.2945
      2 C         -61.1594  -46.1891  -25.0960 C.2     1  UNL1        0.2483
      3 O         -59.9661  -46.5953  -25.0474 O.2     1  UNL1       -0.2701
      4 H         -63.1281  -46.7022  -25.7519 H       1  UNL1        0.1501
      5 C         -61.5663  -45.0148  -24.2851 C.ar    1  UNL1        0.0808
      6 C         -61.8487  -45.1600  -22.9150 C.ar    1  UNL1        0.0080
      7 C         -62.2367  -44.0594  -22.1475 C.ar    1  UNL1        0.0148
      8 C         -62.3560  -42.7911  -22.7326 C.ar    1  UNL1        0.0502
      9 C         -62.0802  -42.6407  -24.1005 C.ar    1  UNL1        0.0443
     10 C         -61.6928  -43.7401  -24.8732 C.ar    1  UNL1        0.1457
     11 F         -61.4215  -43.5490  -26.1894 F       1  UNL1       -0.2040
     12 N         -62.7519  -41.6603  -21.9335 N.pl3   1  UNL1       -0.3040
     13 C         -64.1700  -41.3867  -21.6768 C.3     1  UNL1        0.1123
     14 C         -64.4332  -39.8786  -21.7087 C.3     1  UNL1        0.1136
     15 N         -63.4262  -39.1620  -20.9126 N.pl3   1  UNL1       -0.2897
     16 C         -62.0096  -39.4543  -21.1690 C.3     1  UNL1        0.1136
     17 C         -61.7629  -40.9601  -21.1075 C.3     1  UNL1        0.1123
     18 C         -63.7815  -38.0103  -20.1207 C.ar    1  UNL1        0.1318
     19 C         -62.9849  -36.8537  -20.1147 C.ar    1  UNL1        0.0343
     20 C         -63.3618  -35.7608  -19.3327 C.ar    1  UNL1        0.0083
     21 C         -64.5165  -35.8243  -18.5386 C.ar    1  UNL1        0.0906
     22 C         -65.2945  -36.9913  -18.5861 C.ar    1  UNL1        0.1041
     23 N         -64.9088  -38.0419  -19.3573 N.ar    1  UNL1       -0.2292
     24 C         -64.9614  -34.6334  -17.7284 C.3     1  UNL1        0.4200
     25 F         -65.0592  -34.9638  -16.3877 F       1  UNL1       -0.1658
     26 F         -66.1980  -34.2120  -18.1801 F       1  UNL1       -0.1658
     27 F         -64.0570  -33.5930  -17.8530 F       1  UNL1       -0.1658
     28 C         -61.7424  -47.9942  -26.8007 C.3     1  UNL1        0.1535
     29 C         -61.5078  -49.2496  -25.9964 C.2     1  UNL1        0.2443
     30 O         -60.5155  -49.9857  -26.2522 O.2     1  UNL1       -0.2730
     31 N         -62.4250  -49.6038  -24.9491 N.am    1  UNL1       -0.2825
     32 H         -63.3578  -49.1321  -24.9420 H       1  UNL1        0.1549
     33 C         -62.1820  -50.6295  -23.9704 C.ar    1  UNL1        0.0535
     34 C         -61.0055  -50.5880  -23.2095 C.ar    1  UNL1        0.0353
     35 C         -60.7496  -51.5939  -22.2746 C.ar    1  UNL1        0.1002
     36 N         -61.6299  -52.6172  -22.1160 N.ar    1  UNL1       -0.2422
     37 C         -62.7695  -52.6961  -22.8523 C.ar    1  UNL1        0.1002
     38 C         -63.0646  -51.7100  -23.7971 C.ar    1  UNL1        0.0353
     39 C         -62.8070  -48.2112  -27.8951 C.3     1  UNL1        0.0569
     40 C         -65.2483  -44.8349  -30.5975 C.ar    1  UNL1        0.0228
     41 C         -65.6338  -45.7014  -31.6447 C.ar    1  UNL1       -0.0004
     42 C         -65.2749  -47.0661  -31.6190 C.ar    1  UNL1       -0.0002
     43 C         -64.5358  -47.5892  -30.5456 C.ar    1  UNL1        0.0011
     44 C         -64.1721  -46.7192  -29.5185 C.ar    1  UNL1        0.0129
     45 C         -63.4566  -46.9344  -28.3562 C.ar    1  UNL1       -0.0017
     46 C         -63.4076  -45.7032  -27.7120 C.ar    1  UNL1        0.0681
     47 N         -64.0584  -44.7650  -28.4355 N.ar    1  UNL1       -0.3524
     48 C         -64.5181  -45.3907  -29.5364 C.ar    1  UNL1        0.0546
     49 H         -64.1719  -43.7588  -28.1813 H       1  UNL1        0.1660
     50 C         -65.6426  -43.3851  -30.6063 C.3     1  UNL1        0.1701
     51 C         -64.9468  -41.2582  -30.0655 C.3     1  UNL1        0.1746
     52 O         -64.6057  -42.6254  -30.0231 O.3     1  UNL1       -0.3463
@<TRIPOS>BOND
     1    51    52    1
     2    52    50    1
     3    50    40    1
     4    40    41   ar
     5    41    42   ar
     6    42    43   ar
     7    43    44   ar
     8    44    45   ar
     9    45    39    1
    10    39    28    1
    11    28     1    1
    12     1     2   am
    13     2     3    2
    14     2     5    1
    15     5     6   ar
    16     6     7   ar
    17     7     8   ar
    18     8    12    1
    19    12    13    1
    20    13    14    1
    21    14    15    1
    22    15    18    1
    23    18    19   ar
    24    19    20   ar
    25    20    21   ar
    26    21    24    1
    27    24    25    1
    28    24    26    1
    29    24    27    1
    30    21    22   ar
    31    22    23   ar
    32    15    16    1
    33    16    17    1
    34     8     9   ar
    35     9    10   ar
    36    10    11    1
    37    28    29    1
    38    29    30    2
    39    29    31   am
    40    31    33    1
    41    33    34   ar
    42    34    35   ar
    43    35    36   ar
    44    36    37   ar
    45    37    38   ar
    46    45    46   ar
    47    46    47   ar
    48    47    48   ar
    49    48    40   ar
    50    48    44   ar
    51    10     5   ar
    52    38    33   ar
    53    17    12    1
    54    23    18   ar
    55     1     4    1
    56    31    32    1
    57    47    49    1
