@<TRIPOS>MOLECULE
*****
 44 48 0 0 0
SMALL
GASTEIGER

@<TRIPOS>ATOM
      1 C         -26.4949   51.2640   -8.3135 C.3     1  UNL1        0.1562
      2 C         -27.3827   51.8088   -7.1926 C.3     1  UNL1        0.0622
      3 C         -28.0167   50.5774   -6.5205 C.3     1  UNL1        0.1294
      4 O         -29.3742   50.8409   -6.2528 O.3     1  UNL1       -0.3808
      5 C         -27.9190   49.4541   -7.5795 C.3     1  UNL1        0.1264
      6 N         -26.9251   49.8898   -8.5522 N.am    1  UNL1       -0.2544
      7 C         -26.1398   48.9748   -9.3460 C.2     1  UNL1        0.3081
      8 O         -25.1795   49.4135  -10.0345 O.2     1  UNL1       -0.2522
      9 N         -26.3455   47.5575   -9.2812 N.am    1  UNL1       -0.2681
     10 H         -29.7713   50.0067   -5.8866 H       1  UNL1        0.2107
     11 H         -25.4999   46.9504   -9.1890 H       1  UNL1        0.1564
     12 C         -27.2473   50.2516   -5.2268 C.ar    1  UNL1        0.0310
     13 C         -26.3877   51.2095   -4.6412 C.ar    1  UNL1        0.0026
     14 C         -25.7241   50.9411   -3.4418 C.ar    1  UNL1        0.0295
     15 C         -25.9267   49.7281   -2.7855 C.ar    1  UNL1        0.1424
     16 F         -25.2848   49.4723   -1.6189 F       1  UNL1       -0.2041
     17 C         -26.8085   48.7882   -3.3181 C.ar    1  UNL1        0.0590
     18 C         -27.4789   49.0467   -4.5184 C.ar    1  UNL1        0.1406
     19 F         -28.3698   48.1249   -4.9630 F       1  UNL1       -0.2044
     20 C         -27.6261   46.9201   -9.3826 C.ar    1  UNL1        0.0520
     21 C         -28.0773   46.1196   -8.3255 C.ar    1  UNL1        0.0156
     22 C         -29.2983   45.4497   -8.4184 C.ar    1  UNL1        0.0131
     23 C         -30.0660   45.5419   -9.5832 C.ar    1  UNL1        0.0631
     24 CL        -31.5840   44.6583   -9.6655 Cl      1  UNL1       -0.0818
     25 C         -29.6073   46.3182  -10.6623 C.ar    1  UNL1        0.0418
     26 I         -30.6618   46.3879  -12.4965 I       1  UNL1       -0.0416
     27 C         -28.3990   47.0209  -10.5514 C.ar    1  UNL1        0.0213
     28 O         -27.5142   51.9853  -10.3449 O.2     1  UNL1       -0.2730
     29 C         -26.5389   52.1212   -9.5592 C.2     1  UNL1        0.2454
     30 N         -25.5611   53.1334   -9.8425 N.am    1  UNL1       -0.2680
     31 H         -25.9190   54.0400  -10.2201 H       1  UNL1        0.1563
     32 C         -24.1471   52.8923   -9.9057 C.ar    1  UNL1        0.1346
     33 C         -23.5882   51.8232   -9.1945 C.ar    1  UNL1        0.0406
     34 C         -22.2065   51.6285   -9.2176 C.ar    1  UNL1        0.0736
     35 C         -21.3851   52.4925   -9.9575 C.ar    1  UNL1        0.2466
     36 C         -21.9851   53.5488  -10.6570 C.ar    1  UNL1        0.1691
     37 N         -23.3307   53.7251  -10.6050 N.ar    1  UNL1       -0.2228
     38 N         -19.9597   52.2811  -10.0273 N.am    1  UNL1       -0.0841
     39 C         -19.3665   52.1863  -11.2579 C.2     1  UNL1        0.2905
     40 C         -17.9935   51.9623  -11.3726 C.2     1  UNL1        0.0758
     41 C         -17.2216   51.8396  -10.2204 C.2     1  UNL1        0.0161
     42 C         -17.8258   51.9461   -8.9697 C.2     1  UNL1        0.1156
     43 C         -19.2039   52.1728   -8.8847 C.2     1  UNL1        0.4230
     44 O         -19.7345   52.2913   -7.7462 O.2     1  UNL1       -0.2135
@<TRIPOS>BOND
     1    28    29    2
     2    29    30   am
     3    30    32    1
     4    32    33   ar
     5    33    34   ar
     6    34    35   ar
     7    35    38    1
     8    38    39    1
     9    39    40    2
    10    40    41    1
    11    41    42    2
    12    42    43    1
    13    43    44    2
    14    35    36   ar
    15    36    37   ar
    16    29     1    1
    17     1     2    1
    18     2     3    1
    19     3     4    1
    20     3    12    1
    21    12    13   ar
    22    13    14   ar
    23    14    15   ar
    24    15    16    1
    25    15    17   ar
    26    17    18   ar
    27    18    19    1
    28     3     5    1
    29     5     6    1
    30     6     7   am
    31     7     8    2
    32     7     9   am
    33     9    20    1
    34    20    21   ar
    35    21    22   ar
    36    22    23   ar
    37    23    24    1
    38    23    25   ar
    39    25    26    1
    40    25    27   ar
    41    37    32   ar
    42     6     1    1
    43    27    20   ar
    44    43    38    1
    45    18    12   ar
    46    30    31    1
    47     4    10    1
    48     9    11    1
@<TRIPOS>MOLECULE
*****
 44 48 0 0 0
SMALL
GASTEIGER

@<TRIPOS>ATOM
      1 C         -29.3606   48.6193   -9.4680 C.3     1  UNL1        0.1562
      2 C         -29.1705   50.1369   -9.4201 C.3     1  UNL1        0.0622
      3 C         -28.2326   50.4072   -8.2296 C.3     1  UNL1        0.1294
      4 O         -28.6974   51.5294   -7.5166 O.3     1  UNL1       -0.3808
      5 C         -28.3574   49.1520   -7.3343 C.3     1  UNL1        0.1264
      6 N         -28.9402   48.1077   -8.1671 N.am    1  UNL1       -0.2544
      7 C         -28.7221   46.6990   -7.9391 C.2     1  UNL1        0.3081
      8 O         -29.1089   45.8617   -8.7981 O.2     1  UNL1       -0.2522
      9 N         -27.9676   46.2285   -6.8145 N.am    1  UNL1       -0.2681
     10 H         -28.1156   51.6346   -6.7178 H       1  UNL1        0.2107
     11 H         -27.2411   45.4985   -6.9917 H       1  UNL1        0.1564
     12 C         -26.8011   50.6328   -8.7512 C.ar    1  UNL1        0.0310
     13 C         -26.5657   50.8689  -10.1253 C.ar    1  UNL1        0.0026
     14 C         -25.2769   51.1235  -10.5998 C.ar    1  UNL1        0.0295
     15 C         -24.2025   51.1795   -9.7135 C.ar    1  UNL1        0.1424
     16 F         -22.9532   51.4316  -10.1765 F       1  UNL1       -0.2041
     17 C         -24.4179   50.9997   -8.3475 C.ar    1  UNL1        0.0590
     18 C         -25.7045   50.7447   -7.8611 C.ar    1  UNL1        0.1406
     19 F         -25.8692   50.6357   -6.5186 F       1  UNL1       -0.2044
     20 C         -28.1776   46.6576   -5.4624 C.ar    1  UNL1        0.0520
     21 C         -29.4362   46.4766   -4.8751 C.ar    1  UNL1        0.0156
     22 C         -29.6813   46.9282   -3.5773 C.ar    1  UNL1        0.0131
     23 C         -28.6833   47.5989   -2.8641 C.ar    1  UNL1        0.0631
     24 CL        -29.0464   48.1743   -1.2427 Cl      1  UNL1       -0.0818
     25 C         -27.4259   47.8130   -3.4563 C.ar    1  UNL1        0.0418
     26 I         -25.9230   48.9361   -2.4758 I       1  UNL1       -0.0416
     27 C         -27.1702   47.3244   -4.7454 C.ar    1  UNL1        0.0213
     28 O         -31.3963   47.4491   -9.0528 O.2     1  UNL1       -0.2730
     29 C         -30.7743   48.2212   -9.8302 C.2     1  UNL1        0.2454
     30 N         -31.4613   48.7456  -10.9765 N.am    1  UNL1       -0.2680
     31 H         -32.4635   49.0105  -10.8431 H       1  UNL1        0.1563
     32 C         -30.9610   48.6692  -12.3201 C.ar    1  UNL1        0.1346
     33 C         -31.0164   49.7950  -13.1513 C.ar    1  UNL1        0.0406
     34 C         -30.5782   49.6972  -14.4726 C.ar    1  UNL1        0.0736
     35 C         -30.0759   48.4814  -14.9606 C.ar    1  UNL1        0.2466
     36 C         -30.0358   47.3796  -14.0950 C.ar    1  UNL1        0.1691
     37 N         -30.4831   47.4977  -12.8181 N.ar    1  UNL1       -0.2228
     38 N         -29.5791   48.3734  -16.3107 N.am    1  UNL1       -0.0841
     39 C         -30.0831   47.3922  -17.1224 C.2     1  UNL1        0.2905
     40 C         -29.6175   47.2386  -18.4293 C.2     1  UNL1        0.0758
     41 C         -28.6334   48.0979  -18.9106 C.2     1  UNL1        0.0161
     42 C         -28.1293   49.1014  -18.0863 C.2     1  UNL1        0.1156
     43 C         -28.6160   49.2335  -16.7811 C.2     1  UNL1        0.4230
     44 O         -28.1684   50.1616  -16.0531 O.2     1  UNL1       -0.2135
@<TRIPOS>BOND
     1    28    29    2
     2    29    30   am
     3    30    32    1
     4    32    33   ar
     5    33    34   ar
     6    34    35   ar
     7    35    38    1
     8    38    39    1
     9    39    40    2
    10    40    41    1
    11    41    42    2
    12    42    43    1
    13    43    44    2
    14    35    36   ar
    15    36    37   ar
    16    29     1    1
    17     1     2    1
    18     2     3    1
    19     3     4    1
    20     3    12    1
    21    12    13   ar
    22    13    14   ar
    23    14    15   ar
    24    15    16    1
    25    15    17   ar
    26    17    18   ar
    27    18    19    1
    28     3     5    1
    29     5     6    1
    30     6     7   am
    31     7     8    2
    32     7     9   am
    33     9    20    1
    34    20    21   ar
    35    21    22   ar
    36    22    23   ar
    37    23    24    1
    38    23    25   ar
    39    25    26    1
    40    25    27   ar
    41    37    32   ar
    42     6     1    1
    43    27    20   ar
    44    43    38    1
    45    18    12   ar
    46    30    31    1
    47     4    10    1
    48     9    11    1
@<TRIPOS>MOLECULE
*****
 44 48 0 0 0
SMALL
GASTEIGER

@<TRIPOS>ATOM
      1 C         -30.0984   46.6679   -9.7245 C.3     1  UNL1        0.1562
      2 C         -31.2367   47.6725   -9.5338 C.3     1  UNL1        0.0622
      3 C         -30.6299   48.8550   -8.7569 C.3     1  UNL1        0.1294
      4 O         -31.5395   49.2778   -7.7681 O.3     1  UNL1       -0.3808
      5 C         -29.3712   48.2738   -8.0707 C.3     1  UNL1        0.1264
      6 N         -29.0602   47.0307   -8.7648 N.am    1  UNL1       -0.2544
      7 C         -27.7287   46.4778   -8.8405 C.2     1  UNL1        0.3081
      8 O         -27.5030   45.4994   -9.6023 O.2     1  UNL1       -0.2522
      9 N         -26.6230   47.0874   -8.1616 N.am    1  UNL1       -0.2681
     10 H         -31.0925   49.9912   -7.2400 H       1  UNL1        0.2107
     11 H         -25.7380   47.2191   -8.7016 H       1  UNL1        0.1564
     12 C         -30.3055   49.9960   -9.7393 C.ar    1  UNL1        0.0310
     13 C         -31.1862   50.3009  -10.8027 C.ar    1  UNL1        0.0026
     14 C         -30.9251   51.3652  -11.6688 C.ar    1  UNL1        0.0295
     15 C         -29.8006   52.1659  -11.4755 C.ar    1  UNL1        0.1424
     16 F         -29.5523   53.2012  -12.3150 F       1  UNL1       -0.2041
     17 C         -28.9445   51.9153  -10.4035 C.ar    1  UNL1        0.0590
     18 C         -29.1966   50.8524   -9.5295 C.ar    1  UNL1        0.1406
     19 F         -28.3662   50.6876   -8.4691 F       1  UNL1       -0.2044
     20 C         -26.6376   47.4820   -6.7830 C.ar    1  UNL1        0.0520
     21 C         -26.7516   48.8404   -6.4616 C.ar    1  UNL1        0.0156
     22 C         -26.7205   49.2558   -5.1295 C.ar    1  UNL1        0.0131
     23 C         -26.5381   48.3229   -4.1042 C.ar    1  UNL1        0.0631
     24 CL        -26.4776   48.8956   -2.4429 Cl      1  UNL1       -0.0818
     25 C         -26.3917   46.9600   -4.4183 C.ar    1  UNL1        0.0418
     26 I         -25.9815   45.5218   -2.9202 I       1  UNL1       -0.0416
     27 C         -26.4619   46.5412   -5.7546 C.ar    1  UNL1        0.0213
     28 O         -31.3159   44.7580  -10.4698 O.2     1  UNL1       -0.2730
     29 C         -30.5583   45.2338   -9.5828 C.2     1  UNL1        0.2454
     30 N         -30.1070   44.3723   -8.5268 N.am    1  UNL1       -0.2680
     31 H         -29.8698   43.3893   -8.7913 H       1  UNL1        0.1563
     32 C         -30.2251   44.6808   -7.1296 C.ar    1  UNL1        0.1346
     33 C         -31.3789   45.3122   -6.6486 C.ar    1  UNL1        0.0406
     34 C         -31.4628   45.6575   -5.2991 C.ar    1  UNL1        0.0736
     35 C         -30.4019   45.3638   -4.4290 C.ar    1  UNL1        0.2466
     36 C         -29.2662   44.7291   -4.9506 C.ar    1  UNL1        0.1691
     37 N         -29.2038   44.4180   -6.2712 N.ar    1  UNL1       -0.2228
     38 N         -30.4889   45.6751   -3.0230 N.am    1  UNL1       -0.0841
     39 C         -31.0115   44.7386   -2.1713 C.2     1  UNL1        0.2905
     40 C         -31.1328   45.0045   -0.8063 C.2     1  UNL1        0.0758
     41 C         -30.7118   46.2347   -0.3088 C.2     1  UNL1        0.0161
     42 C         -30.1716   47.1821   -1.1757 C.2     1  UNL1        0.1156
     43 C         -30.0601   46.8877   -2.5390 C.2     1  UNL1        0.4230
     44 O         -29.5469   47.7450   -3.3092 O.2     1  UNL1       -0.2135
@<TRIPOS>BOND
     1    28    29    2
     2    29    30   am
     3    30    32    1
     4    32    33   ar
     5    33    34   ar
     6    34    35   ar
     7    35    38    1
     8    38    39    1
     9    39    40    2
    10    40    41    1
    11    41    42    2
    12    42    43    1
    13    43    44    2
    14    35    36   ar
    15    36    37   ar
    16    29     1    1
    17     1     2    1
    18     2     3    1
    19     3     4    1
    20     3    12    1
    21    12    13   ar
    22    13    14   ar
    23    14    15   ar
    24    15    16    1
    25    15    17   ar
    26    17    18   ar
    27    18    19    1
    28     3     5    1
    29     5     6    1
    30     6     7   am
    31     7     8    2
    32     7     9   am
    33     9    20    1
    34    20    21   ar
    35    21    22   ar
    36    22    23   ar
    37    23    24    1
    38    23    25   ar
    39    25    26    1
    40    25    27   ar
    41    37    32   ar
    42     6     1    1
    43    27    20   ar
    44    43    38    1
    45    18    12   ar
    46    30    31    1
    47     4    10    1
    48     9    11    1
@<TRIPOS>MOLECULE
*****
 44 48 0 0 0
SMALL
GASTEIGER

@<TRIPOS>ATOM
      1 C         -29.3827   49.7677   -8.8464 C.3     1  UNL1        0.1562
      2 C         -28.9790   51.1105   -8.2337 C.3     1  UNL1        0.0622
      3 C         -27.8574   50.7949   -7.2276 C.3     1  UNL1        0.1294
      4 O         -28.0591   51.5483   -6.0547 O.3     1  UNL1       -0.3808
      5 C         -28.0306   49.2931   -6.8998 C.3     1  UNL1        0.1264
      6 N         -28.8620   48.7334   -7.9577 N.am    1  UNL1       -0.2544
      7 C         -28.8123   47.3460   -8.3537 C.2     1  UNL1        0.3081
      8 O         -29.4264   46.9712   -9.3885 O.2     1  UNL1       -0.2522
      9 N         -27.9826   46.3989   -7.6681 N.am    1  UNL1       -0.2681
     10 H         -27.3636   51.2708   -5.4012 H       1  UNL1        0.2107
     11 H         -27.3959   45.7600   -8.2509 H       1  UNL1        0.1564
     12 C         -26.4943   51.1164   -7.8682 C.ar    1  UNL1        0.0310
     13 C         -25.3359   50.3982   -7.4918 C.ar    1  UNL1        0.0026
     14 C         -24.1051   50.6490   -8.1027 C.ar    1  UNL1        0.0295
     15 C         -24.0086   51.5960   -9.1211 C.ar    1  UNL1        0.1424
     16 F         -22.8134   51.8339   -9.7155 F       1  UNL1       -0.2041
     17 C         -25.1475   52.2810   -9.5437 C.ar    1  UNL1        0.0590
     18 C         -26.3854   52.0374   -8.9393 C.ar    1  UNL1        0.1406
     19 F         -27.4723   52.6870   -9.4269 F       1  UNL1       -0.2044
     20 C         -27.9424   46.2403   -6.2435 C.ar    1  UNL1        0.0520
     21 C         -26.7642   46.5527   -5.5535 C.ar    1  UNL1        0.0156
     22 C         -26.6827   46.3624   -4.1732 C.ar    1  UNL1        0.0131
     23 C         -27.7645   45.8229   -3.4709 C.ar    1  UNL1        0.0631
     24 CL        -27.6062   45.5749   -1.7373 Cl      1  UNL1       -0.0818
     25 C         -28.9412   45.4770   -4.1591 C.ar    1  UNL1        0.0418
     26 I         -30.5595   44.5358   -3.1710 I       1  UNL1       -0.0416
     27 C         -29.0340   45.7053   -5.5394 C.ar    1  UNL1        0.0213
     28 O         -31.5825   49.1592   -8.1561 O.2     1  UNL1       -0.2730
     29 C         -30.8744   49.6562   -9.0720 C.2     1  UNL1        0.2454
     30 N         -31.5237   50.1620  -10.2482 N.am    1  UNL1       -0.2680
     31 H         -32.4296   50.6636  -10.1058 H       1  UNL1        0.1563
     32 C         -31.1659   49.7915  -11.5883 C.ar    1  UNL1        0.1346
     33 C         -31.3477   50.7017  -12.6370 C.ar    1  UNL1        0.0406
     34 C         -31.0484   50.3148  -13.9440 C.ar    1  UNL1        0.0736
     35 C         -30.5586   49.0257  -14.2029 C.ar    1  UNL1        0.2466
     36 C         -30.3892   48.1463  -13.1245 C.ar    1  UNL1        0.1691
     37 N         -30.7029   48.5431  -11.8641 N.ar    1  UNL1       -0.2228
     38 N         -30.2038   48.6229  -15.5420 N.am    1  UNL1       -0.0841
     39 C         -30.9151   47.6158  -16.1380 C.2     1  UNL1        0.2905
     40 C         -30.5939   47.1805  -17.4248 C.2     1  UNL1        0.0758
     41 C         -29.5412   47.7832  -18.1082 C.2     1  UNL1        0.0161
     42 C         -28.8254   48.8141  -17.5035 C.2     1  UNL1        0.1156
     43 C         -29.1707   49.2314  -16.2134 C.2     1  UNL1        0.4230
     44 O         -28.5300   50.1822  -15.6869 O.2     1  UNL1       -0.2135
@<TRIPOS>BOND
     1    28    29    2
     2    29    30   am
     3    30    32    1
     4    32    33   ar
     5    33    34   ar
     6    34    35   ar
     7    35    38    1
     8    38    39    1
     9    39    40    2
    10    40    41    1
    11    41    42    2
    12    42    43    1
    13    43    44    2
    14    35    36   ar
    15    36    37   ar
    16    29     1    1
    17     1     2    1
    18     2     3    1
    19     3     4    1
    20     3    12    1
    21    12    13   ar
    22    13    14   ar
    23    14    15   ar
    24    15    16    1
    25    15    17   ar
    26    17    18   ar
    27    18    19    1
    28     3     5    1
    29     5     6    1
    30     6     7   am
    31     7     8    2
    32     7     9   am
    33     9    20    1
    34    20    21   ar
    35    21    22   ar
    36    22    23   ar
    37    23    24    1
    38    23    25   ar
    39    25    26    1
    40    25    27   ar
    41    37    32   ar
    42     6     1    1
    43    27    20   ar
    44    43    38    1
    45    18    12   ar
    46    30    31    1
    47     4    10    1
    48     9    11    1
@<TRIPOS>MOLECULE
*****
 44 48 0 0 0
SMALL
GASTEIGER

@<TRIPOS>ATOM
      1 C         -28.8360   50.2599   -9.9031 C.3     1  UNL1        0.1562
      2 C         -28.2008   51.5887   -9.4883 C.3     1  UNL1        0.0622
      3 C         -27.0673   51.2276   -8.5112 C.3     1  UNL1        0.1294
      4 O         -27.0743   52.1356   -7.4345 O.3     1  UNL1       -0.3808
      5 C         -27.4307   49.8185   -7.9866 C.3     1  UNL1        0.1264
      6 N         -28.4074   49.2706   -8.9192 N.am    1  UNL1       -0.2544
      7 C         -28.5861   47.8548   -9.1378 C.2     1  UNL1        0.3081
      8 O         -29.3200   47.4581  -10.0825 O.2     1  UNL1       -0.2522
      9 N         -27.8544   46.8803   -8.3825 N.am    1  UNL1       -0.2681
     10 H         -26.3811   51.8349   -6.7889 H       1  UNL1        0.2107
     11 H         -27.4088   46.0958   -8.9098 H       1  UNL1        0.1564
     12 C         -25.7213   51.2612   -9.2590 C.ar    1  UNL1        0.0310
     13 C         -25.6748   51.5482  -10.6427 C.ar    1  UNL1        0.0026
     14 C         -24.4553   51.6295  -11.3189 C.ar    1  UNL1        0.0295
     15 C         -23.2577   51.4583  -10.6265 C.ar    1  UNL1        0.1424
     16 F         -22.0753   51.5424  -11.2846 F       1  UNL1       -0.2041
     17 C         -23.2767   51.2240   -9.2518 C.ar    1  UNL1        0.0590
     18 C         -24.4923   51.1413   -8.5644 C.ar    1  UNL1        0.1406
     19 F         -24.4540   50.9705   -7.2188 F       1  UNL1       -0.2044
     20 C         -27.7359   46.8863   -6.9534 C.ar    1  UNL1        0.0520
     21 C         -26.4628   46.9518   -6.3730 C.ar    1  UNL1        0.0156
     22 C         -26.3165   46.9111   -4.9855 C.ar    1  UNL1        0.0131
     23 C         -27.4374   46.7673   -4.1624 C.ar    1  UNL1        0.0631
     24 CL        -27.2021   46.6929   -2.4215 Cl      1  UNL1       -0.0818
     25 C         -28.7174   46.6697   -4.7366 C.ar    1  UNL1        0.0418
     26 I         -30.4342   46.3189   -3.5487 I       1  UNL1       -0.0416
     27 C         -28.8649   46.7496   -6.1286 C.ar    1  UNL1        0.0213
     28 O         -31.0321   50.3670   -8.9803 O.2     1  UNL1       -0.2730
     29 C         -30.3404   50.3498  -10.0332 C.2     1  UNL1        0.2454
     30 N         -31.0052   50.4946  -11.2974 N.am    1  UNL1       -0.2680
     31 H         -31.8011   51.1710  -11.3350 H       1  UNL1        0.1563
     32 C         -30.8370   49.5950  -12.4037 C.ar    1  UNL1        0.1346
     33 C         -30.1035   49.9981  -13.5266 C.ar    1  UNL1        0.0406
     34 C         -29.9906   49.1382  -14.6199 C.ar    1  UNL1        0.0736
     35 C         -30.5993   47.8744  -14.5887 C.ar    1  UNL1        0.2466
     36 C         -31.3224   47.5092  -13.4446 C.ar    1  UNL1        0.1691
     37 N         -31.4298   48.3713  -12.4007 N.ar    1  UNL1       -0.2228
     38 N         -30.4573   46.9561  -15.6922 N.am    1  UNL1       -0.0841
     39 C         -30.6274   45.6169  -15.4619 C.2     1  UNL1        0.2905
     40 C         -30.4801   44.6909  -16.4959 C.2     1  UNL1        0.0758
     41 C         -30.1617   45.1386  -17.7752 C.2     1  UNL1        0.0161
     42 C         -29.9988   46.5022  -18.0091 C.2     1  UNL1        0.1156
     43 C         -30.1544   47.4081  -16.9541 C.2     1  UNL1        0.4230
     44 O         -30.0280   48.6420  -17.1847 O.2     1  UNL1       -0.2135
@<TRIPOS>BOND
     1    28    29    2
     2    29    30   am
     3    30    32    1
     4    32    33   ar
     5    33    34   ar
     6    34    35   ar
     7    35    38    1
     8    38    39    1
     9    39    40    2
    10    40    41    1
    11    41    42    2
    12    42    43    1
    13    43    44    2
    14    35    36   ar
    15    36    37   ar
    16    29     1    1
    17     1     2    1
    18     2     3    1
    19     3     4    1
    20     3    12    1
    21    12    13   ar
    22    13    14   ar
    23    14    15   ar
    24    15    16    1
    25    15    17   ar
    26    17    18   ar
    27    18    19    1
    28     3     5    1
    29     5     6    1
    30     6     7   am
    31     7     8    2
    32     7     9   am
    33     9    20    1
    34    20    21   ar
    35    21    22   ar
    36    22    23   ar
    37    23    24    1
    38    23    25   ar
    39    25    26    1
    40    25    27   ar
    41    37    32   ar
    42     6     1    1
    43    27    20   ar
    44    43    38    1
    45    18    12   ar
    46    30    31    1
    47     4    10    1
    48     9    11    1
@<TRIPOS>MOLECULE
*****
 44 48 0 0 0
SMALL
GASTEIGER

@<TRIPOS>ATOM
      1 C         -28.0698   49.6331  -10.1435 C.3     1  UNL1        0.1562
      2 C         -27.7204   51.1155   -9.9959 C.3     1  UNL1        0.0622
      3 C         -26.6714   51.1916   -8.8717 C.3     1  UNL1        0.1294
      4 O         -26.9617   52.2893   -8.0381 O.3     1  UNL1       -0.3808
      5 C         -26.8571   49.8832   -8.0676 C.3     1  UNL1        0.1264
      6 N         -27.6068   48.9748   -8.9258 N.am    1  UNL1       -0.2544
      7 C         -27.5192   47.5373   -8.8255 C.2     1  UNL1        0.3081
      8 O         -28.0551   46.8173   -9.7104 O.2     1  UNL1       -0.2522
      9 N         -26.7341   46.9023   -7.8079 N.am    1  UNL1       -0.2681
     10 H         -26.3129   52.2695   -7.2856 H       1  UNL1        0.2107
     11 H         -26.1027   46.1228   -8.1011 H       1  UNL1        0.1564
     12 C         -25.2683   51.3205   -9.4933 C.ar    1  UNL1        0.0310
     13 C         -25.1153   51.6348  -10.8634 C.ar    1  UNL1        0.0026
     14 C         -23.8472   51.8022  -11.4247 C.ar    1  UNL1        0.0295
     15 C         -22.7086   51.6916  -10.6283 C.ar    1  UNL1        0.1424
     16 F         -21.4791   51.8593  -11.1750 F       1  UNL1       -0.2041
     17 C         -22.8367   51.4317   -9.2641 C.ar    1  UNL1        0.0590
     18 C         -24.1018   51.2629   -8.6913 C.ar    1  UNL1        0.1406
     19 F         -24.1743   51.0704   -7.3501 F       1  UNL1       -0.2044
     20 C         -26.7947   47.2338   -6.4141 C.ar    1  UNL1        0.0520
     21 C         -27.0671   48.5547   -6.0364 C.ar    1  UNL1        0.0156
     22 C         -27.0848   48.9143   -4.6879 C.ar    1  UNL1        0.0131
     23 C         -26.7942   47.9666   -3.7019 C.ar    1  UNL1        0.0631
     24 CL        -26.8010   48.4718   -2.0177 Cl      1  UNL1       -0.0818
     25 C         -26.4891   46.6447   -4.0721 C.ar    1  UNL1        0.0418
     26 I         -25.9132   45.2024   -2.6337 I       1  UNL1       -0.0416
     27 C         -26.5100   46.2774   -5.4251 C.ar    1  UNL1        0.0213
     28 O         -30.0513   49.9438  -11.4332 O.2     1  UNL1       -0.2730
     29 C         -29.5407   49.4063  -10.4146 C.2     1  UNL1        0.2454
     30 N         -30.3573   48.5449   -9.6071 N.am    1  UNL1       -0.2680
     31 H         -31.0268   47.9219  -10.1132 H       1  UNL1        0.1563
     32 C         -30.5108   48.6800   -8.1859 C.ar    1  UNL1        0.1346
     33 C         -30.5197   49.9530   -7.6021 C.ar    1  UNL1        0.0406
     34 C         -30.6146   50.0735   -6.2150 C.ar    1  UNL1        0.0736
     35 C         -30.7112   48.9264   -5.4128 C.ar    1  UNL1        0.2466
     36 C         -30.7009   47.6715   -6.0374 C.ar    1  UNL1        0.1691
     37 N         -30.5918   47.5819   -7.3881 N.ar    1  UNL1       -0.2228
     38 N         -30.8528   49.0332   -3.9811 N.am    1  UNL1       -0.0841
     39 C         -31.4424   50.1534   -3.4585 C.2     1  UNL1        0.2905
     40 C         -31.5824   50.3079   -2.0782 C.2     1  UNL1        0.0758
     41 C         -31.1207   49.3073   -1.2274 C.2     1  UNL1        0.0161
     42 C         -30.5300   48.1643   -1.7618 C.2     1  UNL1        0.1156
     43 C         -30.4046   48.0353   -3.1494 C.2     1  UNL1        0.4230
     44 O         -29.8898   46.9846   -3.6213 O.2     1  UNL1       -0.2135
@<TRIPOS>BOND
     1    28    29    2
     2    29    30   am
     3    30    32    1
     4    32    33   ar
     5    33    34   ar
     6    34    35   ar
     7    35    38    1
     8    38    39    1
     9    39    40    2
    10    40    41    1
    11    41    42    2
    12    42    43    1
    13    43    44    2
    14    35    36   ar
    15    36    37   ar
    16    29     1    1
    17     1     2    1
    18     2     3    1
    19     3     4    1
    20     3    12    1
    21    12    13   ar
    22    13    14   ar
    23    14    15   ar
    24    15    16    1
    25    15    17   ar
    26    17    18   ar
    27    18    19    1
    28     3     5    1
    29     5     6    1
    30     6     7   am
    31     7     8    2
    32     7     9   am
    33     9    20    1
    34    20    21   ar
    35    21    22   ar
    36    22    23   ar
    37    23    24    1
    38    23    25   ar
    39    25    26    1
    40    25    27   ar
    41    37    32   ar
    42     6     1    1
    43    27    20   ar
    44    43    38    1
    45    18    12   ar
    46    30    31    1
    47     4    10    1
    48     9    11    1
@<TRIPOS>MOLECULE
*****
 44 48 0 0 0
SMALL
GASTEIGER

@<TRIPOS>ATOM
      1 C         -28.1946   49.8972  -10.0137 C.3     1  UNL1        0.1562
      2 C         -27.8081   51.3681   -9.8452 C.3     1  UNL1        0.0622
      3 C         -26.7099   51.3948   -8.7667 C.3     1  UNL1        0.1294
      4 O         -26.9406   52.4764   -7.8945 O.3     1  UNL1       -0.3808
      5 C         -26.8877   50.0703   -7.9877 C.3     1  UNL1        0.1264
      6 N         -27.6929   49.1991   -8.8341 N.am    1  UNL1       -0.2544
      7 C         -27.6311   47.7580   -8.7732 C.2     1  UNL1        0.3081
      8 O         -28.2200   47.0716   -9.6510 O.2     1  UNL1       -0.2522
      9 N         -26.8159   47.0818   -7.8070 N.am    1  UNL1       -0.2681
     10 H         -26.2602   52.4246   -7.1719 H       1  UNL1        0.2107
     11 H         -26.2144   46.2977   -8.1468 H       1  UNL1        0.1564
     12 C         -25.3327   51.5116   -9.4462 C.ar    1  UNL1        0.0310
     13 C         -24.1524   51.5822   -8.6708 C.ar    1  UNL1        0.0026
     14 C         -22.8960   51.6385   -9.2786 C.ar    1  UNL1        0.0295
     15 C         -22.7872   51.5939  -10.6675 C.ar    1  UNL1        0.1424
     16 F         -21.5660   51.6440  -11.2545 F       1  UNL1       -0.2041
     17 C         -23.9344   51.4738  -11.4514 C.ar    1  UNL1        0.0590
     18 C         -25.1977   51.4159  -10.8533 C.ar    1  UNL1        0.1406
     19 F         -26.2767   51.2401  -11.6570 F       1  UNL1       -0.2044
     20 C         -26.8089   47.3788   -6.4041 C.ar    1  UNL1        0.0520
     21 C         -27.0237   48.6973   -5.9831 C.ar    1  UNL1        0.0156
     22 C         -26.9747   49.0222   -4.6265 C.ar    1  UNL1        0.0131
     23 C         -26.6741   48.0409   -3.6771 C.ar    1  UNL1        0.0631
     24 CL        -26.5960   48.5023   -1.9822 Cl      1  UNL1       -0.0818
     25 C         -26.4264   46.7203   -4.0922 C.ar    1  UNL1        0.0418
     26 I         -25.8379   45.2243   -2.7149 I       1  UNL1       -0.0416
     27 C         -26.5143   46.3889   -5.4518 C.ar    1  UNL1        0.0213
     28 O         -30.2341   50.3259  -11.1724 O.2     1  UNL1       -0.2730
     29 C         -29.6803   49.7066  -10.2252 C.2     1  UNL1        0.2454
     30 N         -30.4670   48.7939   -9.4448 N.am    1  UNL1       -0.2680
     31 H         -31.1697   48.2184   -9.9619 H       1  UNL1        0.1563
     32 C         -30.5466   48.8211   -8.0115 C.ar    1  UNL1        0.1346
     33 C         -30.5585   50.0476   -7.3355 C.ar    1  UNL1        0.0406
     34 C         -30.5811   50.0643   -5.9403 C.ar    1  UNL1        0.0736
     35 C         -30.6025   48.8597   -5.2211 C.ar    1  UNL1        0.2466
     36 C         -30.5918   47.6542   -5.9364 C.ar    1  UNL1        0.1691
     37 N         -30.5539   47.6661   -7.2939 N.ar    1  UNL1       -0.2228
     38 N         -30.6689   48.8583   -3.7799 N.am    1  UNL1       -0.0841
     39 C         -30.2083   47.7626   -3.0996 C.2     1  UNL1        0.2905
     40 C         -30.2712   47.7098   -1.7061 C.2     1  UNL1        0.0758
     41 C         -30.8043   48.7874   -1.0040 C.2     1  UNL1        0.0161
     42 C         -31.2633   49.9049   -1.6977 C.2     1  UNL1        0.1156
     43 C         -31.1860   49.9312   -3.0945 C.2     1  UNL1        0.4230
     44 O         -31.5829   50.9591   -3.7091 O.2     1  UNL1       -0.2135
@<TRIPOS>BOND
     1    28    29    2
     2    29    30   am
     3    30    32    1
     4    32    33   ar
     5    33    34   ar
     6    34    35   ar
     7    35    38    1
     8    38    39    1
     9    39    40    2
    10    40    41    1
    11    41    42    2
    12    42    43    1
    13    43    44    2
    14    35    36   ar
    15    36    37   ar
    16    29     1    1
    17     1     2    1
    18     2     3    1
    19     3     4    1
    20     3    12    1
    21    12    13   ar
    22    13    14   ar
    23    14    15   ar
    24    15    16    1
    25    15    17   ar
    26    17    18   ar
    27    18    19    1
    28     3     5    1
    29     5     6    1
    30     6     7   am
    31     7     8    2
    32     7     9   am
    33     9    20    1
    34    20    21   ar
    35    21    22   ar
    36    22    23   ar
    37    23    24    1
    38    23    25   ar
    39    25    26    1
    40    25    27   ar
    41    37    32   ar
    42     6     1    1
    43    27    20   ar
    44    43    38    1
    45    18    12   ar
    46    30    31    1
    47     4    10    1
    48     9    11    1
@<TRIPOS>MOLECULE
*****
 44 48 0 0 0
SMALL
GASTEIGER

@<TRIPOS>ATOM
      1 C         -29.3623   50.2074   -8.4890 C.3     1  UNL1        0.1562
      2 C         -28.1395   49.3912   -8.0649 C.3     1  UNL1        0.0622
      3 C         -27.4395   48.9709   -9.3701 C.3     1  UNL1        0.1294
      4 O         -27.0235   47.6295   -9.2637 O.3     1  UNL1       -0.3808
      5 C         -28.5341   49.0760  -10.4580 C.3     1  UNL1        0.1264
      6 N         -29.5931   49.9063   -9.8985 N.am    1  UNL1       -0.2544
      7 C         -30.4905   50.6967  -10.7072 C.2     1  UNL1        0.3081
      8 O         -31.2633   51.5240  -10.1531 O.2     1  UNL1       -0.2522
      9 N         -30.4444   50.6547  -12.1395 N.am    1  UNL1       -0.2681
     10 H         -26.6412   47.3673  -10.1428 H       1  UNL1        0.2107
     11 H         -30.4587   51.5664  -12.6501 H       1  UNL1        0.1564
     12 C         -26.2434   49.9059   -9.6294 C.ar    1  UNL1        0.0310
     13 C         -26.1053   50.5689  -10.8706 C.ar    1  UNL1        0.0026
     14 C         -25.0511   51.4566  -11.0974 C.ar    1  UNL1        0.0295
     15 C         -24.1322   51.7262  -10.0844 C.ar    1  UNL1        0.1424
     16 F         -23.1125   52.5920  -10.3059 F       1  UNL1       -0.2041
     17 C         -24.2769   51.1225   -8.8356 C.ar    1  UNL1        0.0590
     18 C         -25.3294   50.2323   -8.5972 C.ar    1  UNL1        0.1406
     19 F         -25.4594   49.7176   -7.3485 F       1  UNL1       -0.2044
     20 C         -30.4287   49.4477  -12.9137 C.ar    1  UNL1        0.0520
     21 C         -30.6345   48.2203  -12.2711 C.ar    1  UNL1        0.0156
     22 C         -30.5770   47.0271  -12.9929 C.ar    1  UNL1        0.0131
     23 C         -30.2766   47.0429  -14.3582 C.ar    1  UNL1        0.0631
     24 CL        -30.1875   45.5132  -15.2206 Cl      1  UNL1       -0.0818
     25 C         -30.0378   48.2678  -15.0065 C.ar    1  UNL1        0.0418
     26 I         -29.4501   48.3429  -17.0387 I       1  UNL1       -0.0416
     27 C         -30.1343   49.4675  -14.2872 C.ar    1  UNL1        0.0213
     28 O         -31.4021   50.8678   -7.4454 O.2     1  UNL1       -0.2730
     29 C         -30.5718   49.9367   -7.6217 C.2     1  UNL1        0.2454
     30 N         -30.8523   48.6467   -7.0577 N.am    1  UNL1       -0.2680
     31 H         -31.8469   48.3268   -7.0881 H       1  UNL1        0.1563
     32 C         -29.9371   47.9133   -6.2295 C.ar    1  UNL1        0.1346
     33 C         -29.6755   46.5646   -6.5017 C.ar    1  UNL1        0.0406
     34 C         -28.8269   45.8445   -5.6598 C.ar    1  UNL1        0.0736
     35 C         -28.2321   46.4717   -4.5545 C.ar    1  UNL1        0.2466
     36 C         -28.5186   47.8235   -4.3192 C.ar    1  UNL1        0.1691
     37 N         -29.3604   48.4969   -5.1453 N.ar    1  UNL1       -0.2228
     38 N         -27.3190   45.7544   -3.6983 N.am    1  UNL1       -0.0841
     39 C         -27.7299   45.4088   -2.4384 C.2     1  UNL1        0.2905
     40 C         -26.8729   44.7317   -1.5692 C.2     1  UNL1        0.0758
     41 C         -25.5887   44.4016   -1.9938 C.2     1  UNL1        0.0161
     42 C         -25.1764   44.7455   -3.2792 C.2     1  UNL1        0.1156
     43 C         -26.0573   45.4223   -4.1299 C.2     1  UNL1        0.4230
     44 O         -25.6797   45.7066   -5.2997 O.2     1  UNL1       -0.2135
@<TRIPOS>BOND
     1    28    29    2
     2    29    30   am
     3    30    32    1
     4    32    33   ar
     5    33    34   ar
     6    34    35   ar
     7    35    38    1
     8    38    39    1
     9    39    40    2
    10    40    41    1
    11    41    42    2
    12    42    43    1
    13    43    44    2
    14    35    36   ar
    15    36    37   ar
    16    29     1    1
    17     1     2    1
    18     2     3    1
    19     3     4    1
    20     3    12    1
    21    12    13   ar
    22    13    14   ar
    23    14    15   ar
    24    15    16    1
    25    15    17   ar
    26    17    18   ar
    27    18    19    1
    28     3     5    1
    29     5     6    1
    30     6     7   am
    31     7     8    2
    32     7     9   am
    33     9    20    1
    34    20    21   ar
    35    21    22   ar
    36    22    23   ar
    37    23    24    1
    38    23    25   ar
    39    25    26    1
    40    25    27   ar
    41    37    32   ar
    42     6     1    1
    43    27    20   ar
    44    43    38    1
    45    18    12   ar
    46    30    31    1
    47     4    10    1
    48     9    11    1
