@<TRIPOS>MOLECULE
*****
 51 56 0 0 0
SMALL
GASTEIGER

@<TRIPOS>ATOM
      1 O         -63.1609  -54.6638  -22.4268 O.2     1  UNL1       -0.2701
      2 C         -64.0617  -53.8202  -22.6888 C.2     1  UNL1        0.2483
      3 N         -65.4373  -54.1235  -22.4007 N.am    1  UNL1       -0.2945
      4 H         -66.1778  -53.4860  -22.7719 H       1  UNL1        0.1501
      5 C         -63.6879  -52.5472  -23.3409 C.ar    1  UNL1        0.0808
      6 C         -64.4782  -52.0505  -24.3904 C.ar    1  UNL1        0.0080
      7 C         -64.1531  -50.8436  -25.0143 C.ar    1  UNL1        0.0148
      8 C         -63.0240  -50.1167  -24.6088 C.ar    1  UNL1        0.0503
      9 C         -62.2247  -50.6173  -23.5693 C.ar    1  UNL1        0.0443
     10 C         -62.5485  -51.8238  -22.9405 C.ar    1  UNL1        0.1457
     11 F         -61.7229  -52.2989  -21.9737 F       1  UNL1       -0.2040
     12 N         -62.6932  -48.8687  -25.2450 N.pl3   1  UNL1       -0.3020
     13 C         -61.3242  -48.6403  -25.7269 C.3     1  UNL1        0.1124
     14 C         -61.1651  -47.2533  -26.3666 C.3     1  UNL1        0.1157
     15 N         -62.2798  -46.9503  -27.2834 N.pl3   1  UNL1       -0.2686
     16 C         -63.6510  -47.3753  -26.9371 C.3     1  UNL1        0.2101
     17 O         -64.0415  -48.4144  -27.7968 O.3     1  UNL1       -0.3658
     18 C         -63.7265  -47.8557  -25.4815 C.3     1  UNL1        0.1420
     19 H         -65.0320  -48.4667  -27.7527 H       1  UNL1        0.2123
     20 C         -62.0455  -46.0621  -28.4040 C.ar    1  UNL1        0.1334
     21 C         -60.7658  -45.5494  -28.6870 C.ar    1  UNL1        0.0343
     22 C         -60.5865  -44.6980  -29.7784 C.ar    1  UNL1        0.0083
     23 C         -61.6777  -44.3358  -30.5807 C.ar    1  UNL1        0.0906
     24 C         -62.9331  -44.8853  -30.2832 C.ar    1  UNL1        0.1041
     25 N         -63.0833  -45.7142  -29.2168 N.ar    1  UNL1       -0.2292
     26 C         -61.4871  -43.4576  -31.7910 C.3     1  UNL1        0.4200
     27 F         -62.5295  -43.6674  -32.6743 F       1  UNL1       -0.1658
     28 F         -60.2924  -43.7525  -32.4245 F       1  UNL1       -0.1658
     29 F         -61.4661  -42.1222  -31.4269 F       1  UNL1       -0.1658
     30 C         -65.8647  -55.4194  -21.8642 C.3     1  UNL1        0.1535
     31 C         -66.9536  -55.2031  -20.8470 C.2     1  UNL1        0.2443
     32 O         -67.4853  -54.0643  -20.7355 O.2     1  UNL1       -0.2730
     33 N         -67.3195  -56.2651  -19.9512 N.am    1  UNL1       -0.2825
     34 H         -66.6538  -57.0638  -19.8432 H       1  UNL1        0.1549
     35 C         -68.4880  -56.2444  -19.1135 C.ar    1  UNL1        0.0535
     36 C         -68.5016  -55.4347  -17.9695 C.ar    1  UNL1        0.0353
     37 C         -69.6254  -55.4281  -17.1398 C.ar    1  UNL1        0.1002
     38 N         -70.6936  -56.2159  -17.4325 N.ar    1  UNL1       -0.2422
     39 C         -70.7026  -57.0264  -18.5236 C.ar    1  UNL1        0.1002
     40 C         -69.5993  -57.0623  -19.3803 C.ar    1  UNL1        0.0353
     41 C         -66.3540  -56.3350  -23.0012 C.3     1  UNL1        0.0569
     42 C         -67.3195  -55.6188  -23.9007 C.ar    1  UNL1       -0.0017
     43 C         -67.0046  -54.9181  -25.0617 C.ar    1  UNL1        0.0681
     44 N         -68.1319  -54.5055  -25.6847 N.ar    1  UNL1       -0.3523
     45 C         -69.1549  -54.9498  -24.9340 C.ar    1  UNL1        0.0563
     46 C         -70.5173  -54.8005  -25.1893 C.ar    1  UNL1        0.0170
     47 C         -71.4235  -55.3801  -24.2823 C.ar    1  UNL1        0.0015
     48 C         -70.9529  -56.0927  -23.1569 C.ar    1  UNL1        0.0001
     49 C         -69.5720  -56.2308  -22.9269 C.ar    1  UNL1        0.0012
     50 C         -68.6988  -55.6378  -23.8388 C.ar    1  UNL1        0.0131
     51 H         -68.1914  -53.9730  -26.5809 H       1  UNL1        0.1660
@<TRIPOS>BOND
     1     1     2    2
     2     2     3   am
     3     3    30    1
     4    30    41    1
     5    41    42    1
     6    42    43   ar
     7    43    44   ar
     8    44    45   ar
     9    45    46   ar
    10    46    47   ar
    11    47    48   ar
    12    48    49   ar
    13    49    50   ar
    14    30    31    1
    15    31    32    2
    16    31    33   am
    17    33    35    1
    18    35    36   ar
    19    36    37   ar
    20    37    38   ar
    21    38    39   ar
    22    39    40   ar
    23     2     5    1
    24     5     6   ar
    25     6     7   ar
    26     7     8   ar
    27     8    12    1
    28    12    13    1
    29    13    14    1
    30    14    15    1
    31    15    20    1
    32    20    21   ar
    33    21    22   ar
    34    22    23   ar
    35    23    26    1
    36    26    27    1
    37    26    28    1
    38    26    29    1
    39    23    24   ar
    40    24    25   ar
    41    15    16    1
    42    16    17    1
    43    16    18    1
    44     8     9   ar
    45     9    10   ar
    46    10    11    1
    47    50    42   ar
    48    40    35   ar
    49    10     5   ar
    50    50    45   ar
    51    18    12    1
    52    25    20   ar
    53     3     4    1
    54    44    51    1
    55    33    34    1
    56    17    19    1
@<TRIPOS>MOLECULE
*****
 51 56 0 0 0
SMALL
GASTEIGER

@<TRIPOS>ATOM
      1 O         -63.3699  -43.5504  -19.8302 O.2     1  UNL1       -0.2701
      2 C         -63.2020  -42.6774  -20.7255 C.2     1  UNL1        0.2483
      3 N         -63.4359  -41.2898  -20.4302 N.am    1  UNL1       -0.2945
      4 H         -63.4503  -40.6064  -21.2209 H       1  UNL1        0.1501
      5 C         -62.8162  -43.1070  -22.0863 C.ar    1  UNL1        0.0808
      6 C         -62.4226  -44.4375  -22.3051 C.ar    1  UNL1        0.0080
      7 C         -62.0655  -44.8711  -23.5842 C.ar    1  UNL1        0.0148
      8 C         -62.0831  -43.9790  -24.6667 C.ar    1  UNL1        0.0503
      9 C         -62.4631  -42.6457  -24.4485 C.ar    1  UNL1        0.0443
     10 C         -62.8239  -42.2084  -23.1701 C.ar    1  UNL1        0.1457
     11 F         -63.1369  -40.9001  -22.9910 F       1  UNL1       -0.2040
     12 N         -61.7239  -44.4270  -25.9865 N.pl3   1  UNL1       -0.3020
     13 C         -62.7756  -44.6556  -26.9866 C.3     1  UNL1        0.1124
     14 C         -62.1987  -45.1367  -28.3260 C.3     1  UNL1        0.1157
     15 N         -61.0260  -44.3376  -28.7271 N.pl3   1  UNL1       -0.2686
     16 C         -60.0603  -43.8874  -27.7046 C.3     1  UNL1        0.2101
     17 O         -60.1767  -42.4977  -27.5421 O.3     1  UNL1       -0.3658
     18 C         -60.3155  -44.5858  -26.3621 C.3     1  UNL1        0.1420
     19 H         -59.3425  -42.1892  -27.1007 H       1  UNL1        0.2123
     20 C         -60.7297  -44.1846  -30.1372 C.ar    1  UNL1        0.1334
     21 C         -59.5738  -44.7417  -30.7152 C.ar    1  UNL1        0.0343
     22 C         -59.3297  -44.5701  -32.0787 C.ar    1  UNL1        0.0083
     23 C         -60.2192  -43.8294  -32.8697 C.ar    1  UNL1        0.0906
     24 C         -61.3727  -43.3100  -32.2646 C.ar    1  UNL1        0.1041
     25 N         -61.5907  -43.4917  -30.9356 N.ar    1  UNL1       -0.2292
     26 C         -59.9919  -43.6802  -34.3524 C.3     1  UNL1        0.4200
     27 F         -59.1882  -42.5789  -34.5810 F       1  UNL1       -0.1658
     28 F         -61.1944  -43.5067  -35.0154 F       1  UNL1       -0.1658
     29 F         -59.3720  -44.8057  -34.8672 F       1  UNL1       -0.1658
     30 C         -63.9330  -40.8322  -19.1290 C.3     1  UNL1        0.1535
     31 C         -63.4500  -39.4285  -18.8764 C.2     1  UNL1        0.2443
     32 O         -62.9111  -39.1439  -17.7716 O.2     1  UNL1       -0.2730
     33 N         -63.6835  -38.4028  -19.8550 N.am    1  UNL1       -0.2825
     34 H         -64.4054  -38.5836  -20.5890 H       1  UNL1        0.1549
     35 C         -63.0674  -37.1040  -19.8218 C.ar    1  UNL1        0.0535
     36 C         -62.1899  -36.7310  -20.8493 C.ar    1  UNL1        0.0353
     37 C         -61.5710  -35.4793  -20.8102 C.ar    1  UNL1        0.1002
     38 N         -61.8065  -34.6344  -19.7719 N.ar    1  UNL1       -0.2422
     39 C         -62.6367  -34.9752  -18.7511 C.ar    1  UNL1        0.1002
     40 C         -63.2769  -36.2172  -18.7519 C.ar    1  UNL1        0.0353
     41 C         -65.4709  -40.8954  -19.0905 C.3     1  UNL1        0.0569
     42 C         -66.0233  -41.4970  -20.3503 C.ar    1  UNL1       -0.0017
     43 C         -66.6350  -42.7415  -20.4737 C.ar    1  UNL1        0.0681
     44 N         -67.1208  -42.9068  -21.7251 N.ar    1  UNL1       -0.3523
     45 C         -66.8321  -41.7737  -22.3884 C.ar    1  UNL1        0.0563
     46 C         -67.1629  -41.4580  -23.7053 C.ar    1  UNL1        0.0170
     47 C         -66.7903  -40.1912  -24.1911 C.ar    1  UNL1        0.0015
     48 C         -66.1087  -39.2767  -23.3574 C.ar    1  UNL1        0.0001
     49 C         -65.7917  -39.6212  -22.0309 C.ar    1  UNL1        0.0012
     50 C         -66.1664  -40.8872  -21.5809 C.ar    1  UNL1        0.0131
     51 H         -67.6381  -43.7374  -22.0898 H       1  UNL1        0.1660
@<TRIPOS>BOND
     1     1     2    2
     2     2     3   am
     3     3    30    1
     4    30    41    1
     5    41    42    1
     6    42    43   ar
     7    43    44   ar
     8    44    45   ar
     9    45    46   ar
    10    46    47   ar
    11    47    48   ar
    12    48    49   ar
    13    49    50   ar
    14    30    31    1
    15    31    32    2
    16    31    33   am
    17    33    35    1
    18    35    36   ar
    19    36    37   ar
    20    37    38   ar
    21    38    39   ar
    22    39    40   ar
    23     2     5    1
    24     5     6   ar
    25     6     7   ar
    26     7     8   ar
    27     8    12    1
    28    12    13    1
    29    13    14    1
    30    14    15    1
    31    15    20    1
    32    20    21   ar
    33    21    22   ar
    34    22    23   ar
    35    23    26    1
    36    26    27    1
    37    26    28    1
    38    26    29    1
    39    23    24   ar
    40    24    25   ar
    41    15    16    1
    42    16    17    1
    43    16    18    1
    44     8     9   ar
    45     9    10   ar
    46    10    11    1
    47    50    42   ar
    48    40    35   ar
    49    10     5   ar
    50    50    45   ar
    51    18    12    1
    52    25    20   ar
    53     3     4    1
    54    44    51    1
    55    33    34    1
    56    17    19    1
@<TRIPOS>MOLECULE
*****
 51 56 0 0 0
SMALL
GASTEIGER

@<TRIPOS>ATOM
      1 O         -60.6237  -47.3781  -24.6289 O.2     1  UNL1       -0.2701
      2 C         -61.6523  -46.6528  -24.7171 C.2     1  UNL1        0.2483
      3 N         -62.6942  -46.9920  -25.6482 N.am    1  UNL1       -0.2945
      4 H         -63.4547  -46.2963  -25.8220 H       1  UNL1        0.1501
      5 C         -61.7431  -45.4292  -23.8925 C.ar    1  UNL1        0.0808
      6 C         -61.7674  -45.5399  -22.4925 C.ar    1  UNL1        0.0080
      7 C         -61.8401  -44.3980  -21.6911 C.ar    1  UNL1        0.0148
      8 C         -61.9025  -43.1240  -22.2750 C.ar    1  UNL1        0.0503
      9 C         -61.8920  -43.0111  -23.6739 C.ar    1  UNL1        0.0443
     10 C         -61.8165  -44.1517  -24.4795 C.ar    1  UNL1        0.1457
     11 F         -61.8591  -44.0034  -25.8279 F       1  UNL1       -0.2040
     12 N         -61.9685  -41.9464  -21.4500 N.pl3   1  UNL1       -0.3020
     13 C         -61.5783  -40.6453  -22.0099 C.3     1  UNL1        0.1124
     14 C         -61.7083  -39.5148  -20.9787 C.3     1  UNL1        0.1157
     15 N         -62.9853  -39.5964  -20.2458 N.pl3   1  UNL1       -0.2686
     16 C         -63.5308  -40.9154  -19.8667 C.3     1  UNL1        0.2101
     17 O         -64.6703  -41.1823  -20.6422 O.3     1  UNL1       -0.3658
     18 C         -62.4905  -42.0229  -20.0820 C.3     1  UNL1        0.1420
     19 H         -65.1760  -41.8966  -20.1733 H       1  UNL1        0.2123
     20 C         -63.5774  -38.3790  -19.7292 C.ar    1  UNL1        0.1334
     21 C         -64.7264  -38.4018  -18.9169 C.ar    1  UNL1        0.0343
     22 C         -65.2615  -37.2040  -18.4403 C.ar    1  UNL1        0.0083
     23 C         -64.6720  -35.9790  -18.7831 C.ar    1  UNL1        0.0906
     24 C         -63.5141  -35.9966  -19.5740 C.ar    1  UNL1        0.1041
     25 N         -63.0097  -37.1752  -20.0247 N.ar    1  UNL1       -0.2292
     26 C         -65.2112  -34.6831  -18.2334 C.3     1  UNL1        0.4200
     27 F         -66.3830  -34.3616  -18.8927 F       1  UNL1       -0.1658
     28 F         -64.2973  -33.6592  -18.4124 F       1  UNL1       -0.1658
     29 F         -65.4727  -34.7983  -16.8790 F       1  UNL1       -0.1658
     30 C         -62.5918  -48.1290  -26.5682 C.3     1  UNL1        0.1535
     31 C         -62.9310  -49.3980  -25.8321 C.2     1  UNL1        0.2443
     32 O         -63.7785  -50.1947  -26.3209 O.2     1  UNL1       -0.2730
     33 N         -62.3575  -49.6526  -24.5396 N.am    1  UNL1       -0.2825
     34 H         -61.9354  -48.8462  -24.0254 H       1  UNL1        0.1549
     35 C         -62.4263  -50.9202  -23.8644 C.ar    1  UNL1        0.0535
     36 C         -61.3082  -51.3873  -23.1599 C.ar    1  UNL1        0.0353
     37 C         -61.3620  -52.6285  -22.5211 C.ar    1  UNL1        0.1002
     38 N         -62.4879  -53.3861  -22.5968 N.ar    1  UNL1       -0.2422
     39 C         -63.5811  -52.9692  -23.2886 C.ar    1  UNL1        0.1002
     40 C         -63.5697  -51.7337  -23.9410 C.ar    1  UNL1        0.0353
     41 C         -63.5295  -47.9296  -27.7729 C.3     1  UNL1        0.0569
     42 C         -63.3510  -46.5695  -28.3834 C.ar    1  UNL1       -0.0017
     43 C         -64.3589  -45.6540  -28.6733 C.ar    1  UNL1        0.0681
     44 N         -63.8273  -44.4863  -29.1013 N.ar    1  UNL1       -0.3523
     45 C         -62.4936  -44.6527  -29.0725 C.ar    1  UNL1        0.0563
     46 C         -61.5177  -43.7107  -29.3945 C.ar    1  UNL1        0.0170
     47 C         -60.1691  -44.0886  -29.2588 C.ar    1  UNL1        0.0015
     48 C         -59.8305  -45.3825  -28.8038 C.ar    1  UNL1        0.0001
     49 C         -60.8370  -46.3112  -28.4822 C.ar    1  UNL1        0.0012
     50 C         -62.1642  -45.9101  -28.6353 C.ar    1  UNL1        0.0131
     51 H         -64.3502  -43.6241  -29.3728 H       1  UNL1        0.1660
@<TRIPOS>BOND
     1     1     2    2
     2     2     3   am
     3     3    30    1
     4    30    41    1
     5    41    42    1
     6    42    43   ar
     7    43    44   ar
     8    44    45   ar
     9    45    46   ar
    10    46    47   ar
    11    47    48   ar
    12    48    49   ar
    13    49    50   ar
    14    30    31    1
    15    31    32    2
    16    31    33   am
    17    33    35    1
    18    35    36   ar
    19    36    37   ar
    20    37    38   ar
    21    38    39   ar
    22    39    40   ar
    23     2     5    1
    24     5     6   ar
    25     6     7   ar
    26     7     8   ar
    27     8    12    1
    28    12    13    1
    29    13    14    1
    30    14    15    1
    31    15    20    1
    32    20    21   ar
    33    21    22   ar
    34    22    23   ar
    35    23    26    1
    36    26    27    1
    37    26    28    1
    38    26    29    1
    39    23    24   ar
    40    24    25   ar
    41    15    16    1
    42    16    17    1
    43    16    18    1
    44     8     9   ar
    45     9    10   ar
    46    10    11    1
    47    50    42   ar
    48    40    35   ar
    49    10     5   ar
    50    50    45   ar
    51    18    12    1
    52    25    20   ar
    53     3     4    1
    54    44    51    1
    55    33    34    1
    56    17    19    1
@<TRIPOS>MOLECULE
*****
 51 56 0 0 0
SMALL
GASTEIGER

@<TRIPOS>ATOM
      1 O         -60.3083  -41.9181  -21.4464 O.2     1  UNL1       -0.2701
      2 C         -61.3888  -41.6958  -22.0586 C.2     1  UNL1        0.2483
      3 N         -62.3872  -40.8446  -21.4703 N.am    1  UNL1       -0.2945
      4 H         -63.3332  -40.8046  -21.9129 H       1  UNL1        0.1501
      5 C         -61.6316  -42.3626  -23.3555 C.ar    1  UNL1        0.0808
      6 C         -60.6759  -43.2595  -23.8606 C.ar    1  UNL1        0.0080
      7 C         -60.8878  -43.9118  -25.0777 C.ar    1  UNL1        0.0148
      8 C         -62.0539  -43.6698  -25.8190 C.ar    1  UNL1        0.0503
      9 C         -63.0043  -42.7638  -25.3233 C.ar    1  UNL1        0.0443
     10 C         -62.7971  -42.1110  -24.1040 C.ar    1  UNL1        0.1457
     11 F         -63.7159  -41.2051  -23.6833 F       1  UNL1       -0.2040
     12 N         -62.2771  -44.3479  -27.0688 N.pl3   1  UNL1       -0.3020
     13 C         -62.3221  -45.8161  -27.0998 C.3     1  UNL1        0.1124
     14 C         -62.5609  -46.3529  -28.5186 C.3     1  UNL1        0.1157
     15 N         -63.6395  -45.6142  -29.2011 N.pl3   1  UNL1       -0.2686
     16 C         -63.7676  -44.1560  -29.0058 C.3     1  UNL1        0.2101
     17 O         -64.9148  -43.8934  -28.2402 O.3     1  UNL1       -0.3658
     18 C         -62.5327  -43.5860  -28.2951 C.3     1  UNL1        0.1420
     19 H         -65.1418  -42.9372  -28.3816 H       1  UNL1        0.2123
     20 C         -64.4251  -46.2933  -30.2118 C.ar    1  UNL1        0.1334
     21 C         -64.9208  -45.6168  -31.3419 C.ar    1  UNL1        0.0343
     22 C         -65.6720  -46.3120  -32.2909 C.ar    1  UNL1        0.0083
     23 C         -65.9513  -47.6744  -32.1134 C.ar    1  UNL1        0.0906
     24 C         -65.4203  -48.3208  -30.9879 C.ar    1  UNL1        0.1041
     25 N         -64.6897  -47.6240  -30.0783 N.ar    1  UNL1       -0.2292
     26 C         -66.7185  -48.4465  -33.1563 C.3     1  UNL1        0.4200
     27 F         -66.9881  -49.7147  -32.6768 F       1  UNL1       -0.1658
     28 F         -65.9832  -48.5524  -34.3241 F       1  UNL1       -0.1658
     29 F         -67.9130  -47.8129  -33.4526 F       1  UNL1       -0.1658
     30 C         -62.2378  -40.2585  -20.1347 C.3     1  UNL1        0.1535
     31 C         -62.7058  -38.8276  -20.1630 C.2     1  UNL1        0.2443
     32 O         -62.3966  -38.0898  -21.1388 O.2     1  UNL1       -0.2730
     33 N         -63.4237  -38.2855  -19.0428 N.am    1  UNL1       -0.2825
     34 H         -63.3748  -38.8021  -18.1354 H       1  UNL1        0.1549
     35 C         -64.1116  -37.0230  -19.0628 C.ar    1  UNL1        0.0535
     36 C         -63.4833  -35.8874  -18.5334 C.ar    1  UNL1        0.0353
     37 C         -64.1560  -34.6631  -18.5295 C.ar    1  UNL1        0.1002
     38 N         -65.4199  -34.5780  -19.0219 N.ar    1  UNL1       -0.2422
     39 C         -66.0630  -35.6653  -19.5239 C.ar    1  UNL1        0.1002
     40 C         -65.4257  -36.9086  -19.5477 C.ar    1  UNL1        0.0353
     41 C         -63.0353  -41.0732  -19.0999 C.3     1  UNL1        0.0569
     42 C         -64.1447  -41.8462  -19.7525 C.ar    1  UNL1       -0.0017
     43 C         -64.3847  -43.2121  -19.6299 C.ar    1  UNL1        0.0681
     44 N         -65.5374  -43.5467  -20.2533 N.ar    1  UNL1       -0.3523
     45 C         -66.0326  -42.4031  -20.7574 C.ar    1  UNL1        0.0563
     46 C         -67.2264  -42.2357  -21.4576 C.ar    1  UNL1        0.0170
     47 C         -67.5720  -40.9344  -21.8661 C.ar    1  UNL1        0.0015
     48 C         -66.7293  -39.8415  -21.5638 C.ar    1  UNL1        0.0001
     49 C         -65.5323  -40.0400  -20.8519 C.ar    1  UNL1        0.0012
     50 C         -65.2127  -41.3424  -20.4682 C.ar    1  UNL1        0.0131
     51 H         -65.9654  -44.4977  -20.3069 H       1  UNL1        0.1660
@<TRIPOS>BOND
     1     1     2    2
     2     2     3   am
     3     3    30    1
     4    30    41    1
     5    41    42    1
     6    42    43   ar
     7    43    44   ar
     8    44    45   ar
     9    45    46   ar
    10    46    47   ar
    11    47    48   ar
    12    48    49   ar
    13    49    50   ar
    14    30    31    1
    15    31    32    2
    16    31    33   am
    17    33    35    1
    18    35    36   ar
    19    36    37   ar
    20    37    38   ar
    21    38    39   ar
    22    39    40   ar
    23     2     5    1
    24     5     6   ar
    25     6     7   ar
    26     7     8   ar
    27     8    12    1
    28    12    13    1
    29    13    14    1
    30    14    15    1
    31    15    20    1
    32    20    21   ar
    33    21    22   ar
    34    22    23   ar
    35    23    26    1
    36    26    27    1
    37    26    28    1
    38    26    29    1
    39    23    24   ar
    40    24    25   ar
    41    15    16    1
    42    16    17    1
    43    16    18    1
    44     8     9   ar
    45     9    10   ar
    46    10    11    1
    47    50    42   ar
    48    40    35   ar
    49    10     5   ar
    50    50    45   ar
    51    18    12    1
    52    25    20   ar
    53     3     4    1
    54    44    51    1
    55    33    34    1
    56    17    19    1
@<TRIPOS>MOLECULE
*****
 51 56 0 0 0
SMALL
GASTEIGER

@<TRIPOS>ATOM
      1 O         -61.4189  -47.3098  -25.4736 O.2     1  UNL1       -0.2701
      2 C         -62.1467  -46.3043  -25.6996 C.2     1  UNL1        0.2483
      3 N         -62.8296  -46.1788  -26.9586 N.am    1  UNL1       -0.2945
      4 H         -63.2913  -45.2695  -27.1880 H       1  UNL1        0.1501
      5 C         -62.2417  -45.2403  -24.6777 C.ar    1  UNL1        0.0808
      6 C         -62.1677  -45.5809  -23.3170 C.ar    1  UNL1        0.0080
      7 C         -62.2423  -44.5924  -22.3326 C.ar    1  UNL1        0.0148
      8 C         -62.4051  -43.2457  -22.6900 C.ar    1  UNL1        0.0503
      9 C         -62.4928  -42.9040  -24.0485 C.ar    1  UNL1        0.0443
     10 C         -62.4158  -43.8903  -25.0369 C.ar    1  UNL1        0.1457
     11 F         -62.5549  -43.5252  -26.3366 F       1  UNL1       -0.2040
     12 N         -62.4732  -42.2257  -21.6769 N.pl3   1  UNL1       -0.3020
     13 C         -61.6258  -41.0310  -21.7918 C.3     1  UNL1        0.1124
     14 C         -61.8332  -40.0652  -20.6159 C.3     1  UNL1        0.1157
     15 N         -63.2654  -39.8708  -20.3230 N.pl3   1  UNL1       -0.2686
     16 C         -64.1969  -41.0121  -20.4252 C.3     1  UNL1        0.2101
     17 O         -65.0334  -40.8251  -21.5371 O.3     1  UNL1       -0.3658
     18 C         -63.4320  -42.3344  -20.5729 C.3     1  UNL1        0.1420
     19 H         -65.8192  -41.4182  -21.4084 H       1  UNL1        0.2123
     20 C         -63.6989  -38.6169  -19.7402 C.ar    1  UNL1        0.1334
     21 C         -64.7911  -38.5507  -18.8553 C.ar    1  UNL1        0.0343
     22 C         -65.1725  -37.3208  -18.3166 C.ar    1  UNL1        0.0083
     23 C         -64.4859  -36.1501  -18.6684 C.ar    1  UNL1        0.0906
     24 C         -63.3876  -36.2580  -19.5336 C.ar    1  UNL1        0.1041
     25 N         -63.0330  -37.4666  -20.0439 N.ar    1  UNL1       -0.2292
     26 C         -64.8570  -34.8244  -18.0543 C.3     1  UNL1        0.4200
     27 F         -65.1455  -35.0081  -16.7149 F       1  UNL1       -0.1658
     28 F         -65.9658  -34.2877  -18.6852 F       1  UNL1       -0.1658
     29 F         -63.8133  -33.9227  -18.1715 F       1  UNL1       -0.1658
     30 C         -62.6694  -47.1510  -28.0444 C.3     1  UNL1        0.1535
     31 C         -63.8865  -47.1141  -28.9301 C.2     1  UNL1        0.2443
     32 O         -64.6408  -46.1029  -28.9113 O.2     1  UNL1       -0.2730
     33 N         -64.2312  -48.2613  -29.7234 N.am    1  UNL1       -0.2825
     34 H         -63.7937  -49.1772  -29.4733 H       1  UNL1        0.1549
     35 C         -65.2213  -48.2505  -30.7660 C.ar    1  UNL1        0.0535
     36 C         -66.2397  -49.2136  -30.7594 C.ar    1  UNL1        0.0353
     37 C         -67.1909  -49.2217  -31.7824 C.ar    1  UNL1        0.1002
     38 N         -67.1188  -48.3099  -32.7878 N.ar    1  UNL1       -0.2422
     39 C         -66.1320  -47.3762  -32.8324 C.ar    1  UNL1        0.1002
     40 C         -65.1612  -47.3324  -31.8284 C.ar    1  UNL1        0.0353
     41 C         -61.3959  -46.8453  -28.8538 C.3     1  UNL1        0.0569
     42 C         -61.1655  -45.3661  -28.9695 C.ar    1  UNL1       -0.0017
     43 C         -60.2211  -44.6188  -28.2712 C.ar    1  UNL1        0.0681
     44 N         -60.2094  -43.3407  -28.7135 N.ar    1  UNL1       -0.3523
     45 C         -61.1288  -43.2780  -29.6923 C.ar    1  UNL1        0.0563
     46 C         -61.4550  -42.1716  -30.4752 C.ar    1  UNL1        0.0170
     47 C         -62.4305  -42.3386  -31.4753 C.ar    1  UNL1        0.0015
     48 C         -63.0465  -43.5947  -31.6720 C.ar    1  UNL1        0.0001
     49 C         -62.6942  -44.6949  -30.8693 C.ar    1  UNL1        0.0012
     50 C         -61.7304  -44.4959  -29.8807 C.ar    1  UNL1        0.0131
     51 H         -59.5910  -42.5691  -28.3778 H       1  UNL1        0.1660
@<TRIPOS>BOND
     1     1     2    2
     2     2     3   am
     3     3    30    1
     4    30    41    1
     5    41    42    1
     6    42    43   ar
     7    43    44   ar
     8    44    45   ar
     9    45    46   ar
    10    46    47   ar
    11    47    48   ar
    12    48    49   ar
    13    49    50   ar
    14    30    31    1
    15    31    32    2
    16    31    33   am
    17    33    35    1
    18    35    36   ar
    19    36    37   ar
    20    37    38   ar
    21    38    39   ar
    22    39    40   ar
    23     2     5    1
    24     5     6   ar
    25     6     7   ar
    26     7     8   ar
    27     8    12    1
    28    12    13    1
    29    13    14    1
    30    14    15    1
    31    15    20    1
    32    20    21   ar
    33    21    22   ar
    34    22    23   ar
    35    23    26    1
    36    26    27    1
    37    26    28    1
    38    26    29    1
    39    23    24   ar
    40    24    25   ar
    41    15    16    1
    42    16    17    1
    43    16    18    1
    44     8     9   ar
    45     9    10   ar
    46    10    11    1
    47    50    42   ar
    48    40    35   ar
    49    10     5   ar
    50    50    45   ar
    51    18    12    1
    52    25    20   ar
    53     3     4    1
    54    44    51    1
    55    33    34    1
    56    17    19    1
@<TRIPOS>MOLECULE
*****
 51 56 0 0 0
SMALL
GASTEIGER

@<TRIPOS>ATOM
      1 O         -61.2383  -46.6972  -26.2995 O.2     1  UNL1       -0.2701
      2 C         -62.3329  -46.2779  -25.8329 C.2     1  UNL1        0.2483
      3 N         -63.5757  -46.7967  -26.3367 N.am    1  UNL1       -0.2945
      4 H         -64.4646  -46.3234  -26.0569 H       1  UNL1        0.1501
      5 C         -62.3174  -45.2143  -24.8063 C.ar    1  UNL1        0.0808
      6 C         -62.4868  -43.8755  -25.1959 C.ar    1  UNL1        0.0080
      7 C         -62.4886  -42.8536  -24.2434 C.ar    1  UNL1        0.0148
      8 C         -62.3083  -43.1500  -22.8842 C.ar    1  UNL1        0.0503
      9 C         -62.1253  -44.4855  -22.4934 C.ar    1  UNL1        0.0443
     10 C         -62.1257  -45.5116  -23.4436 C.ar    1  UNL1        0.1457
     11 F         -61.8958  -46.7841  -23.0314 F       1  UNL1       -0.2040
     12 N         -62.3187  -42.0987  -21.9012 N.pl3   1  UNL1       -0.3020
     13 C         -61.6204  -40.8367  -22.1808 C.3     1  UNL1        0.1124
     14 C         -61.7374  -39.8455  -21.0138 C.3     1  UNL1        0.1157
     15 N         -63.1192  -39.7720  -20.5040 N.pl3   1  UNL1       -0.2686
     16 C         -63.9390  -40.9979  -20.4269 C.3     1  UNL1        0.2101
     17 O         -64.9514  -40.9362  -21.3977 O.3     1  UNL1       -0.3658
     18 C         -63.0804  -42.2488  -20.6573 C.3     1  UNL1        0.1420
     19 H         -65.6460  -41.5935  -21.1305 H       1  UNL1        0.2123
     20 C         -63.5782  -38.5401  -19.8946 C.ar    1  UNL1        0.1334
     21 C         -64.6409  -38.5220  -18.9722 C.ar    1  UNL1        0.0343
     22 C         -65.0485  -37.3117  -18.4089 C.ar    1  UNL1        0.0083
     23 C         -64.4181  -36.1134  -18.7726 C.ar    1  UNL1        0.0906
     24 C         -63.3471  -36.1731  -19.6758 C.ar    1  UNL1        0.1041
     25 N         -62.9662  -37.3633  -20.2097 N.ar    1  UNL1       -0.2292
     26 C         -64.8163  -34.8077  -18.1332 C.3     1  UNL1        0.4200
     27 F         -63.7459  -33.9340  -18.1777 F       1  UNL1       -0.1658
     28 F         -65.1849  -35.0029  -16.8135 F       1  UNL1       -0.1658
     29 F         -65.8879  -34.2428  -18.8031 F       1  UNL1       -0.1658
     30 C         -63.6397  -47.7647  -27.4360 C.3     1  UNL1        0.1535
     31 C         -63.2343  -47.0893  -28.7192 C.2     1  UNL1        0.2443
     32 O         -63.5672  -47.5992  -29.8243 O.2     1  UNL1       -0.2730
     33 N         -62.3989  -45.9210  -28.6820 N.am    1  UNL1       -0.2825
     34 H         -61.8767  -45.7223  -27.7985 H       1  UNL1        0.1549
     35 C         -62.1508  -45.0727  -29.8162 C.ar    1  UNL1        0.0535
     36 C         -60.8311  -44.8402  -30.2273 C.ar    1  UNL1        0.0353
     37 C         -60.5833  -43.9988  -31.3145 C.ar    1  UNL1        0.1002
     38 N         -61.6166  -43.3959  -31.9596 N.ar    1  UNL1       -0.2422
     39 C         -62.9056  -43.5861  -31.5723 C.ar    1  UNL1        0.1002
     40 C         -63.1975  -44.4208  -30.4905 C.ar    1  UNL1        0.0353
     41 C         -62.7280  -48.9702  -27.1421 C.3     1  UNL1        0.0569
     42 C         -63.0387  -49.5750  -25.8036 C.ar    1  UNL1       -0.0017
     43 C         -64.2408  -50.1636  -25.4206 C.ar    1  UNL1        0.0681
     44 N         -64.1271  -50.7115  -24.1893 N.ar    1  UNL1       -0.3523
     45 C         -62.8613  -50.4848  -23.7973 C.ar    1  UNL1        0.0563
     46 C         -62.2594  -50.8926  -22.6078 C.ar    1  UNL1        0.0170
     47 C         -60.9020  -50.5758  -22.4155 C.ar    1  UNL1        0.0015
     48 C         -60.1836  -49.8719  -23.4077 C.ar    1  UNL1        0.0001
     49 C         -60.8162  -49.4767  -24.6004 C.ar    1  UNL1        0.0012
     50 C         -62.1645  -49.7975  -24.7581 C.ar    1  UNL1        0.0131
     51 H         -64.8674  -51.2282  -23.6645 H       1  UNL1        0.1660
@<TRIPOS>BOND
     1     1     2    2
     2     2     3   am
     3     3    30    1
     4    30    41    1
     5    41    42    1
     6    42    43   ar
     7    43    44   ar
     8    44    45   ar
     9    45    46   ar
    10    46    47   ar
    11    47    48   ar
    12    48    49   ar
    13    49    50   ar
    14    30    31    1
    15    31    32    2
    16    31    33   am
    17    33    35    1
    18    35    36   ar
    19    36    37   ar
    20    37    38   ar
    21    38    39   ar
    22    39    40   ar
    23     2     5    1
    24     5     6   ar
    25     6     7   ar
    26     7     8   ar
    27     8    12    1
    28    12    13    1
    29    13    14    1
    30    14    15    1
    31    15    20    1
    32    20    21   ar
    33    21    22   ar
    34    22    23   ar
    35    23    26    1
    36    26    27    1
    37    26    28    1
    38    26    29    1
    39    23    24   ar
    40    24    25   ar
    41    15    16    1
    42    16    17    1
    43    16    18    1
    44     8     9   ar
    45     9    10   ar
    46    10    11    1
    47    50    42   ar
    48    40    35   ar
    49    10     5   ar
    50    50    45   ar
    51    18    12    1
    52    25    20   ar
    53     3     4    1
    54    44    51    1
    55    33    34    1
    56    17    19    1
@<TRIPOS>MOLECULE
*****
 51 56 0 0 0
SMALL
GASTEIGER

@<TRIPOS>ATOM
      1 O         -61.0394  -42.2620  -19.5237 O.2     1  UNL1       -0.2701
      2 C         -61.8184  -41.7495  -20.3736 C.2     1  UNL1        0.2483
      3 N         -62.9327  -40.9515  -19.9390 N.am    1  UNL1       -0.2945
      4 H         -63.6536  -40.6746  -20.6434 H       1  UNL1        0.1501
      5 C         -61.5992  -42.0253  -21.8093 C.ar    1  UNL1        0.0808
      6 C         -60.3606  -42.5339  -22.2337 C.ar    1  UNL1        0.0080
      7 C         -60.1332  -42.8146  -23.5832 C.ar    1  UNL1        0.0148
      8 C         -61.1359  -42.5800  -24.5357 C.ar    1  UNL1        0.0503
      9 C         -62.3699  -42.0592  -24.1163 C.ar    1  UNL1        0.0443
     10 C         -62.6024  -41.7795  -22.7659 C.ar    1  UNL1        0.1457
     11 F         -63.7905  -41.2302  -22.4075 F       1  UNL1       -0.2040
     12 N         -60.9056  -42.8771  -25.9251 N.pl3   1  UNL1       -0.3020
     13 C         -61.4108  -44.1351  -26.4916 C.3     1  UNL1        0.1124
     14 C         -61.0605  -44.2754  -27.9802 C.3     1  UNL1        0.1157
     15 N         -61.3305  -43.0276  -28.7185 N.pl3   1  UNL1       -0.2686
     16 C         -61.0497  -41.7241  -28.0838 C.3     1  UNL1        0.2101
     17 O         -62.2643  -41.0844  -27.7895 O.3     1  UNL1       -0.3658
     18 C         -60.2370  -41.9041  -26.7945 C.3     1  UNL1        0.1420
     19 H         -62.0578  -40.1223  -27.6580 H       1  UNL1        0.2123
     20 C         -61.6694  -43.1035  -30.1253 C.ar    1  UNL1        0.1334
     21 C         -62.9561  -42.7805  -30.5948 C.ar    1  UNL1        0.0343
     22 C         -63.2373  -42.8666  -31.9593 C.ar    1  UNL1        0.0083
     23 C         -62.2508  -43.2921  -32.8601 C.ar    1  UNL1        0.0906
     24 C         -60.9735  -43.5820  -32.3592 C.ar    1  UNL1        0.1041
     25 N         -60.7222  -43.4888  -31.0270 N.ar    1  UNL1       -0.2292
     26 C         -62.5281  -43.3406  -34.3411 C.3     1  UNL1        0.4200
     27 F         -61.3520  -43.6100  -35.0157 F       1  UNL1       -0.1658
     28 F         -63.0347  -42.1306  -34.7825 F       1  UNL1       -0.1658
     29 F         -63.4521  -44.3292  -34.6327 F       1  UNL1       -0.1658
     30 C         -63.2556  -40.7504  -18.5230 C.3     1  UNL1        0.1535
     31 C         -63.9234  -39.4121  -18.3492 C.2     1  UNL1        0.2443
     32 O         -64.7580  -39.2482  -17.4172 O.2     1  UNL1       -0.2730
     33 N         -63.6755  -38.3588  -19.2942 N.am    1  UNL1       -0.2825
     34 H         -63.2561  -38.6185  -20.2159 H       1  UNL1        0.1549
     35 C         -64.0689  -36.9901  -19.0951 C.ar    1  UNL1        0.0535
     36 C         -63.2315  -36.1308  -18.3706 C.ar    1  UNL1        0.0353
     37 C         -63.6195  -34.8063  -18.1547 C.ar    1  UNL1        0.1002
     38 N         -64.8110  -34.3585  -18.6312 N.ar    1  UNL1       -0.2422
     39 C         -65.6534  -35.1729  -19.3203 C.ar    1  UNL1        0.1002
     40 C         -65.3032  -36.5042  -19.5593 C.ar    1  UNL1        0.0353
     41 C         -64.1648  -41.8842  -18.0146 C.3     1  UNL1        0.0569
     42 C         -64.8760  -42.5630  -19.1494 C.ar    1  UNL1       -0.0017
     43 C         -64.9803  -43.9355  -19.3576 C.ar    1  UNL1        0.0681
     44 N         -65.7938  -44.1934  -20.4069 N.ar    1  UNL1       -0.3523
     45 C         -66.2130  -42.9972  -20.8547 C.ar    1  UNL1        0.0563
     46 C         -67.0972  -42.7505  -21.9038 C.ar    1  UNL1        0.0170
     47 C         -67.4294  -41.4119  -22.1826 C.ar    1  UNL1        0.0015
     48 C         -66.8813  -40.3627  -21.4115 C.ar    1  UNL1        0.0001
     49 C         -65.9945  -40.6420  -20.3558 C.ar    1  UNL1        0.0012
     50 C         -65.6777  -41.9779  -20.1094 C.ar    1  UNL1        0.0131
     51 H         -66.0602  -45.1338  -20.7745 H       1  UNL1        0.1660
@<TRIPOS>BOND
     1     1     2    2
     2     2     3   am
     3     3    30    1
     4    30    41    1
     5    41    42    1
     6    42    43   ar
     7    43    44   ar
     8    44    45   ar
     9    45    46   ar
    10    46    47   ar
    11    47    48   ar
    12    48    49   ar
    13    49    50   ar
    14    30    31    1
    15    31    32    2
    16    31    33   am
    17    33    35    1
    18    35    36   ar
    19    36    37   ar
    20    37    38   ar
    21    38    39   ar
    22    39    40   ar
    23     2     5    1
    24     5     6   ar
    25     6     7   ar
    26     7     8   ar
    27     8    12    1
    28    12    13    1
    29    13    14    1
    30    14    15    1
    31    15    20    1
    32    20    21   ar
    33    21    22   ar
    34    22    23   ar
    35    23    26    1
    36    26    27    1
    37    26    28    1
    38    26    29    1
    39    23    24   ar
    40    24    25   ar
    41    15    16    1
    42    16    17    1
    43    16    18    1
    44     8     9   ar
    45     9    10   ar
    46    10    11    1
    47    50    42   ar
    48    40    35   ar
    49    10     5   ar
    50    50    45   ar
    51    18    12    1
    52    25    20   ar
    53     3     4    1
    54    44    51    1
    55    33    34    1
    56    17    19    1
@<TRIPOS>MOLECULE
*****
 51 56 0 0 0
SMALL
GASTEIGER

@<TRIPOS>ATOM
      1 O         -60.7016  -47.1948  -25.1286 O.2     1  UNL1       -0.2701
      2 C         -61.7419  -46.4812  -25.1444 C.2     1  UNL1        0.2483
      3 N         -62.8112  -46.7882  -26.0552 N.am    1  UNL1       -0.2945
      4 H         -63.5862  -46.0959  -26.1672 H       1  UNL1        0.1501
      5 C         -61.8195  -45.3022  -24.2559 C.ar    1  UNL1        0.0808
      6 C         -62.1915  -45.4731  -22.9123 C.ar    1  UNL1        0.0080
      7 C         -62.2600  -44.3765  -22.0495 C.ar    1  UNL1        0.0148
      8 C         -61.9699  -43.0862  -22.5173 C.ar    1  UNL1        0.0503
      9 C         -61.6109  -42.9107  -23.8627 C.ar    1  UNL1        0.0443
     10 C         -61.5386  -44.0063  -24.7289 C.ar    1  UNL1        0.1457
     11 F         -61.2366  -43.7887  -26.0340 F       1  UNL1       -0.2040
     12 N         -62.0316  -41.9570  -21.6270 N.pl3   1  UNL1       -0.3020
     13 C         -61.5414  -40.6481  -22.0800 C.3     1  UNL1        0.1124
     14 C         -61.6827  -39.5744  -20.9912 C.3     1  UNL1        0.1157
     15 N         -63.0077  -39.6304  -20.3462 N.pl3   1  UNL1       -0.2686
     16 C         -63.6415  -40.9382  -20.0840 C.3     1  UNL1        0.2101
     17 O         -64.7394  -41.0982  -20.9444 O.3     1  UNL1       -0.3658
     18 C         -62.6455  -42.0853  -20.3017 C.3     1  UNL1        0.1420
     19 H         -65.3096  -41.8106  -20.5531 H       1  UNL1        0.2123
     20 C         -63.5714  -38.4154  -19.7934 C.ar    1  UNL1        0.1334
     21 C         -64.7023  -38.4384  -18.9562 C.ar    1  UNL1        0.0343
     22 C         -65.2102  -37.2430  -18.4452 C.ar    1  UNL1        0.0083
     23 C         -64.6117  -36.0196  -18.7780 C.ar    1  UNL1        0.0906
     24 C         -63.4720  -36.0374  -19.5948 C.ar    1  UNL1        0.1041
     25 N         -62.9939  -37.2138  -20.0789 N.ar    1  UNL1       -0.2292
     26 C         -65.1209  -34.7274  -18.1919 C.3     1  UNL1        0.4200
     27 F         -64.1803  -33.7346  -18.3934 F       1  UNL1       -0.1658
     28 F         -65.3489  -34.8641  -16.8336 F       1  UNL1       -0.1658
     29 F         -66.3090  -34.3524  -18.7950 F       1  UNL1       -0.1658
     30 C         -62.7264  -47.8757  -27.0350 C.3     1  UNL1        0.1535
     31 C         -63.2144  -49.1533  -26.4050 C.2     1  UNL1        0.2443
     32 O         -63.8892  -49.9689  -27.0917 O.2     1  UNL1       -0.2730
     33 N         -62.9869  -49.3963  -25.0074 N.am    1  UNL1       -0.2825
     34 H         -62.7300  -48.5811  -24.4056 H       1  UNL1        0.1549
     35 C         -63.1981  -50.6662  -24.3668 C.ar    1  UNL1        0.0535
     36 C         -62.2479  -51.1439  -23.4537 C.ar    1  UNL1        0.0353
     37 C         -62.4368  -52.3872  -22.8456 C.ar    1  UNL1        0.1002
     38 N         -63.5287  -53.1368  -23.1510 N.ar    1  UNL1       -0.2422
     39 C         -64.4573  -52.7096  -24.0469 C.ar    1  UNL1        0.1002
     40 C         -64.3073  -51.4715  -24.6770 C.ar    1  UNL1        0.0353
     41 C         -63.5538  -47.5340  -28.2877 C.3     1  UNL1        0.0569
     42 C         -63.1911  -46.1810  -28.8281 C.ar    1  UNL1       -0.0017
     43 C         -61.9106  -45.7282  -29.1336 C.ar    1  UNL1        0.0681
     44 N         -61.9672  -44.5077  -29.7136 N.ar    1  UNL1       -0.3523
     45 C         -63.2718  -44.1919  -29.7879 C.ar    1  UNL1        0.0563
     46 C         -63.8324  -43.0421  -30.3420 C.ar    1  UNL1        0.0170
     47 C         -65.2351  -42.9309  -30.3462 C.ar    1  UNL1        0.0015
     48 C         -66.0366  -43.9623  -29.8080 C.ar    1  UNL1        0.0001
     49 C         -65.4431  -45.1135  -29.2591 C.ar    1  UNL1        0.0012
     50 C         -64.0504  -45.1908  -29.2615 C.ar    1  UNL1        0.0131
     51 H         -61.1600  -43.9409  -30.0566 H       1  UNL1        0.1660
@<TRIPOS>BOND
     1     1     2    2
     2     2     3   am
     3     3    30    1
     4    30    41    1
     5    41    42    1
     6    42    43   ar
     7    43    44   ar
     8    44    45   ar
     9    45    46   ar
    10    46    47   ar
    11    47    48   ar
    12    48    49   ar
    13    49    50   ar
    14    30    31    1
    15    31    32    2
    16    31    33   am
    17    33    35    1
    18    35    36   ar
    19    36    37   ar
    20    37    38   ar
    21    38    39   ar
    22    39    40   ar
    23     2     5    1
    24     5     6   ar
    25     6     7   ar
    26     7     8   ar
    27     8    12    1
    28    12    13    1
    29    13    14    1
    30    14    15    1
    31    15    20    1
    32    20    21   ar
    33    21    22   ar
    34    22    23   ar
    35    23    26    1
    36    26    27    1
    37    26    28    1
    38    26    29    1
    39    23    24   ar
    40    24    25   ar
    41    15    16    1
    42    16    17    1
    43    16    18    1
    44     8     9   ar
    45     9    10   ar
    46    10    11    1
    47    50    42   ar
    48    40    35   ar
    49    10     5   ar
    50    50    45   ar
    51    18    12    1
    52    25    20   ar
    53     3     4    1
    54    44    51    1
    55    33    34    1
    56    17    19    1
@<TRIPOS>MOLECULE
*****
 51 56 0 0 0
SMALL
GASTEIGER

@<TRIPOS>ATOM
      1 O         -60.3773  -41.5692  -21.1250 O.2     1  UNL1       -0.2701
      2 C         -61.4438  -41.3798  -21.7720 C.2     1  UNL1        0.2483
      3 N         -62.4566  -40.5034  -21.2491 N.am    1  UNL1       -0.2945
      4 H         -63.3923  -40.4874  -21.7146 H       1  UNL1        0.1501
      5 C         -61.6556  -42.1098  -23.0399 C.ar    1  UNL1        0.0808
      6 C         -60.5730  -42.7657  -23.6486 C.ar    1  UNL1        0.0080
      7 C         -60.7502  -43.4727  -24.8403 C.ar    1  UNL1        0.0148
      8 C         -62.0110  -43.5267  -25.4527 C.ar    1  UNL1        0.0503
      9 C         -63.0918  -42.8610  -24.8539 C.ar    1  UNL1        0.0443
     10 C         -62.9190  -42.1544  -23.6594 C.ar    1  UNL1        0.1457
     11 F         -63.9771  -41.4828  -23.1385 F       1  UNL1       -0.2040
     12 N         -62.1965  -44.2623  -26.6759 N.pl3   1  UNL1       -0.3020
     13 C         -62.4075  -45.7153  -26.6240 C.3     1  UNL1        0.1124
     14 C         -62.5767  -46.3209  -28.0251 C.3     1  UNL1        0.1157
     15 N         -63.4963  -45.5184  -28.8528 N.pl3   1  UNL1       -0.2686
     16 C         -63.4727  -44.0449  -28.7579 C.3     1  UNL1        0.2101
     17 O         -64.6467  -43.6057  -28.1255 O.3     1  UNL1       -0.3658
     18 C         -62.2500  -43.5647  -27.9644 C.3     1  UNL1        0.1420
     19 H         -64.7482  -42.6427  -28.3450 H       1  UNL1        0.2123
     20 C         -64.2598  -46.1767  -29.8937 C.ar    1  UNL1        0.1334
     21 C         -64.7603  -45.4706  -31.0034 C.ar    1  UNL1        0.0343
     22 C         -65.4895  -46.1465  -31.9829 C.ar    1  UNL1        0.0083
     23 C         -65.7424  -47.5197  -31.8562 C.ar    1  UNL1        0.0906
     24 C         -65.2073  -48.1950  -30.7497 C.ar    1  UNL1        0.1041
     25 N         -64.4983  -47.5165  -29.8097 N.ar    1  UNL1       -0.2292
     26 C         -66.4854  -48.2695  -32.9323 C.3     1  UNL1        0.4200
     27 F         -66.7322  -49.5594  -32.5007 F       1  UNL1       -0.1658
     28 F         -65.7392  -48.3184  -34.0970 F       1  UNL1       -0.1658
     29 F         -67.6905  -47.6503  -33.2158 F       1  UNL1       -0.1658
     30 C         -62.3388  -39.8523  -19.9406 C.3     1  UNL1        0.1535
     31 C         -62.9384  -38.4731  -20.0143 C.2     1  UNL1        0.2443
     32 O         -62.7019  -37.7433  -21.0161 O.2     1  UNL1       -0.2730
     33 N         -63.7009  -37.9625  -18.9089 N.am    1  UNL1       -0.2825
     34 H         -63.6018  -38.4412  -17.9849 H       1  UNL1        0.1549
     35 C         -64.5037  -36.7710  -18.9673 C.ar    1  UNL1        0.0535
     36 C         -65.7142  -36.7896  -19.6739 C.ar    1  UNL1        0.0353
     37 C         -66.4870  -35.6286  -19.7530 C.ar    1  UNL1        0.1002
     38 N         -66.0583  -34.4825  -19.1613 N.ar    1  UNL1       -0.2422
     39 C         -64.8799  -34.4279  -18.4859 C.ar    1  UNL1        0.1002
     40 C         -64.0772  -35.5667  -18.3818 C.ar    1  UNL1        0.0353
     41 C         -63.0387  -40.6945  -18.8582 C.3     1  UNL1        0.0569
     42 C         -64.3007  -41.3163  -19.3826 C.ar    1  UNL1       -0.0017
     43 C         -65.5009  -40.6600  -19.6412 C.ar    1  UNL1        0.0681
     44 N         -66.3852  -41.5037  -20.2203 N.ar    1  UNL1       -0.3523
     45 C         -65.7499  -42.6824  -20.3404 C.ar    1  UNL1        0.0563
     46 C         -66.2443  -43.8540  -20.9118 C.ar    1  UNL1        0.0170
     47 C         -65.3897  -44.9705  -20.9658 C.ar    1  UNL1        0.0015
     48 C         -64.0735  -44.8898  -20.4587 C.ar    1  UNL1        0.0001
     49 C         -63.6003  -43.6927  -19.8914 C.ar    1  UNL1        0.0012
     50 C         -64.4737  -42.6061  -19.8443 C.ar    1  UNL1        0.0131
     51 H         -67.3547  -41.2744  -20.5331 H       1  UNL1        0.1660
@<TRIPOS>BOND
     1     1     2    2
     2     2     3   am
     3     3    30    1
     4    30    41    1
     5    41    42    1
     6    42    43   ar
     7    43    44   ar
     8    44    45   ar
     9    45    46   ar
    10    46    47   ar
    11    47    48   ar
    12    48    49   ar
    13    49    50   ar
    14    30    31    1
    15    31    32    2
    16    31    33   am
    17    33    35    1
    18    35    36   ar
    19    36    37   ar
    20    37    38   ar
    21    38    39   ar
    22    39    40   ar
    23     2     5    1
    24     5     6   ar
    25     6     7   ar
    26     7     8   ar
    27     8    12    1
    28    12    13    1
    29    13    14    1
    30    14    15    1
    31    15    20    1
    32    20    21   ar
    33    21    22   ar
    34    22    23   ar
    35    23    26    1
    36    26    27    1
    37    26    28    1
    38    26    29    1
    39    23    24   ar
    40    24    25   ar
    41    15    16    1
    42    16    17    1
    43    16    18    1
    44     8     9   ar
    45     9    10   ar
    46    10    11    1
    47    50    42   ar
    48    40    35   ar
    49    10     5   ar
    50    50    45   ar
    51    18    12    1
    52    25    20   ar
    53     3     4    1
    54    44    51    1
    55    33    34    1
    56    17    19    1
