@<TRIPOS>MOLECULE
*****
 36 39 0 0 0
SMALL
GASTEIGER

@<TRIPOS>ATOM
      1 C         -23.0117   -9.0359   -8.4887 C.3     1  UNL1        0.1029
      2 C         -23.9463   -9.4664   -9.6332 C.3     1  UNL1        0.1484
      3 O         -24.9653  -10.2822   -9.1116 O.3     1  UNL1       -0.3786
      4 H         -25.7141  -10.2595   -9.7638 H       1  UNL1        0.2108
      5 C         -23.1946  -10.1523  -10.7622 C.ar    1  UNL1        0.0069
      6 C         -21.8486  -10.5459  -10.6248 C.ar    1  UNL1       -0.0018
      7 C         -21.1778  -11.1556  -11.6879 C.ar    1  UNL1        0.0011
      8 C         -21.8263  -11.3513  -12.9081 C.ar    1  UNL1        0.0158
      9 C         -23.1498  -10.9294  -13.0765 C.ar    1  UNL1        0.0642
     10 C         -23.8404  -10.3630  -11.9953 C.ar    1  UNL1        0.0139
     11 N         -23.7764  -11.0517  -14.3563 N.pl3   1  UNL1       -0.2188
     12 H         -23.9062  -10.1879  -14.9287 H       1  UNL1        0.1734
     13 S         -24.8457  -12.3744  -14.6939 S.O2    1  UNL1        0.0522
     14 O         -26.1473  -11.8253  -15.2051 O.2     1  UNL1       -0.1545
     15 O         -25.1112  -13.1600  -13.4400 O.2     1  UNL1       -0.1545
     16 C         -24.1257  -13.4430  -15.9389 C.3     1  UNL1        0.1488
     17 C         -24.6512  -14.8736  -15.8664 C.3     1  UNL1        0.0255
     18 C         -23.2560  -15.3656  -15.5084 C.3     1  UNL1        0.0036
     19 C         -22.7276  -13.9393  -15.5836 C.3     1  UNL1        0.0255
     20 N         -22.9046   -7.5669   -8.3874 N.3     1  UNL1       -0.2921
     21 H         -23.5588   -7.1530   -9.0933 H       1  UNL1        0.1234
     22 C         -21.5488   -7.1072   -8.7225 C.3     1  UNL1        0.1166
     23 C         -21.5825   -5.7671   -9.4637 C.3     1  UNL1        0.2224
     24 O         -22.4958   -5.8324  -10.5610 O.3     1  UNL1       -0.4731
     25 C         -20.9681   -9.0112  -16.2703 C.3     1  UNL1        0.0540
     26 C         -22.0471   -8.4436  -15.4087 C.ar    1  UNL1        0.0801
     27 N         -23.3414   -8.3193  -15.7879 N.ar    1  UNL1       -0.1770
     28 N         -24.0031   -7.7150  -14.8069 N.ar    1  UNL1       -0.2751
     29 C         -23.1402   -7.4415  -13.8125 C.ar    1  UNL1        0.0885
     30 C         -23.3788   -6.7761  -12.6090 C.ar    1  UNL1        0.1085
     31 CL        -24.9796   -6.1678  -12.2126 Cl      1  UNL1       -0.0775
     32 C         -22.2809   -6.5543  -11.7468 C.ar    1  UNL1        0.1505
     33 C         -20.9930   -7.0439  -12.1074 C.ar    1  UNL1        0.0379
     34 C         -20.7918   -7.7065  -13.3315 C.ar    1  UNL1        0.0059
     35 C         -21.8962   -7.8819  -14.1582 C.ar    1  UNL1        0.0333
     36 H         -25.0210   -7.4848  -14.8375 H       1  UNL1        0.1890
@<TRIPOS>BOND
     1    25    26    1
     2    26    27   ar
     3    27    28   ar
     4    28    29   ar
     5    29    30   ar
     6    30    31    1
     7    30    32   ar
     8    32    24    1
     9    24    23    1
    10    23    22    1
    11    22    20    1
    12    20     1    1
    13     1     2    1
    14     2     3    1
    15     2     5    1
    16     5     6   ar
    17     6     7   ar
    18     7     8   ar
    19     8     9   ar
    20     9    11    1
    21    11    13    1
    22    13    14    2
    23    13    15    2
    24    13    16    1
    25    16    17    1
    26    17    18    1
    27    18    19    1
    28     9    10   ar
    29    32    33   ar
    30    33    34   ar
    31    34    35   ar
    32    35    26   ar
    33    35    29   ar
    34    10     5   ar
    35    19    16    1
    36    28    36    1
    37    20    21    1
    38     3     4    1
    39    11    12    1
@<TRIPOS>MOLECULE
*****
 36 39 0 0 0
SMALL
GASTEIGER

@<TRIPOS>ATOM
      1 C         -23.9365   -9.6064   -8.8224 C.3     1  UNL1        0.1029
      2 C         -25.0521   -8.9356   -9.6434 C.3     1  UNL1        0.1484
      3 O         -26.2902   -9.1875   -9.0274 O.3     1  UNL1       -0.3786
      4 H         -26.9201   -8.4918   -9.3528 H       1  UNL1        0.2108
      5 C         -25.0426   -9.3799  -11.0970 C.ar    1  UNL1        0.0069
      6 C         -25.5360   -8.5551  -12.1275 C.ar    1  UNL1       -0.0018
      7 C         -25.5333   -8.9997  -13.4520 C.ar    1  UNL1        0.0011
      8 C         -25.0710  -10.2794  -13.7626 C.ar    1  UNL1        0.0158
      9 C         -24.6159  -11.1281  -12.7473 C.ar    1  UNL1        0.0642
     10 C         -24.5709  -10.6654  -11.4242 C.ar    1  UNL1        0.0139
     11 N         -24.2293  -12.4684  -13.0628 N.pl3   1  UNL1       -0.2188
     12 H         -23.2176  -12.6654  -13.2315 H       1  UNL1        0.1734
     13 S         -25.3636  -13.5715  -13.7724 S.O2    1  UNL1        0.0522
     14 O         -26.5662  -12.7980  -14.2335 O.2     1  UNL1       -0.1545
     15 O         -25.8029  -14.5889  -12.7566 O.2     1  UNL1       -0.1545
     16 C         -24.6189  -14.3982  -15.1769 C.3     1  UNL1        0.1488
     17 C         -23.3115  -15.1014  -14.8246 C.3     1  UNL1        0.0255
     18 C         -22.5574  -14.1589  -15.7518 C.3     1  UNL1        0.0036
     19 C         -23.8611  -13.4572  -16.1084 C.3     1  UNL1        0.0255
     20 N         -23.3550   -8.6849   -7.8261 N.3     1  UNL1       -0.2921
     21 H         -23.6544   -7.7139   -8.0814 H       1  UNL1        0.1234
     22 C         -21.8856   -8.7161   -7.8654 C.3     1  UNL1        0.1166
     23 C         -21.3471   -8.0157   -9.1167 C.3     1  UNL1        0.2224
     24 O         -20.9825   -8.9816  -10.1050 O.3     1  UNL1       -0.4731
     25 C         -22.5929   -8.0184  -16.5481 C.3     1  UNL1        0.0540
     26 C         -22.1287   -8.9849  -15.5093 C.ar    1  UNL1        0.0801
     27 N         -22.0108  -10.3197  -15.7060 N.ar    1  UNL1       -0.1770
     28 N         -21.6423  -10.8758  -14.5570 N.ar    1  UNL1       -0.2751
     29 C         -21.5372   -9.9099  -13.6274 C.ar    1  UNL1        0.0885
     30 C         -21.2224  -10.0331  -12.2732 C.ar    1  UNL1        0.1085
     31 CL        -20.8905  -11.6052  -11.5603 Cl      1  UNL1       -0.0775
     32 C         -21.2376   -8.8625  -11.4813 C.ar    1  UNL1        0.1505
     33 C         -21.5295   -7.6070  -12.0870 C.ar    1  UNL1        0.0379
     34 C         -21.8462   -7.5242  -13.4549 C.ar    1  UNL1        0.0059
     35 C         -21.8412   -8.7048  -14.1898 C.ar    1  UNL1        0.0333
     36 H         -21.4861  -11.8991  -14.4212 H       1  UNL1        0.1890
@<TRIPOS>BOND
     1    25    26    1
     2    26    27   ar
     3    27    28   ar
     4    28    29   ar
     5    29    30   ar
     6    30    31    1
     7    30    32   ar
     8    32    24    1
     9    24    23    1
    10    23    22    1
    11    22    20    1
    12    20     1    1
    13     1     2    1
    14     2     3    1
    15     2     5    1
    16     5     6   ar
    17     6     7   ar
    18     7     8   ar
    19     8     9   ar
    20     9    11    1
    21    11    13    1
    22    13    14    2
    23    13    15    2
    24    13    16    1
    25    16    17    1
    26    17    18    1
    27    18    19    1
    28     9    10   ar
    29    32    33   ar
    30    33    34   ar
    31    34    35   ar
    32    35    26   ar
    33    35    29   ar
    34    10     5   ar
    35    19    16    1
    36    28    36    1
    37    20    21    1
    38     3     4    1
    39    11    12    1
@<TRIPOS>MOLECULE
*****
 36 39 0 0 0
SMALL
GASTEIGER

@<TRIPOS>ATOM
      1 C         -22.7336   -8.5282   -8.6451 C.3     1  UNL1        0.1029
      2 C         -23.8102   -8.9924   -9.6420 C.3     1  UNL1        0.1484
      3 O         -24.9087   -9.5011   -8.9276 O.3     1  UNL1       -0.3786
      4 H         -25.6901   -9.4683   -9.5399 H       1  UNL1        0.2108
      5 C         -23.2703  -10.0009  -10.6430 C.ar    1  UNL1        0.0069
      6 C         -21.8869  -10.1985  -10.8234 C.ar    1  UNL1       -0.0018
      7 C         -21.4206  -11.1179  -11.7664 C.ar    1  UNL1        0.0011
      8 C         -22.3220  -11.8265  -12.5621 C.ar    1  UNL1        0.0158
      9 C         -23.6983  -11.6131  -12.4261 C.ar    1  UNL1        0.0642
     10 C         -24.1697  -10.7280  -11.4458 C.ar    1  UNL1        0.0139
     11 N         -24.6097  -12.2758  -13.3068 N.pl3   1  UNL1       -0.2188
     12 H         -24.9916  -13.2038  -13.0175 H       1  UNL1        0.1734
     13 S         -24.6000  -11.9363  -15.0073 S.O2    1  UNL1        0.0522
     14 O         -23.6008  -10.8474  -15.2770 O.2     1  UNL1       -0.1545
     15 O         -25.9579  -11.4676  -15.4505 O.2     1  UNL1       -0.1545
     16 C         -24.1355  -13.4045  -15.9233 C.3     1  UNL1        0.1488
     17 C         -24.6571  -14.6891  -15.2863 C.3     1  UNL1        0.0255
     18 C         -23.2263  -15.1379  -15.0254 C.3     1  UNL1        0.0036
     19 C         -22.7024  -13.8585  -15.6639 C.3     1  UNL1        0.0255
     20 N         -22.5515   -7.0633   -8.6729 N.3     1  UNL1       -0.2921
     21 H         -23.3042   -6.6629   -9.2818 H       1  UNL1        0.1234
     22 C         -21.2601   -6.6982   -9.2736 C.3     1  UNL1        0.1166
     23 C         -21.2838   -5.2664   -9.8171 C.3     1  UNL1        0.2224
     24 O         -21.5777   -5.2737  -11.2157 O.3     1  UNL1       -0.4731
     25 C         -27.5012   -7.4961  -13.4534 C.3     1  UNL1        0.0540
     26 C         -26.0158   -7.6373  -13.5038 C.ar    1  UNL1        0.0801
     27 N         -25.3653   -8.6460  -14.1314 N.ar    1  UNL1       -0.1770
     28 N         -24.0630   -8.4951  -13.9155 N.ar    1  UNL1       -0.2751
     29 C         -23.8789   -7.4080  -13.1458 C.ar    1  UNL1        0.0885
     30 C         -22.6870   -6.8942  -12.6326 C.ar    1  UNL1        0.1085
     31 CL        -21.1472   -7.6735  -12.9665 Cl      1  UNL1       -0.0775
     32 C         -22.7634   -5.7636  -11.7878 C.ar    1  UNL1        0.1505
     33 C         -24.0296   -5.1680  -11.5223 C.ar    1  UNL1        0.0379
     34 C         -25.2094   -5.7179  -12.0549 C.ar    1  UNL1        0.0059
     35 C         -25.0882   -6.8438  -12.8620 C.ar    1  UNL1        0.0333
     36 H         -23.3271   -9.1403  -14.2791 H       1  UNL1        0.1890
@<TRIPOS>BOND
     1    25    26    1
     2    26    27   ar
     3    27    28   ar
     4    28    29   ar
     5    29    30   ar
     6    30    31    1
     7    30    32   ar
     8    32    24    1
     9    24    23    1
    10    23    22    1
    11    22    20    1
    12    20     1    1
    13     1     2    1
    14     2     3    1
    15     2     5    1
    16     5     6   ar
    17     6     7   ar
    18     7     8   ar
    19     8     9   ar
    20     9    11    1
    21    11    13    1
    22    13    14    2
    23    13    15    2
    24    13    16    1
    25    16    17    1
    26    17    18    1
    27    18    19    1
    28     9    10   ar
    29    32    33   ar
    30    33    34   ar
    31    34    35   ar
    32    35    26   ar
    33    35    29   ar
    34    10     5   ar
    35    19    16    1
    36    28    36    1
    37    20    21    1
    38     3     4    1
    39    11    12    1
@<TRIPOS>MOLECULE
*****
 36 39 0 0 0
SMALL
GASTEIGER

@<TRIPOS>ATOM
      1 C         -26.0195   -7.5369  -13.0582 C.3     1  UNL1        0.1029
      2 C         -25.3074   -6.4139  -12.2834 C.3     1  UNL1        0.1484
      3 O         -25.6842   -5.1725  -12.8244 O.3     1  UNL1       -0.3786
      4 H         -25.5046   -4.4884  -12.1271 H       1  UNL1        0.2108
      5 C         -23.7978   -6.5913  -12.2719 C.ar    1  UNL1        0.0069
      6 C         -22.9664   -5.8139  -11.4412 C.ar    1  UNL1       -0.0018
      7 C         -21.5801   -5.9854  -11.4681 C.ar    1  UNL1        0.0011
      8 C         -21.0031   -6.9071  -12.3430 C.ar    1  UNL1        0.0158
      9 C         -21.8097   -7.6584  -13.2050 C.ar    1  UNL1        0.0642
     10 C         -23.2043   -7.5238  -13.1438 C.ar    1  UNL1        0.0139
     11 N         -21.2046   -8.5338  -14.1604 N.pl3   1  UNL1       -0.2188
     12 H         -20.2936   -8.9815  -13.9146 H       1  UNL1        0.1734
     13 S         -21.5636   -8.3816  -15.8501 S.O2    1  UNL1        0.0522
     14 O         -20.2809   -8.1524  -16.5979 O.2     1  UNL1       -0.1545
     15 O         -22.4756   -7.2095  -16.0832 O.2     1  UNL1       -0.1545
     16 C         -22.3374   -9.8820  -16.4505 C.3     1  UNL1        0.1488
     17 C         -23.4380  -10.3914  -15.5247 C.3     1  UNL1        0.0255
     18 C         -22.6217  -11.6459  -15.2482 C.3     1  UNL1        0.0036
     19 C         -21.5229  -11.1421  -16.1744 C.3     1  UNL1        0.0255
     20 N         -26.8905   -8.3450  -12.1817 N.3     1  UNL1       -0.2921
     21 H         -27.8090   -8.4633  -12.6713 H       1  UNL1        0.1234
     22 C         -27.1558   -7.6541  -10.9112 C.3     1  UNL1        0.1166
     23 C         -26.6825   -8.4862   -9.7155 C.3     1  UNL1        0.2224
     24 O         -25.8845   -9.5842  -10.1627 O.3     1  UNL1       -0.4731
     25 C         -19.1929   -9.2907   -9.7489 C.3     1  UNL1        0.0540
     26 C         -20.3760   -9.9371  -10.3901 C.ar    1  UNL1        0.0801
     27 N         -20.3047  -10.7922  -11.4382 N.ar    1  UNL1       -0.1770
     28 N         -21.5437  -11.1157  -11.7924 N.ar    1  UNL1       -0.2751
     29 C         -22.4033  -10.4649  -10.9888 C.ar    1  UNL1        0.0885
     30 C         -23.7987  -10.4651  -11.0217 C.ar    1  UNL1        0.1085
     31 CL        -24.6759  -11.4048  -12.2205 Cl      1  UNL1       -0.0775
     32 C         -24.4822   -9.6399  -10.0999 C.ar    1  UNL1        0.1505
     33 C         -23.7400   -8.8763   -9.1542 C.ar    1  UNL1        0.0379
     34 C         -22.3337   -8.8995   -9.1555 C.ar    1  UNL1        0.0059
     35 C         -21.7036   -9.7080  -10.0952 C.ar    1  UNL1        0.0333
     36 H         -21.7824  -11.7567  -12.5812 H       1  UNL1        0.1890
@<TRIPOS>BOND
     1    25    26    1
     2    26    27   ar
     3    27    28   ar
     4    28    29   ar
     5    29    30   ar
     6    30    31    1
     7    30    32   ar
     8    32    24    1
     9    24    23    1
    10    23    22    1
    11    22    20    1
    12    20     1    1
    13     1     2    1
    14     2     3    1
    15     2     5    1
    16     5     6   ar
    17     6     7   ar
    18     7     8   ar
    19     8     9   ar
    20     9    11    1
    21    11    13    1
    22    13    14    2
    23    13    15    2
    24    13    16    1
    25    16    17    1
    26    17    18    1
    27    18    19    1
    28     9    10   ar
    29    32    33   ar
    30    33    34   ar
    31    34    35   ar
    32    35    26   ar
    33    35    29   ar
    34    10     5   ar
    35    19    16    1
    36    28    36    1
    37    20    21    1
    38     3     4    1
    39    11    12    1
@<TRIPOS>MOLECULE
*****
 36 39 0 0 0
SMALL
GASTEIGER

@<TRIPOS>ATOM
      1 C         -25.5333  -13.1940  -14.6461 C.3     1  UNL1        0.1029
      2 C         -24.8864  -12.8927  -13.2826 C.3     1  UNL1        0.1484
      3 O         -25.6029  -13.5632  -12.2762 O.3     1  UNL1       -0.3786
      4 H         -24.9961  -13.6401  -11.4937 H       1  UNL1        0.2108
      5 C         -24.7894  -11.4006  -13.0095 C.ar    1  UNL1        0.0069
      6 C         -25.2802  -10.4463  -13.9228 C.ar    1  UNL1       -0.0018
      7 C         -25.1577   -9.0809  -13.6535 C.ar    1  UNL1        0.0011
      8 C         -24.5181   -8.6487  -12.4908 C.ar    1  UNL1        0.0158
      9 C         -23.9876   -9.5811  -11.5922 C.ar    1  UNL1        0.0642
     10 C         -24.1539  -10.9521  -11.8360 C.ar    1  UNL1        0.0139
     11 N         -23.2553   -9.1289  -10.4500 N.pl3   1  UNL1       -0.2188
     12 H         -23.7388   -8.5034   -9.7676 H       1  UNL1        0.1734
     13 S         -21.5236   -9.0466  -10.4863 S.O2    1  UNL1        0.0522
     14 O         -21.0283   -9.8123  -11.6804 O.2     1  UNL1       -0.1545
     15 O         -20.9485   -9.6650   -9.2426 O.2     1  UNL1       -0.1545
     16 C         -20.9930   -7.3403  -10.6172 C.3     1  UNL1        0.1488
     17 C         -21.9867   -6.3624   -9.9972 C.3     1  UNL1        0.0255
     18 C         -22.2398   -5.7533  -11.3689 C.3     1  UNL1        0.0036
     19 C         -21.2459   -6.7254  -11.9903 C.3     1  UNL1        0.0255
     20 N         -25.4783  -14.6319  -14.9767 N.3     1  UNL1       -0.2921
     21 H         -25.1348  -15.1386  -14.1265 H       1  UNL1        0.1234
     22 C         -24.5199  -14.8931  -16.0607 C.3     1  UNL1        0.1166
     23 C         -23.0976  -15.0618  -15.5177 C.3     1  UNL1        0.2224
     24 O         -22.2071  -14.1586  -16.1762 O.3     1  UNL1       -0.4731
     25 C         -22.8070   -7.5155  -16.9135 C.3     1  UNL1        0.0540
     26 C         -22.4149   -8.6404  -16.0138 C.ar    1  UNL1        0.0801
     27 N         -21.7953   -8.4832  -14.8197 N.ar    1  UNL1       -0.1770
     28 N         -21.5360   -9.6895  -14.3268 N.ar    1  UNL1       -0.2751
     29 C         -21.9725  -10.6130  -15.2013 C.ar    1  UNL1        0.0885
     30 C         -21.8723  -12.0030  -15.1246 C.ar    1  UNL1        0.1085
     31 CL        -21.1001  -12.7806  -13.7502 Cl      1  UNL1       -0.0775
     32 C         -22.3572  -12.7624  -16.2137 C.ar    1  UNL1        0.1505
     33 C         -22.9601  -12.0993  -17.3206 C.ar    1  UNL1        0.0379
     34 C         -23.0387  -10.6957  -17.3630 C.ar    1  UNL1        0.0059
     35 C         -22.5282   -9.9889  -16.2796 C.ar    1  UNL1        0.0333
     36 H         -21.0539   -9.8628  -13.4171 H       1  UNL1        0.1890
@<TRIPOS>BOND
     1    25    26    1
     2    26    27   ar
     3    27    28   ar
     4    28    29   ar
     5    29    30   ar
     6    30    31    1
     7    30    32   ar
     8    32    24    1
     9    24    23    1
    10    23    22    1
    11    22    20    1
    12    20     1    1
    13     1     2    1
    14     2     3    1
    15     2     5    1
    16     5     6   ar
    17     6     7   ar
    18     7     8   ar
    19     8     9   ar
    20     9    11    1
    21    11    13    1
    22    13    14    2
    23    13    15    2
    24    13    16    1
    25    16    17    1
    26    17    18    1
    27    18    19    1
    28     9    10   ar
    29    32    33   ar
    30    33    34   ar
    31    34    35   ar
    32    35    26   ar
    33    35    29   ar
    34    10     5   ar
    35    19    16    1
    36    28    36    1
    37    20    21    1
    38     3     4    1
    39    11    12    1
@<TRIPOS>MOLECULE
*****
 36 39 0 0 0
SMALL
GASTEIGER

@<TRIPOS>ATOM
      1 C         -25.7816   -9.5851   -9.7495 C.3     1  UNL1        0.1029
      2 C         -24.4311   -9.8971   -9.0806 C.3     1  UNL1        0.1484
      3 O         -24.0687   -8.8199   -8.2535 O.3     1  UNL1       -0.3786
      4 H         -23.4115   -9.1703   -7.5964 H       1  UNL1        0.2108
      5 C         -23.3475  -10.2200  -10.0963 C.ar    1  UNL1        0.0069
      6 C         -21.9811  -10.0315   -9.8079 C.ar    1  UNL1       -0.0018
      7 C         -21.0090  -10.3177  -10.7697 C.ar    1  UNL1        0.0011
      8 C         -21.3850  -10.7627  -12.0379 C.ar    1  UNL1        0.0158
      9 C         -22.7391  -10.9162  -12.3562 C.ar    1  UNL1        0.0642
     10 C         -23.7136  -10.6777  -11.3764 C.ar    1  UNL1        0.0139
     11 N         -23.1184  -11.2854  -13.6848 N.pl3   1  UNL1       -0.2188
     12 H         -22.7046  -10.7547  -14.4835 H       1  UNL1        0.1734
     13 S         -24.6283  -12.0843  -13.9830 S.O2    1  UNL1        0.0522
     14 O         -25.6914  -11.0444  -14.1961 O.2     1  UNL1       -0.1545
     15 O         -25.0097  -12.9309  -12.8007 O.2     1  UNL1       -0.1545
     16 C         -24.5017  -13.1085  -15.4477 C.3     1  UNL1        0.1488
     17 C         -25.0083  -14.5299  -15.2213 C.3     1  UNL1        0.0255
     18 C         -23.6050  -15.0665  -15.4653 C.3     1  UNL1        0.0036
     19 C         -23.0969  -13.6494  -15.6954 C.3     1  UNL1        0.0255
     20 N         -26.5756   -8.6192   -8.9643 N.3     1  UNL1       -0.2921
     21 H         -27.3438   -9.1521   -8.4916 H       1  UNL1        0.1234
     22 C         -27.2076   -7.6168   -9.8347 C.3     1  UNL1        0.1166
     23 C         -26.7864   -7.8031  -11.2955 C.3     1  UNL1        0.2224
     24 O         -25.7013   -6.9286  -11.6121 O.3     1  UNL1       -0.4731
     25 C         -21.1540   -8.7072  -16.2157 C.3     1  UNL1        0.0540
     26 C         -21.3974   -8.1315  -14.8599 C.ar    1  UNL1        0.0801
     27 N         -20.4246   -7.8757  -13.9528 N.ar    1  UNL1       -0.1770
     28 N         -21.0027   -7.4371  -12.8397 N.ar    1  UNL1       -0.2751
     29 C         -22.3345   -7.4236  -13.0248 C.ar    1  UNL1        0.0885
     30 C         -23.3378   -7.0816  -12.1168 C.ar    1  UNL1        0.1085
     31 CL        -22.9438   -6.5773  -10.4797 Cl      1  UNL1       -0.0775
     32 C         -24.6815   -7.2110  -12.5359 C.ar    1  UNL1        0.1505
     33 C         -24.9661   -7.6408  -13.8636 C.ar    1  UNL1        0.0379
     34 C         -23.9269   -7.9805  -14.7484 C.ar    1  UNL1        0.0059
     35 C         -22.6212   -7.8597  -14.2852 C.ar    1  UNL1        0.0333
     36 H         -20.4854   -7.1722  -11.9724 H       1  UNL1        0.1890
@<TRIPOS>BOND
     1    25    26    1
     2    26    27   ar
     3    27    28   ar
     4    28    29   ar
     5    29    30   ar
     6    30    31    1
     7    30    32   ar
     8    32    24    1
     9    24    23    1
    10    23    22    1
    11    22    20    1
    12    20     1    1
    13     1     2    1
    14     2     3    1
    15     2     5    1
    16     5     6   ar
    17     6     7   ar
    18     7     8   ar
    19     8     9   ar
    20     9    11    1
    21    11    13    1
    22    13    14    2
    23    13    15    2
    24    13    16    1
    25    16    17    1
    26    17    18    1
    27    18    19    1
    28     9    10   ar
    29    32    33   ar
    30    33    34   ar
    31    34    35   ar
    32    35    26   ar
    33    35    29   ar
    34    10     5   ar
    35    19    16    1
    36    28    36    1
    37    20    21    1
    38     3     4    1
    39    11    12    1
@<TRIPOS>MOLECULE
*****
 36 39 0 0 0
SMALL
GASTEIGER

@<TRIPOS>ATOM
      1 C         -25.6526   -6.1711  -12.4617 C.3     1  UNL1        0.1029
      2 C         -24.2403   -6.2558  -11.8561 C.3     1  UNL1        0.1484
      3 O         -23.6976   -4.9617  -11.7741 O.3     1  UNL1       -0.3786
      4 H         -22.9739   -4.9959  -11.0947 H       1  UNL1        0.2108
      5 C         -23.3372   -7.1997  -12.6331 C.ar    1  UNL1        0.0069
      6 C         -21.9337   -7.0784  -12.5995 C.ar    1  UNL1       -0.0018
      7 C         -21.1305   -7.9482  -13.3411 C.ar    1  UNL1        0.0011
      8 C         -21.7131   -8.9261  -14.1487 C.ar    1  UNL1        0.0158
      9 C         -23.1060   -9.0348  -14.2271 C.ar    1  UNL1        0.0642
     10 C         -23.9126   -8.1958  -13.4448 C.ar    1  UNL1        0.0139
     11 N         -23.6948   -9.9792  -15.1254 N.pl3   1  UNL1       -0.2188
     12 H         -24.7101   -9.8825  -15.3501 H       1  UNL1        0.1734
     13 S         -23.0013  -11.5553  -15.3299 S.O2    1  UNL1        0.0522
     14 O         -22.4116  -11.9974  -14.0208 O.2     1  UNL1       -0.1545
     15 O         -21.9093  -11.5117  -16.3622 O.2     1  UNL1       -0.1545
     16 C         -24.2655  -12.7214  -15.8322 C.3     1  UNL1        0.1488
     17 C         -25.5641  -12.5608  -15.0474 C.3     1  UNL1        0.0255
     18 C         -25.3755  -13.9502  -14.4553 C.3     1  UNL1        0.0036
     19 C         -24.0809  -14.1152  -15.2401 C.3     1  UNL1        0.0255
     20 N         -26.7021   -6.3794  -11.4443 N.3     1  UNL1       -0.2921
     21 H         -26.3359   -6.0139  -10.5333 H       1  UNL1        0.1234
     22 C         -26.9893   -7.8095  -11.2602 C.3     1  UNL1        0.1166
     23 C         -26.6597   -8.2647   -9.8353 C.3     1  UNL1        0.2224
     24 O         -25.8935   -9.4707   -9.8667 O.3     1  UNL1       -0.4731
     25 C         -19.1887   -9.2110   -9.7539 C.3     1  UNL1        0.0540
     26 C         -20.4020   -9.8862  -10.3023 C.ar    1  UNL1        0.0801
     27 N         -20.3806  -10.8067  -11.2957 N.ar    1  UNL1       -0.1770
     28 N         -21.6355  -11.1410  -11.5763 N.ar    1  UNL1       -0.2751
     29 C         -22.4562  -10.4329  -10.7805 C.ar    1  UNL1        0.0885
     30 C         -23.8516  -10.4228  -10.7546 C.ar    1  UNL1        0.1085
     31 CL        -24.7848  -11.4289  -11.8532 Cl      1  UNL1       -0.0775
     32 C         -24.4903   -9.5347   -9.8595 C.ar    1  UNL1        0.1505
     33 C         -23.7038   -8.7193   -8.9964 C.ar    1  UNL1        0.0379
     34 C         -22.2990   -8.7550   -9.0552 C.ar    1  UNL1        0.0059
     35 C         -21.7144   -9.6271   -9.9671 C.ar    1  UNL1        0.0333
     36 H         -21.9114  -11.8286  -12.3119 H       1  UNL1        0.1890
@<TRIPOS>BOND
     1    25    26    1
     2    26    27   ar
     3    27    28   ar
     4    28    29   ar
     5    29    30   ar
     6    30    31    1
     7    30    32   ar
     8    32    24    1
     9    24    23    1
    10    23    22    1
    11    22    20    1
    12    20     1    1
    13     1     2    1
    14     2     3    1
    15     2     5    1
    16     5     6   ar
    17     6     7   ar
    18     7     8   ar
    19     8     9   ar
    20     9    11    1
    21    11    13    1
    22    13    14    2
    23    13    15    2
    24    13    16    1
    25    16    17    1
    26    17    18    1
    27    18    19    1
    28     9    10   ar
    29    32    33   ar
    30    33    34   ar
    31    34    35   ar
    32    35    26   ar
    33    35    29   ar
    34    10     5   ar
    35    19    16    1
    36    28    36    1
    37    20    21    1
    38     3     4    1
    39    11    12    1
@<TRIPOS>MOLECULE
*****
 36 39 0 0 0
SMALL
GASTEIGER

@<TRIPOS>ATOM
      1 C         -25.1536  -13.7865  -14.1480 C.3     1  UNL1        0.1029
      2 C         -25.6878  -12.3438  -14.1937 C.3     1  UNL1        0.1484
      3 O         -25.9184  -11.9819  -15.5323 O.3     1  UNL1       -0.3786
      4 H         -26.5589  -11.2229  -15.5187 H       1  UNL1        0.2108
      5 C         -24.7590  -11.3645  -13.4948 C.ar    1  UNL1        0.0069
      6 C         -23.7997  -11.7937  -12.5560 C.ar    1  UNL1       -0.0018
      7 C         -22.9741  -10.8672  -11.9142 C.ar    1  UNL1        0.0011
      8 C         -23.1144   -9.5030  -12.1736 C.ar    1  UNL1        0.0158
      9 C         -24.0895   -9.0548  -13.0717 C.ar    1  UNL1        0.0642
     10 C         -24.8849   -9.9865  -13.7543 C.ar    1  UNL1        0.0139
     11 N         -24.2866   -7.6513  -13.2630 N.pl3   1  UNL1       -0.2188
     12 H         -23.7132   -7.1649  -13.9879 H       1  UNL1        0.1734
     13 S         -24.9205   -6.6656  -11.9850 S.O2    1  UNL1        0.0522
     14 O         -24.2104   -5.3417  -11.9980 O.2     1  UNL1       -0.1545
     15 O         -24.6869   -7.3268  -10.6552 O.2     1  UNL1       -0.1545
     16 C         -26.6750   -6.3972  -12.2297 C.3     1  UNL1        0.1488
     17 C         -27.4941   -7.6773  -12.0936 C.3     1  UNL1        0.0255
     18 C         -27.8922   -7.5758  -13.5591 C.3     1  UNL1        0.0036
     19 C         -27.0787   -6.2960  -13.6975 C.3     1  UNL1        0.0255
     20 N         -25.7193  -14.6183  -15.2287 N.3     1  UNL1       -0.2921
     21 H         -26.0648  -15.5073  -14.7952 H       1  UNL1        0.1234
     22 C         -24.6912  -14.9814  -16.2151 C.3     1  UNL1        0.1166
     23 C         -23.2916  -14.9631  -15.5931 C.3     1  UNL1        0.2224
     24 O         -22.4237  -14.1207  -16.3543 O.3     1  UNL1       -0.4731
     25 C         -22.7011   -7.4525  -17.0560 C.3     1  UNL1        0.0540
     26 C         -22.2185   -8.6013  -16.2339 C.ar    1  UNL1        0.0801
     27 N         -21.3681   -8.4868  -15.1859 N.ar    1  UNL1       -0.1770
     28 N         -21.1004   -9.7079  -14.7357 N.ar    1  UNL1       -0.2751
     29 C         -21.7615  -10.5994  -15.4949 C.ar    1  UNL1        0.0885
     30 C         -21.7434  -11.9930  -15.4192 C.ar    1  UNL1        0.1085
     31 CL        -20.7724  -12.8214  -14.2107 Cl      1  UNL1       -0.0775
     32 C         -22.4825  -12.7174  -16.3819 C.ar    1  UNL1        0.1505
     33 C         -23.2435  -12.0148  -17.3595 C.ar    1  UNL1        0.0379
     34 C         -23.2328  -10.6091  -17.4059 C.ar    1  UNL1        0.0059
     35 C         -22.4733   -9.9389  -16.4532 C.ar    1  UNL1        0.0333
     36 H         -20.4628   -9.9138  -13.9351 H       1  UNL1        0.1890
@<TRIPOS>BOND
     1    25    26    1
     2    26    27   ar
     3    27    28   ar
     4    28    29   ar
     5    29    30   ar
     6    30    31    1
     7    30    32   ar
     8    32    24    1
     9    24    23    1
    10    23    22    1
    11    22    20    1
    12    20     1    1
    13     1     2    1
    14     2     3    1
    15     2     5    1
    16     5     6   ar
    17     6     7   ar
    18     7     8   ar
    19     8     9   ar
    20     9    11    1
    21    11    13    1
    22    13    14    2
    23    13    15    2
    24    13    16    1
    25    16    17    1
    26    17    18    1
    27    18    19    1
    28     9    10   ar
    29    32    33   ar
    30    33    34   ar
    31    34    35   ar
    32    35    26   ar
    33    35    29   ar
    34    10     5   ar
    35    19    16    1
    36    28    36    1
    37    20    21    1
    38     3     4    1
    39    11    12    1
@<TRIPOS>MOLECULE
*****
 36 39 0 0 0
SMALL
GASTEIGER

@<TRIPOS>ATOM
      1 C         -21.8204   -5.2365  -10.9456 C.3     1  UNL1        0.1029
      2 C         -21.8580   -6.0747   -9.6554 C.3     1  UNL1        0.1484
      3 O         -21.5930   -5.2387   -8.5568 O.3     1  UNL1       -0.3786
      4 H         -21.9512   -5.6984   -7.7526 H       1  UNL1        0.2108
      5 C         -20.9040   -7.2568   -9.7098 C.ar    1  UNL1        0.0069
      6 C         -20.7018   -7.9923  -10.8946 C.ar    1  UNL1       -0.0018
      7 C         -19.8342   -9.0872  -10.9082 C.ar    1  UNL1        0.0011
      8 C         -19.1837   -9.4827   -9.7385 C.ar    1  UNL1        0.0158
      9 C         -19.4042   -8.7899   -8.5428 C.ar    1  UNL1        0.0642
     10 C         -20.2354   -7.6604   -8.5385 C.ar    1  UNL1        0.0139
     11 N         -18.8046   -9.2566   -7.3312 N.pl3   1  UNL1       -0.2188
     12 H         -18.5787  -10.2730   -7.2499 H       1  UNL1        0.1734
     13 S         -19.0228   -8.3888   -5.8459 S.O2    1  UNL1        0.0522
     14 O         -20.4760   -8.4364   -5.4674 O.2     1  UNL1       -0.1545
     15 O         -18.6149   -6.9524   -6.0194 O.2     1  UNL1       -0.1545
     16 C         -18.0487   -9.1438   -4.5453 C.3     1  UNL1        0.1488
     17 C         -17.2370   -8.1272   -3.7480 C.3     1  UNL1        0.0255
     18 C         -15.9493   -8.7656   -4.2492 C.3     1  UNL1        0.0036
     19 C         -16.7565   -9.7840   -5.0432 C.3     1  UNL1        0.0255
     20 N         -23.1740   -4.9834  -11.4781 N.3     1  UNL1       -0.2921
     21 H         -23.7658   -4.6379  -10.6857 H       1  UNL1        0.1234
     22 C         -23.7896   -6.2212  -11.9787 C.3     1  UNL1        0.1166
     23 C         -25.2953   -6.0451  -12.1981 C.3     1  UNL1        0.2224
     24 O         -25.6371   -6.3564  -13.5504 O.3     1  UNL1       -0.4731
     25 C         -30.3668   -2.9703  -16.8969 C.3     1  UNL1        0.0540
     26 C         -30.0354   -4.1807  -16.0884 C.ar    1  UNL1        0.0801
     27 N         -30.9514   -5.0653  -15.6269 N.ar    1  UNL1       -0.1770
     28 N         -30.3162   -5.9726  -14.8928 N.ar    1  UNL1       -0.2751
     29 C         -29.0069   -5.6669  -14.8716 C.ar    1  UNL1        0.0885
     30 C         -27.9717   -6.3110  -14.1922 C.ar    1  UNL1        0.1085
     31 CL        -28.2839   -7.7282  -13.2003 Cl      1  UNL1       -0.0775
     32 C         -26.6759   -5.7532  -14.2786 C.ar    1  UNL1        0.1505
     33 C         -26.4613   -4.5927  -15.0760 C.ar    1  UNL1        0.0379
     34 C         -27.5315   -3.9695  -15.7426 C.ar    1  UNL1        0.0059
     35 C         -28.7927   -4.5403  -15.6104 C.ar    1  UNL1        0.0333
     36 H         -30.7839   -6.7700  -14.4076 H       1  UNL1        0.1890
@<TRIPOS>BOND
     1    25    26    1
     2    26    27   ar
     3    27    28   ar
     4    28    29   ar
     5    29    30   ar
     6    30    31    1
     7    30    32   ar
     8    32    24    1
     9    24    23    1
    10    23    22    1
    11    22    20    1
    12    20     1    1
    13     1     2    1
    14     2     3    1
    15     2     5    1
    16     5     6   ar
    17     6     7   ar
    18     7     8   ar
    19     8     9   ar
    20     9    11    1
    21    11    13    1
    22    13    14    2
    23    13    15    2
    24    13    16    1
    25    16    17    1
    26    17    18    1
    27    18    19    1
    28     9    10   ar
    29    32    33   ar
    30    33    34   ar
    31    34    35   ar
    32    35    26   ar
    33    35    29   ar
    34    10     5   ar
    35    19    16    1
    36    28    36    1
    37    20    21    1
    38     3     4    1
    39    11    12    1
