@<TRIPOS>MOLECULE
*****
 50 55 0 0 0
SMALL
GASTEIGER

@<TRIPOS>ATOM
      1 O          10.6983   76.4290   25.9416 O.2     1  UNL1       -0.2701
      2 C           9.4963   76.7633   26.1293 C.2     1  UNL1        0.2484
      3 N           9.1338   77.4801   27.3203 N.am    1  UNL1       -0.2945
      4 H           8.2059   77.9600   27.3556 H       1  UNL1        0.1501
      5 C           8.4845   76.4403   25.0979 C.ar    1  UNL1        0.0817
      6 C           8.9015   75.9577   23.8453 C.ar    1  UNL1        0.0194
      7 C           7.9666   75.6491   22.8513 C.ar    1  UNL1        0.0712
      8 CL          8.5386   75.0901   21.2853 Cl      1  UNL1       -0.0810
      9 C           6.5946   75.8108   23.1050 C.ar    1  UNL1        0.0609
     10 C           6.1734   76.2781   24.3561 C.ar    1  UNL1        0.0451
     11 C           7.1065   76.5873   25.3498 C.ar    1  UNL1        0.1457
     12 F           6.6551   76.9795   26.5681 F       1  UNL1       -0.2040
     13 N           5.6215   75.4918   22.1012 N.pl3   1  UNL1       -0.3033
     14 C           5.1942   76.5205   21.1508 C.3     1  UNL1        0.1123
     15 C           3.6983   76.3722   20.8599 C.3     1  UNL1        0.1136
     16 N           3.3337   74.9780   20.5479 N.pl3   1  UNL1       -0.2897
     17 C           4.3396   73.9112   20.6807 C.3     1  UNL1        0.1136
     18 C           5.1742   74.1026   21.9527 C.3     1  UNL1        0.1123
     19 C           2.0525   74.6801   19.9460 C.ar    1  UNL1        0.1318
     20 C           1.3511   75.6437   19.1997 C.ar    1  UNL1        0.0343
     21 C           0.1185   75.3165   18.6325 C.ar    1  UNL1        0.0083
     22 C          -0.4128   74.0281   18.7887 C.ar    1  UNL1        0.0906
     23 C           0.3019   73.1032   19.5641 C.ar    1  UNL1        0.1041
     24 N           1.4995   73.4449   20.1081 N.ar    1  UNL1       -0.2292
     25 C          -1.7661   73.6786   18.2240 C.3     1  UNL1        0.4200
     26 F          -1.9393   74.2566   16.9782 F       1  UNL1       -0.1658
     27 F          -1.8675   72.3054   18.1018 F       1  UNL1       -0.1658
     28 F          -2.7743   74.1333   19.0564 F       1  UNL1       -0.1658
     29 C          10.0922   77.7200   28.4030 C.3     1  UNL1        0.1535
     30 C           9.9509   79.1330   28.9092 C.2     1  UNL1        0.2443
     31 O           9.5925   80.0435   28.1132 O.2     1  UNL1       -0.2730
     32 N          10.1138   79.4079   30.3108 N.am    1  UNL1       -0.2825
     33 H          10.2759   78.5952   30.9478 H       1  UNL1        0.1549
     34 C           9.8035   80.6727   30.9164 C.ar    1  UNL1        0.0535
     35 C          10.2095   81.8848   30.3352 C.ar    1  UNL1        0.0353
     36 C           9.8877   83.0904   30.9638 C.ar    1  UNL1        0.1002
     37 N           9.1975   83.0868   32.1350 N.ar    1  UNL1       -0.2422
     38 C           8.8085   81.9276   32.7286 C.ar    1  UNL1        0.1002
     39 C           9.1138   80.7007   32.1358 C.ar    1  UNL1        0.0353
     40 C           9.8679   76.7084   29.5432 C.3     1  UNL1        0.0569
     41 C           8.5553   75.9898   29.3968 C.ar    1  UNL1       -0.0017
     42 C           8.3731   74.7008   28.9047 C.ar    1  UNL1        0.0681
     43 N           7.0827   74.3201   29.0422 N.ar    1  UNL1       -0.3523
     44 C           6.4512   75.3510   29.6300 C.ar    1  UNL1        0.0563
     45 C           5.1140   75.4098   30.0206 C.ar    1  UNL1        0.0170
     46 C           4.6687   76.5761   30.6688 C.ar    1  UNL1        0.0015
     47 C           5.5599   77.6444   30.9119 C.ar    1  UNL1        0.0001
     48 C           6.9043   77.5568   30.5078 C.ar    1  UNL1        0.0012
     49 C           7.3166   76.3890   29.8639 C.ar    1  UNL1        0.0131
     50 H           6.6711   73.3987   28.7734 H       1  UNL1        0.1660
@<TRIPOS>BOND
     1     1     2    2
     2     2     3   am
     3     3    29    1
     4    29    40    1
     5    40    41    1
     6    41    42   ar
     7    42    43   ar
     8    43    44   ar
     9    44    45   ar
    10    45    46   ar
    11    46    47   ar
    12    47    48   ar
    13    48    49   ar
    14    29    30    1
    15    30    31    2
    16    30    32   am
    17    32    34    1
    18    34    35   ar
    19    35    36   ar
    20    36    37   ar
    21    37    38   ar
    22    38    39   ar
    23     2     5    1
    24     5     6   ar
    25     6     7   ar
    26     7     8    1
    27     7     9   ar
    28     9    13    1
    29    13    14    1
    30    14    15    1
    31    15    16    1
    32    16    19    1
    33    19    20   ar
    34    20    21   ar
    35    21    22   ar
    36    22    25    1
    37    25    26    1
    38    25    27    1
    39    25    28    1
    40    22    23   ar
    41    23    24   ar
    42    16    17    1
    43    17    18    1
    44     9    10   ar
    45    10    11   ar
    46    11    12    1
    47    49    41   ar
    48    39    34   ar
    49    11     5   ar
    50    49    44   ar
    51    18    13    1
    52    24    19   ar
    53     3     4    1
    54    43    50    1
    55    32    33    1
@<TRIPOS>MOLECULE
*****
 50 55 0 0 0
SMALL
GASTEIGER

@<TRIPOS>ATOM
      1 O          10.5184   76.1345   26.1599 O.2     1  UNL1       -0.2701
      2 C           9.3664   76.6442   26.2298 C.2     1  UNL1        0.2484
      3 N           9.0404   77.5218   27.3194 N.am    1  UNL1       -0.2945
      4 H           8.1885   78.1227   27.2436 H       1  UNL1        0.1501
      5 C           8.3800   76.3552   25.1643 C.ar    1  UNL1        0.0817
      6 C           7.0066   76.3987   25.4610 C.ar    1  UNL1        0.0194
      7 C           6.0535   76.1255   24.4740 C.ar    1  UNL1        0.0712
      8 CL          4.3486   76.1494   24.9038 Cl      1  UNL1       -0.0810
      9 C           6.4663   75.8141   23.1680 C.ar    1  UNL1        0.0609
     10 C           7.8329   75.7831   22.8640 C.ar    1  UNL1        0.0451
     11 C           8.7862   76.0554   23.8494 C.ar    1  UNL1        0.1457
     12 F          10.0974   76.0743   23.4998 F       1  UNL1       -0.2040
     13 N           5.5035   75.5393   22.1415 N.pl3   1  UNL1       -0.3033
     14 C           4.9891   76.6341   21.3162 C.3     1  UNL1        0.1123
     15 C           3.5035   76.4104   21.0209 C.3     1  UNL1        0.1136
     16 N           3.2353   75.0371   20.5562 N.pl3   1  UNL1       -0.2897
     17 C           4.3170   74.0385   20.5607 C.3     1  UNL1        0.1136
     18 C           5.1550   74.1466   21.8403 C.3     1  UNL1        0.1123
     19 C           1.9697   74.7157   19.9335 C.ar    1  UNL1        0.1318
     20 C           1.2590   75.6687   19.1823 C.ar    1  UNL1        0.0343
     21 C           0.0422   75.3188   18.5949 C.ar    1  UNL1        0.0083
     22 C          -0.4637   74.0185   18.7358 C.ar    1  UNL1        0.0906
     23 C           0.2591   73.1043   19.5164 C.ar    1  UNL1        0.1041
     24 N           1.4409   73.4680   20.0802 N.ar    1  UNL1       -0.2292
     25 C          -1.8007   73.6438   18.1489 C.3     1  UNL1        0.4200
     26 F          -1.9463   74.1829   16.8824 F       1  UNL1       -0.1658
     27 F          -1.8915   72.2669   18.0658 F       1  UNL1       -0.1658
     28 F          -2.8316   74.1170   18.9423 F       1  UNL1       -0.1658
     29 C           9.9595   77.7414   28.4399 C.3     1  UNL1        0.1535
     30 C           9.8438   79.1634   28.9270 C.2     1  UNL1        0.2443
     31 O           9.4301   80.0568   28.1384 O.2     1  UNL1       -0.2730
     32 N          10.0951   79.4661   30.3096 N.am    1  UNL1       -0.2825
     33 H          10.3022   78.6666   30.9503 H       1  UNL1        0.1549
     34 C           9.8180   80.7413   30.9095 C.ar    1  UNL1        0.0535
     35 C          10.2724   81.9386   30.3335 C.ar    1  UNL1        0.0353
     36 C           9.9814   83.1550   30.9563 C.ar    1  UNL1        0.1002
     37 N           9.2742   83.1757   32.1172 N.ar    1  UNL1       -0.2422
     38 C           8.8384   82.0307   32.7059 C.ar    1  UNL1        0.1002
     39 C           9.1116   80.7936   32.1186 C.ar    1  UNL1        0.0353
     40 C           9.6535   76.7495   29.5784 C.3     1  UNL1        0.0569
     41 C           8.1739   76.5931   29.7952 C.ar    1  UNL1       -0.0017
     42 C           7.3328   77.5073   30.4223 C.ar    1  UNL1        0.0681
     43 N           6.0437   77.1111   30.3205 N.ar    1  UNL1       -0.3523
     44 C           6.0615   75.9625   29.6222 C.ar    1  UNL1        0.0563
     45 C           4.9643   75.2014   29.2213 C.ar    1  UNL1        0.0170
     46 C           5.2084   74.0512   28.4491 C.ar    1  UNL1        0.0015
     47 C           6.5282   73.6928   28.0967 C.ar    1  UNL1        0.0001
     48 C           7.6161   74.4804   28.5141 C.ar    1  UNL1        0.0012
     49 C           7.3436   75.6137   29.2819 C.ar    1  UNL1        0.0131
     50 H           5.2047   77.6147   30.6851 H       1  UNL1        0.1660
@<TRIPOS>BOND
     1     1     2    2
     2     2     3   am
     3     3    29    1
     4    29    40    1
     5    40    41    1
     6    41    42   ar
     7    42    43   ar
     8    43    44   ar
     9    44    45   ar
    10    45    46   ar
    11    46    47   ar
    12    47    48   ar
    13    48    49   ar
    14    29    30    1
    15    30    31    2
    16    30    32   am
    17    32    34    1
    18    34    35   ar
    19    35    36   ar
    20    36    37   ar
    21    37    38   ar
    22    38    39   ar
    23     2     5    1
    24     5     6   ar
    25     6     7   ar
    26     7     8    1
    27     7     9   ar
    28     9    13    1
    29    13    14    1
    30    14    15    1
    31    15    16    1
    32    16    19    1
    33    19    20   ar
    34    20    21   ar
    35    21    22   ar
    36    22    25    1
    37    25    26    1
    38    25    27    1
    39    25    28    1
    40    22    23   ar
    41    23    24   ar
    42    16    17    1
    43    17    18    1
    44     9    10   ar
    45    10    11   ar
    46    11    12    1
    47    49    41   ar
    48    39    34   ar
    49    11     5   ar
    50    49    44   ar
    51    18    13    1
    52    24    19   ar
    53     3     4    1
    54    43    50    1
    55    32    33    1
@<TRIPOS>MOLECULE
*****
 50 55 0 0 0
SMALL
GASTEIGER

@<TRIPOS>ATOM
      1 O           8.7088   74.6541   24.9073 O.2     1  UNL1       -0.2701
      2 C           8.3293   75.7217   25.4623 C.2     1  UNL1        0.2484
      3 N           7.0651   75.7602   26.1437 N.am    1  UNL1       -0.2945
      4 H           6.8700   76.5523   26.7972 H       1  UNL1        0.1501
      5 C           9.2133   76.9088   25.4312 C.ar    1  UNL1        0.0817
      6 C           9.0242   77.8879   24.4404 C.ar    1  UNL1        0.0194
      7 C           9.8482   79.0172   24.3855 C.ar    1  UNL1        0.0712
      8 CL          9.6010   80.1927   23.1013 Cl      1  UNL1       -0.0810
      9 C          10.8704   79.1858   25.3340 C.ar    1  UNL1        0.0609
     10 C          11.0539   78.2202   26.3314 C.ar    1  UNL1        0.0451
     11 C          10.2317   77.0912   26.3870 C.ar    1  UNL1        0.1457
     12 F          10.4032   76.2098   27.4046 F       1  UNL1       -0.2040
     13 N          11.7194   80.3409   25.2983 N.pl3   1  UNL1       -0.3033
     14 C          11.2486   81.6063   25.8651 C.3     1  UNL1        0.1123
     15 C          11.7356   82.7757   25.0051 C.3     1  UNL1        0.1136
     16 N          13.1742   82.6721   24.6989 N.pl3   1  UNL1       -0.2897
     17 C          13.9216   81.4668   25.0937 C.3     1  UNL1        0.1136
     18 C          13.0999   80.2010   24.8221 C.3     1  UNL1        0.1123
     19 C          13.8888   83.8154   24.1746 C.ar    1  UNL1        0.1318
     20 C          13.9334   85.0355   24.8725 C.ar    1  UNL1        0.0343
     21 C          14.6359   86.1148   24.3342 C.ar    1  UNL1        0.0083
     22 C          15.3106   85.9815   23.1121 C.ar    1  UNL1        0.0906
     23 C          15.2189   84.7584   22.4315 C.ar    1  UNL1        0.1041
     24 N          14.5277   83.7218   22.9742 N.ar    1  UNL1       -0.2292
     25 C          16.0298   87.1546   22.4966 C.3     1  UNL1        0.4200
     26 F          17.2414   87.3714   23.1298 F       1  UNL1       -0.1658
     27 F          16.2605   86.8959   21.1584 F       1  UNL1       -0.1658
     28 F          15.2701   88.3062   22.6091 F       1  UNL1       -0.1658
     29 C           6.1264   74.6354   26.1006 C.3     1  UNL1        0.1535
     30 C           6.1299   74.0168   24.7257 C.2     1  UNL1        0.2443
     31 O           6.1710   72.7613   24.6113 O.2     1  UNL1       -0.2730
     32 N           5.9718   74.8531   23.5673 N.am    1  UNL1       -0.2825
     33 H           5.8048   75.8728   23.7255 H       1  UNL1        0.1549
     34 C           5.7613   74.3454   22.2404 C.ar    1  UNL1        0.0535
     35 C           6.8188   73.8266   21.4759 C.ar    1  UNL1        0.0353
     36 C           6.5657   73.3479   20.1879 C.ar    1  UNL1        0.1002
     37 N           5.3070   73.3962   19.6766 N.ar    1  UNL1       -0.2422
     38 C           4.2689   73.9100   20.3878 C.ar    1  UNL1        0.1002
     39 C           4.4795   74.4032   21.6771 C.ar    1  UNL1        0.0353
     40 C           6.5020   73.5904   27.1685 C.3     1  UNL1        0.0569
     41 C           6.8282   74.2367   28.4864 C.ar    1  UNL1       -0.0017
     42 C           8.0934   74.3566   29.0533 C.ar    1  UNL1        0.0681
     43 N           8.0399   75.1127   30.1735 N.ar    1  UNL1       -0.3523
     44 C           6.7551   75.4834   30.3111 C.ar    1  UNL1        0.0563
     45 C           6.2168   76.3132   31.2939 C.ar    1  UNL1        0.0170
     46 C           4.8445   76.6139   31.2216 C.ar    1  UNL1        0.0015
     47 C           4.0504   76.0869   30.1793 C.ar    1  UNL1        0.0001
     48 C           4.6209   75.2534   29.2005 C.ar    1  UNL1        0.0012
     49 C           5.9840   74.9698   29.2999 C.ar    1  UNL1        0.0131
     50 H           8.8422   75.3781   30.7870 H       1  UNL1        0.1660
@<TRIPOS>BOND
     1     1     2    2
     2     2     3   am
     3     3    29    1
     4    29    40    1
     5    40    41    1
     6    41    42   ar
     7    42    43   ar
     8    43    44   ar
     9    44    45   ar
    10    45    46   ar
    11    46    47   ar
    12    47    48   ar
    13    48    49   ar
    14    29    30    1
    15    30    31    2
    16    30    32   am
    17    32    34    1
    18    34    35   ar
    19    35    36   ar
    20    36    37   ar
    21    37    38   ar
    22    38    39   ar
    23     2     5    1
    24     5     6   ar
    25     6     7   ar
    26     7     8    1
    27     7     9   ar
    28     9    13    1
    29    13    14    1
    30    14    15    1
    31    15    16    1
    32    16    19    1
    33    19    20   ar
    34    20    21   ar
    35    21    22   ar
    36    22    25    1
    37    25    26    1
    38    25    27    1
    39    25    28    1
    40    22    23   ar
    41    23    24   ar
    42    16    17    1
    43    17    18    1
    44     9    10   ar
    45    10    11   ar
    46    11    12    1
    47    49    41   ar
    48    39    34   ar
    49    11     5   ar
    50    49    44   ar
    51    18    13    1
    52    24    19   ar
    53     3     4    1
    54    43    50    1
    55    32    33    1
@<TRIPOS>MOLECULE
*****
 50 55 0 0 0
SMALL
GASTEIGER

@<TRIPOS>ATOM
      1 O           8.0592   74.8435   25.7288 O.2     1  UNL1       -0.2701
      2 C           8.0675   75.6969   24.7996 C.2     1  UNL1        0.2484
      3 N           7.1743   75.5452   23.6848 N.am    1  UNL1       -0.2945
      4 H           7.0128   76.3635   23.0548 H       1  UNL1        0.1501
      5 C           8.9762   76.8619   24.8935 C.ar    1  UNL1        0.0817
      6 C           8.8129   77.9413   24.0079 C.ar    1  UNL1        0.0194
      7 C           9.6604   79.0525   24.0720 C.ar    1  UNL1        0.0712
      8 CL          9.4446   80.3586   22.9147 Cl      1  UNL1       -0.0810
      9 C          10.6807   79.1012   25.0362 C.ar    1  UNL1        0.0609
     10 C          10.8387   78.0346   25.9298 C.ar    1  UNL1        0.0451
     11 C           9.9929   76.9236   25.8664 C.ar    1  UNL1        0.1457
     12 F          10.1406   75.9389   26.7885 F       1  UNL1       -0.2040
     13 N          11.5537   80.2355   25.1222 N.pl3   1  UNL1       -0.3033
     14 C          11.0955   81.4559   25.7892 C.3     1  UNL1        0.1123
     15 C          11.6264   82.6858   25.0478 C.3     1  UNL1        0.1136
     16 N          13.0694   82.5776   24.7649 N.pl3   1  UNL1       -0.2897
     17 C          13.7826   81.3255   25.0667 C.3     1  UNL1        0.1136
     18 C          12.9419   80.1076   24.6655 C.3     1  UNL1        0.1123
     19 C          13.8194   83.7466   24.3603 C.ar    1  UNL1        0.1318
     20 C          13.9303   84.8722   25.1960 C.ar    1  UNL1        0.0343
     21 C          14.6651   85.9798   24.7703 C.ar    1  UNL1        0.0083
     22 C          15.3066   85.9669   23.5234 C.ar    1  UNL1        0.0906
     23 C          15.1490   84.8381   22.7057 C.ar    1  UNL1        0.1041
     24 N          14.4273   83.7719   23.1406 N.ar    1  UNL1       -0.2292
     25 C          16.0604   87.1763   23.0316 C.3     1  UNL1        0.4200
     26 F          16.2390   87.1158   21.6604 F       1  UNL1       -0.1658
     27 F          15.3439   88.3168   23.3429 F       1  UNL1       -0.1658
     28 F          17.3072   87.2498   23.6281 F       1  UNL1       -0.1658
     29 C           6.3417   74.3509   23.5151 C.3     1  UNL1        0.1535
     30 C           5.1331   74.6831   22.6774 C.2     1  UNL1        0.2443
     31 O           4.2549   75.4624   23.1384 O.2     1  UNL1       -0.2730
     32 N           5.0491   74.2029   21.3251 N.am    1  UNL1       -0.2825
     33 H           5.8680   73.6745   20.9473 H       1  UNL1        0.1549
     34 C           4.0458   74.6277   20.3893 C.ar    1  UNL1        0.0535
     35 C           2.6859   74.3409   20.5895 C.ar    1  UNL1        0.0353
     36 C           1.7468   74.7714   19.6488 C.ar    1  UNL1        0.1002
     37 N           2.1502   75.4519   18.5433 N.ar    1  UNL1       -0.2422
     38 C           3.4618   75.7267   18.3156 C.ar    1  UNL1        0.1002
     39 C           4.4331   75.3104   19.2285 C.ar    1  UNL1        0.0353
     40 C           7.1619   73.2213   22.8633 C.3     1  UNL1        0.0569
     41 C           8.4000   73.7501   22.1937 C.ar    1  UNL1       -0.0017
     42 C           8.5085   74.9465   21.4911 C.ar    1  UNL1        0.0681
     43 N           9.7950   75.1749   21.1420 N.ar    1  UNL1       -0.3523
     44 C          10.5022   74.1412   21.6302 C.ar    1  UNL1        0.0563
     45 C          11.8827   73.9571   21.5646 C.ar    1  UNL1        0.0170
     46 C          12.4251   72.8196   22.1897 C.ar    1  UNL1        0.0015
     47 C          11.5858   71.9033   22.8610 C.ar    1  UNL1        0.0001
     48 C          10.1963   72.1153   22.9123 C.ar    1  UNL1        0.0012
     49 C           9.6864   73.2506   22.2803 C.ar    1  UNL1        0.0131
     50 H          10.1643   76.0036   20.6249 H       1  UNL1        0.1660
@<TRIPOS>BOND
     1     1     2    2
     2     2     3   am
     3     3    29    1
     4    29    40    1
     5    40    41    1
     6    41    42   ar
     7    42    43   ar
     8    43    44   ar
     9    44    45   ar
    10    45    46   ar
    11    46    47   ar
    12    47    48   ar
    13    48    49   ar
    14    29    30    1
    15    30    31    2
    16    30    32   am
    17    32    34    1
    18    34    35   ar
    19    35    36   ar
    20    36    37   ar
    21    37    38   ar
    22    38    39   ar
    23     2     5    1
    24     5     6   ar
    25     6     7   ar
    26     7     8    1
    27     7     9   ar
    28     9    13    1
    29    13    14    1
    30    14    15    1
    31    15    16    1
    32    16    19    1
    33    19    20   ar
    34    20    21   ar
    35    21    22   ar
    36    22    25    1
    37    25    26    1
    38    25    27    1
    39    25    28    1
    40    22    23   ar
    41    23    24   ar
    42    16    17    1
    43    17    18    1
    44     9    10   ar
    45    10    11   ar
    46    11    12    1
    47    49    41   ar
    48    39    34   ar
    49    11     5   ar
    50    49    44   ar
    51    18    13    1
    52    24    19   ar
    53     3     4    1
    54    43    50    1
    55    32    33    1
@<TRIPOS>MOLECULE
*****
 50 55 0 0 0
SMALL
GASTEIGER

@<TRIPOS>ATOM
      1 O          10.4603   74.5443   25.6187 O.2     1  UNL1       -0.2701
      2 C           9.7719   75.5674   25.3518 C.2     1  UNL1        0.2484
      3 N           8.3554   75.4401   25.1493 N.am    1  UNL1       -0.2945
      4 H           7.7647   76.3021   25.1724 H       1  UNL1        0.1501
      5 C          10.4340   76.8900   25.2872 C.ar    1  UNL1        0.0817
      6 C          10.0382   77.9071   26.1731 C.ar    1  UNL1        0.0194
      7 C          10.6442   79.1674   26.1304 C.ar    1  UNL1        0.0712
      8 CL         10.0849   80.4211   27.2293 Cl      1  UNL1       -0.0810
      9 C          11.6670   79.4222   25.2021 C.ar    1  UNL1        0.0609
     10 C          12.0745   78.4079   24.3268 C.ar    1  UNL1        0.0451
     11 C          11.4695   77.1486   24.3680 C.ar    1  UNL1        0.1457
     12 F          11.9343   76.1753   23.5444 F       1  UNL1       -0.2040
     13 N          12.3052   80.7053   25.1494 N.pl3   1  UNL1       -0.3033
     14 C          11.4930   81.9229   25.1920 C.3     1  UNL1        0.1123
     15 C          12.0958   82.9840   24.2673 C.3     1  UNL1        0.1136
     16 N          13.5469   83.1381   24.4786 N.pl3   1  UNL1       -0.2897
     17 C          14.2558   82.2213   25.3866 C.3     1  UNL1        0.1136
     18 C          13.7696   80.7796   25.1962 C.3     1  UNL1        0.1123
     19 C          14.2407   84.2875   23.9400 C.ar    1  UNL1        0.1318
     20 C          14.3280   85.4939   24.6573 C.ar    1  UNL1        0.0343
     21 C          15.0087   86.5797   24.1043 C.ar    1  UNL1        0.0083
     22 C          15.6197   86.4662   22.8472 C.ar    1  UNL1        0.0906
     23 C          15.4863   85.2567   22.1494 C.ar    1  UNL1        0.1041
     24 N          14.8173   84.2134   22.7072 N.ar    1  UNL1       -0.2292
     25 C          16.3136   87.6472   22.2178 C.3     1  UNL1        0.4200
     26 F          15.4732   88.7466   22.1849 F       1  UNL1       -0.1658
     27 F          17.4382   87.9616   22.9576 F       1  UNL1       -0.1658
     28 F          16.6947   87.3542   20.9198 F       1  UNL1       -0.1658
     29 C           7.6928   74.1335   25.1038 C.3     1  UNL1        0.1535
     30 C           6.4912   74.1359   26.0141 C.2     1  UNL1        0.2443
     31 O           5.3413   74.2999   25.5220 O.2     1  UNL1       -0.2730
     32 N           6.6543   73.8386   27.4110 N.am    1  UNL1       -0.2825
     33 H           7.6105   73.5757   27.7415 H       1  UNL1        0.1549
     34 C           5.5582   73.6192   28.3127 C.ar    1  UNL1        0.0535
     35 C           4.7850   72.4484   28.2581 C.ar    1  UNL1        0.0353
     36 C           3.7256   72.2816   29.1537 C.ar    1  UNL1        0.1002
     37 N           3.4401   73.2521   30.0618 N.ar    1  UNL1       -0.2422
     38 C           4.1606   74.4031   30.1241 C.ar    1  UNL1        0.1002
     39 C           5.2247   74.6115   29.2443 C.ar    1  UNL1        0.0353
     40 C           7.2796   73.7989   23.6578 C.3     1  UNL1        0.0569
     41 C           8.3671   74.1402   22.6771 C.ar    1  UNL1       -0.0017
     42 C           8.4398   75.2897   21.8960 C.ar    1  UNL1        0.0681
     43 N           9.6174   75.3369   21.2325 N.ar    1  UNL1       -0.3523
     44 C          10.2952   74.2352   21.5986 C.ar    1  UNL1        0.0563
     45 C          11.5842   73.8701   21.2127 C.ar    1  UNL1        0.0170
     46 C          12.1251   72.6914   21.7576 C.ar    1  UNL1        0.0015
     47 C          11.3753   71.9141   22.6677 C.ar    1  UNL1        0.0001
     48 C          10.0773   72.3076   23.0402 C.ar    1  UNL1        0.0012
     49 C           9.5658   73.4796   22.4808 C.ar    1  UNL1        0.0131
     50 H           9.9431   76.0938   20.5910 H       1  UNL1        0.1660
@<TRIPOS>BOND
     1     1     2    2
     2     2     3   am
     3     3    29    1
     4    29    40    1
     5    40    41    1
     6    41    42   ar
     7    42    43   ar
     8    43    44   ar
     9    44    45   ar
    10    45    46   ar
    11    46    47   ar
    12    47    48   ar
    13    48    49   ar
    14    29    30    1
    15    30    31    2
    16    30    32   am
    17    32    34    1
    18    34    35   ar
    19    35    36   ar
    20    36    37   ar
    21    37    38   ar
    22    38    39   ar
    23     2     5    1
    24     5     6   ar
    25     6     7   ar
    26     7     8    1
    27     7     9   ar
    28     9    13    1
    29    13    14    1
    30    14    15    1
    31    15    16    1
    32    16    19    1
    33    19    20   ar
    34    20    21   ar
    35    21    22   ar
    36    22    25    1
    37    25    26    1
    38    25    27    1
    39    25    28    1
    40    22    23   ar
    41    23    24   ar
    42    16    17    1
    43    17    18    1
    44     9    10   ar
    45    10    11   ar
    46    11    12    1
    47    49    41   ar
    48    39    34   ar
    49    11     5   ar
    50    49    44   ar
    51    18    13    1
    52    24    19   ar
    53     3     4    1
    54    43    50    1
    55    32    33    1
@<TRIPOS>MOLECULE
*****
 50 55 0 0 0
SMALL
GASTEIGER

@<TRIPOS>ATOM
      1 O           7.6503   74.6932   24.9571 O.2     1  UNL1       -0.2701
      2 C           7.9793   75.4342   23.9904 C.2     1  UNL1        0.2484
      3 N           7.4677   75.1602   22.6762 N.am    1  UNL1       -0.2945
      4 H           7.5417   75.9015   21.9431 H       1  UNL1        0.1501
      5 C           8.8615   76.5974   24.2362 C.ar    1  UNL1        0.0817
      6 C           8.6266   77.8023   23.5513 C.ar    1  UNL1        0.0194
      7 C           9.4477   78.9154   23.7615 C.ar    1  UNL1        0.0712
      8 CL          9.1409   80.3869   22.8492 Cl      1  UNL1       -0.0810
      9 C          10.5134   78.8380   24.6732 C.ar    1  UNL1        0.0609
     10 C          10.7431   77.6442   25.3683 C.ar    1  UNL1        0.0451
     11 C           9.9238   76.5312   25.1587 C.ar    1  UNL1        0.1457
     12 F          10.1426   75.4131   25.8960 F       1  UNL1       -0.2040
     13 N          11.3604   79.9710   24.9077 N.pl3   1  UNL1       -0.3033
     14 C          10.8515   81.1131   25.6699 C.3     1  UNL1        0.1123
     15 C          11.3899   82.4175   25.0760 C.3     1  UNL1        0.1136
     16 N          12.8454   82.3589   24.8475 N.pl3   1  UNL1       -0.2897
     17 C          13.5687   81.0938   25.0567 C.3     1  UNL1        0.1136
     18 C          12.7688   79.9090   24.5020 C.3     1  UNL1        0.1123
     19 C          13.5895   83.5728   24.5922 C.ar    1  UNL1        0.1318
     20 C          13.7611   84.5509   25.5880 C.ar    1  UNL1        0.0343
     21 C          14.4882   85.7078   25.3030 C.ar    1  UNL1        0.0083
     22 C          15.0619   85.8892   24.0364 C.ar    1  UNL1        0.0906
     23 C          14.8445   84.9053   23.0604 C.ar    1  UNL1        0.1041
     24 N          14.1317   83.7878   23.3603 N.ar    1  UNL1       -0.2292
     25 C          15.8058   87.1568   23.7013 C.3     1  UNL1        0.4200
     26 F          15.7075   87.4377   22.3495 F       1  UNL1       -0.1658
     27 F          15.2641   88.2059   24.4202 F       1  UNL1       -0.1658
     28 F          17.1468   87.0348   24.0220 F       1  UNL1       -0.1658
     29 C           6.6799   73.9588   22.3857 C.3     1  UNL1        0.1535
     30 C           5.3209   74.3505   21.8637 C.2     1  UNL1        0.2443
     31 O           4.4793   74.8641   22.6506 O.2     1  UNL1       -0.2730
     32 N           5.0383   74.2416   20.4585 N.am    1  UNL1       -0.2825
     33 H           5.8168   73.9383   19.8302 H       1  UNL1        0.1549
     34 C           3.8564   74.7733   19.8395 C.ar    1  UNL1        0.0535
     35 C           3.9315   75.7100   18.7961 C.ar    1  UNL1        0.0353
     36 C           2.7537   76.2021   18.2279 C.ar    1  UNL1        0.1002
     37 N           1.5458   75.7848   18.6914 N.ar    1  UNL1       -0.2422
     38 C           1.4443   74.8932   19.7124 C.ar    1  UNL1        0.1002
     39 C           2.5968   74.3803   20.3111 C.ar    1  UNL1        0.0353
     40 C           7.4204   73.0735   21.3652 C.3     1  UNL1        0.0569
     41 C           8.6690   72.4758   21.9524 C.ar    1  UNL1       -0.0017
     42 C           8.8700   71.1353   22.2679 C.ar    1  UNL1        0.0681
     43 N          10.1514   70.9255   22.6460 N.ar    1  UNL1       -0.3523
     44 C          10.7653   72.1182   22.5581 C.ar    1  UNL1        0.0563
     45 C          12.1103   72.3951   22.8001 C.ar    1  UNL1        0.0170
     46 C          12.5570   73.7137   22.5989 C.ar    1  UNL1        0.0015
     47 C          11.6607   74.7142   22.1628 C.ar    1  UNL1        0.0001
     48 C          10.3091   74.4057   21.9252 C.ar    1  UNL1        0.0012
     49 C           9.8940   73.0900   22.1366 C.ar    1  UNL1        0.0131
     50 H          10.5807   70.0138   22.9199 H       1  UNL1        0.1660
@<TRIPOS>BOND
     1     1     2    2
     2     2     3   am
     3     3    29    1
     4    29    40    1
     5    40    41    1
     6    41    42   ar
     7    42    43   ar
     8    43    44   ar
     9    44    45   ar
    10    45    46   ar
    11    46    47   ar
    12    47    48   ar
    13    48    49   ar
    14    29    30    1
    15    30    31    2
    16    30    32   am
    17    32    34    1
    18    34    35   ar
    19    35    36   ar
    20    36    37   ar
    21    37    38   ar
    22    38    39   ar
    23     2     5    1
    24     5     6   ar
    25     6     7   ar
    26     7     8    1
    27     7     9   ar
    28     9    13    1
    29    13    14    1
    30    14    15    1
    31    15    16    1
    32    16    19    1
    33    19    20   ar
    34    20    21   ar
    35    21    22   ar
    36    22    25    1
    37    25    26    1
    38    25    27    1
    39    25    28    1
    40    22    23   ar
    41    23    24   ar
    42    16    17    1
    43    17    18    1
    44     9    10   ar
    45    10    11   ar
    46    11    12    1
    47    49    41   ar
    48    39    34   ar
    49    11     5   ar
    50    49    44   ar
    51    18    13    1
    52    24    19   ar
    53     3     4    1
    54    43    50    1
    55    32    33    1
@<TRIPOS>MOLECULE
*****
 50 55 0 0 0
SMALL
GASTEIGER

@<TRIPOS>ATOM
      1 O          10.5242   74.8164   25.8031 O.2     1  UNL1       -0.2701
      2 C           9.7753   75.8172   25.6314 C.2     1  UNL1        0.2484
      3 N          10.0373   77.0345   26.3478 N.am    1  UNL1       -0.2945
      4 H           9.5766   77.9161   26.0267 H       1  UNL1        0.1501
      5 C           8.6576   75.7288   24.6646 C.ar    1  UNL1        0.0817
      6 C           8.7979   76.3023   23.3889 C.ar    1  UNL1        0.0194
      7 C           7.7557   76.2371   22.4578 C.ar    1  UNL1        0.0712
      8 CL          7.9618   77.0072   20.8905 Cl      1  UNL1       -0.0810
      9 C           6.5578   75.5837   22.7911 C.ar    1  UNL1        0.0609
     10 C           6.4184   74.9987   24.0558 C.ar    1  UNL1        0.0451
     11 C           7.4586   75.0637   24.9871 C.ar    1  UNL1        0.1457
     12 F           7.3065   74.4324   26.1788 F       1  UNL1       -0.2040
     13 N           5.4820   75.4997   21.8468 N.pl3   1  UNL1       -0.3033
     14 C           4.5924   76.6470   21.6552 C.3     1  UNL1        0.1123
     15 C           3.1572   76.1621   21.4326 C.3     1  UNL1        0.1136
     16 N           3.0895   75.0858   20.4272 N.pl3   1  UNL1       -0.2897
     17 C           4.3319   74.5164   19.8797 C.3     1  UNL1        0.1136
     18 C           5.3753   74.3170   20.9855 C.3     1  UNL1        0.1123
     19 C           1.8174   74.7115   19.8491 C.ar    1  UNL1        0.1318
     20 C           1.3021   73.4106   19.9899 C.ar    1  UNL1        0.0343
     21 C           0.0695   73.0895   19.4194 C.ar    1  UNL1        0.0083
     22 C          -0.6634   74.0619   18.7238 C.ar    1  UNL1        0.0906
     23 C          -0.1036   75.3400   18.5795 C.ar    1  UNL1        0.1041
     24 N           1.0991   75.6293   19.1423 N.ar    1  UNL1       -0.2292
     25 C          -1.9713   73.7134   18.0603 C.3     1  UNL1        0.4200
     26 F          -1.9732   74.1251   16.7387 F       1  UNL1       -0.1658
     27 F          -2.1541   72.3439   18.1059 F       1  UNL1       -0.1658
     28 F          -3.0269   74.3314   18.7081 F       1  UNL1       -0.1658
     29 C          11.0693   77.1170   27.3854 C.3     1  UNL1        0.1535
     30 C          12.3860   77.5153   26.7686 C.2     1  UNL1        0.2443
     31 O          13.4621   77.1354   27.3060 O.2     1  UNL1       -0.2730
     32 N          12.4021   78.2234   25.5177 N.am    1  UNL1       -0.2825
     33 H          11.4850   78.3941   25.0462 H       1  UNL1        0.1549
     34 C          13.5945   78.4676   24.7553 C.ar    1  UNL1        0.0535
     35 C          14.0815   77.5285   23.8320 C.ar    1  UNL1        0.0353
     36 C          15.2483   77.8090   23.1164 C.ar    1  UNL1        0.1002
     37 N          15.9117   78.9775   23.3231 N.ar    1  UNL1       -0.2422
     38 C          15.4726   79.8958   24.2240 C.ar    1  UNL1        0.1002
     39 C          14.3132   79.6525   24.9632 C.ar    1  UNL1        0.0353
     40 C          10.6496   78.1259   28.4713 C.3     1  UNL1        0.0569
     41 C           9.3283   77.7592   29.0883 C.ar    1  UNL1       -0.0017
     42 C           8.2683   78.6254   29.3389 C.ar    1  UNL1        0.0681
     43 N           7.1871   77.9372   29.7706 N.ar    1  UNL1       -0.3523
     44 C           7.5498   76.6428   29.7811 C.ar    1  UNL1        0.0563
     45 C           6.7535   75.5458   30.1074 C.ar    1  UNL1        0.0170
     46 C           7.3243   74.2644   30.0032 C.ar    1  UNL1        0.0015
     47 C           8.6620   74.1093   29.5775 C.ar    1  UNL1        0.0001
     48 C           9.4416   75.2342   29.2534 C.ar    1  UNL1        0.0012
     49 C           8.8495   76.4929   29.3696 C.ar    1  UNL1        0.0131
     50 H           6.2519   78.3322   30.0152 H       1  UNL1        0.1660
@<TRIPOS>BOND
     1     1     2    2
     2     2     3   am
     3     3    29    1
     4    29    40    1
     5    40    41    1
     6    41    42   ar
     7    42    43   ar
     8    43    44   ar
     9    44    45   ar
    10    45    46   ar
    11    46    47   ar
    12    47    48   ar
    13    48    49   ar
    14    29    30    1
    15    30    31    2
    16    30    32   am
    17    32    34    1
    18    34    35   ar
    19    35    36   ar
    20    36    37   ar
    21    37    38   ar
    22    38    39   ar
    23     2     5    1
    24     5     6   ar
    25     6     7   ar
    26     7     8    1
    27     7     9   ar
    28     9    13    1
    29    13    14    1
    30    14    15    1
    31    15    16    1
    32    16    19    1
    33    19    20   ar
    34    20    21   ar
    35    21    22   ar
    36    22    25    1
    37    25    26    1
    38    25    27    1
    39    25    28    1
    40    22    23   ar
    41    23    24   ar
    42    16    17    1
    43    17    18    1
    44     9    10   ar
    45    10    11   ar
    46    11    12    1
    47    49    41   ar
    48    39    34   ar
    49    11     5   ar
    50    49    44   ar
    51    18    13    1
    52    24    19   ar
    53     3     4    1
    54    43    50    1
    55    32    33    1
@<TRIPOS>MOLECULE
*****
 50 55 0 0 0
SMALL
GASTEIGER

@<TRIPOS>ATOM
      1 O          10.6801   75.4394   25.7423 O.2     1  UNL1       -0.2701
      2 C           9.7916   76.3134   25.5463 C.2     1  UNL1        0.2484
      3 N           9.8433   77.5559   26.2655 N.am    1  UNL1       -0.2945
      4 H           9.2619   78.3565   25.9286 H       1  UNL1        0.1501
      5 C           8.7284   76.0553   24.5488 C.ar    1  UNL1        0.0817
      6 C           7.3800   76.1883   24.9231 C.ar    1  UNL1        0.0194
      7 C           6.3556   75.9460   24.0016 C.ar    1  UNL1        0.0712
      8 CL          4.6836   76.0827   24.5283 Cl      1  UNL1       -0.0810
      9 C           6.6713   75.5759   22.6838 C.ar    1  UNL1        0.0609
     10 C           8.0133   75.4556   22.3023 C.ar    1  UNL1        0.0451
     11 C           9.0377   75.6969   23.2222 C.ar    1  UNL1        0.1457
     12 F          10.3246   75.6284   22.7970 F       1  UNL1       -0.2040
     13 N           5.6348   75.3316   21.7234 N.pl3   1  UNL1       -0.3033
     14 C           5.1328   76.4337   20.9003 C.3     1  UNL1        0.1123
     15 C           3.6220   76.2875   20.6990 C.3     1  UNL1        0.1136
     16 N           3.2511   74.9208   20.2883 N.pl3   1  UNL1       -0.2897
     17 C           4.2745   73.8630   20.2565 C.3     1  UNL1        0.1136
     18 C           5.1926   73.9540   21.4813 C.3     1  UNL1        0.1123
     19 C           1.9346   74.6568   19.7501 C.ar    1  UNL1        0.1318
     20 C           1.2148   75.6449   19.0550 C.ar    1  UNL1        0.0343
     21 C          -0.0519   75.3501   18.5484 C.ar    1  UNL1        0.0083
     22 C          -0.6001   74.0700   18.7140 C.ar    1  UNL1        0.0906
     23 C           0.1353   73.1199   19.4379 C.ar    1  UNL1        0.1041
     24 N           1.3661   73.4302   19.9234 N.ar    1  UNL1       -0.2292
     25 C          -1.9876   73.7552   18.2159 C.3     1  UNL1        0.4200
     26 F          -2.1768   74.2655   16.9432 F       1  UNL1       -0.1658
     27 F          -2.1587   72.3839   18.1817 F       1  UNL1       -0.1658
     28 F          -2.9429   74.3085   19.0509 F       1  UNL1       -0.1658
     29 C          10.8207   77.7949   27.3313 C.3     1  UNL1        0.1535
     30 C          12.2099   77.8561   26.7489 C.2     1  UNL1        0.2443
     31 O          13.1170   77.1247   27.2317 O.2     1  UNL1       -0.2730
     32 N          12.4590   78.6577   25.5819 N.am    1  UNL1       -0.2825
     33 H          11.6417   79.1370   25.1403 H       1  UNL1        0.1549
     34 C          13.6878   78.6241   24.8392 C.ar    1  UNL1        0.0535
     35 C          14.6212   79.6704   24.9154 C.ar    1  UNL1        0.0353
     36 C          15.8010   79.5948   24.1708 C.ar    1  UNL1        0.1002
     37 N          16.0356   78.5214   23.3703 N.ar    1  UNL1       -0.2422
     38 C          15.1409   77.5037   23.2637 C.ar    1  UNL1        0.1002
     39 C          13.9473   77.5421   23.9874 C.ar    1  UNL1        0.0353
     40 C          10.4845   79.1013   28.0755 C.3     1  UNL1        0.0569
     41 C           9.6285   78.8460   29.2851 C.ar    1  UNL1       -0.0017
     42 C           9.9662   79.1249   30.6060 C.ar    1  UNL1        0.0681
     43 N           8.9116   78.8980   31.4218 N.ar    1  UNL1       -0.3523
     44 C           7.9066   78.4923   30.6265 C.ar    1  UNL1        0.0563
     45 C           6.6004   78.1867   31.0065 C.ar    1  UNL1        0.0170
     46 C           5.6886   77.8276   29.9973 C.ar    1  UNL1        0.0015
     47 C           6.0971   77.7849   28.6461 C.ar    1  UNL1        0.0001
     48 C           7.4213   78.0996   28.2916 C.ar    1  UNL1        0.0012
     49 C           8.3043   78.4490   29.3146 C.ar    1  UNL1        0.0131
     50 H           8.8797   79.0404   32.4558 H       1  UNL1        0.1660
@<TRIPOS>BOND
     1     1     2    2
     2     2     3   am
     3     3    29    1
     4    29    40    1
     5    40    41    1
     6    41    42   ar
     7    42    43   ar
     8    43    44   ar
     9    44    45   ar
    10    45    46   ar
    11    46    47   ar
    12    47    48   ar
    13    48    49   ar
    14    29    30    1
    15    30    31    2
    16    30    32   am
    17    32    34    1
    18    34    35   ar
    19    35    36   ar
    20    36    37   ar
    21    37    38   ar
    22    38    39   ar
    23     2     5    1
    24     5     6   ar
    25     6     7   ar
    26     7     8    1
    27     7     9   ar
    28     9    13    1
    29    13    14    1
    30    14    15    1
    31    15    16    1
    32    16    19    1
    33    19    20   ar
    34    20    21   ar
    35    21    22   ar
    36    22    25    1
    37    25    26    1
    38    25    27    1
    39    25    28    1
    40    22    23   ar
    41    23    24   ar
    42    16    17    1
    43    17    18    1
    44     9    10   ar
    45    10    11   ar
    46    11    12    1
    47    49    41   ar
    48    39    34   ar
    49    11     5   ar
    50    49    44   ar
    51    18    13    1
    52    24    19   ar
    53     3     4    1
    54    43    50    1
    55    32    33    1
@<TRIPOS>MOLECULE
*****
 50 55 0 0 0
SMALL
GASTEIGER

@<TRIPOS>ATOM
      1 O          14.2308   83.1048   25.8378 O.2     1  UNL1       -0.2701
      2 C          13.5000   82.6896   24.8969 C.2     1  UNL1        0.2484
      3 N          13.5476   83.3405   23.6171 N.am    1  UNL1       -0.2945
      4 H          13.1355   82.8531   22.7894 H       1  UNL1        0.1501
      5 C          12.6300   81.5127   25.1201 C.ar    1  UNL1        0.0817
      6 C          13.1936   80.2250   25.1238 C.ar    1  UNL1        0.0194
      7 C          12.3936   79.0955   25.3279 C.ar    1  UNL1        0.0712
      8 CL         13.1372   77.5028   25.2804 Cl      1  UNL1       -0.0810
      9 C          11.0134   79.2437   25.5425 C.ar    1  UNL1        0.0609
     10 C          10.4493   80.5254   25.5535 C.ar    1  UNL1        0.0451
     11 C          11.2475   81.6545   25.3492 C.ar    1  UNL1        0.1457
     12 F          10.6727   82.8814   25.4274 F       1  UNL1       -0.2040
     13 N          10.1791   78.0982   25.7616 N.pl3   1  UNL1       -0.3033
     14 C           9.0659   77.8253   24.8502 C.3     1  UNL1        0.1123
     15 C           7.8709   77.2792   25.6362 C.3     1  UNL1        0.1136
     16 N           8.2653   76.1964   26.5560 N.pl3   1  UNL1       -0.2897
     17 C           9.6895   75.8661   26.7296 C.3     1  UNL1        0.1136
     18 C          10.5396   77.1396   26.8118 C.3     1  UNL1        0.1123
     19 C           7.2576   75.3452   27.1496 C.ar    1  UNL1        0.1318
     20 C           6.7547   74.2209   26.4709 C.ar    1  UNL1        0.0343
     21 C           5.7844   73.4228   27.0789 C.ar    1  UNL1        0.0083
     22 C           5.3238   73.7270   28.3680 C.ar    1  UNL1        0.0906
     23 C           5.8277   74.8727   29.0014 C.ar    1  UNL1        0.1041
     24 N           6.7709   75.6359   28.3892 N.ar    1  UNL1       -0.2292
     25 C           4.2399   72.9022   29.0140 C.3     1  UNL1        0.4200
     26 F           4.2341   73.0915   30.3852 F       1  UNL1       -0.1658
     27 F           3.0132   73.2811   28.5015 F       1  UNL1       -0.1658
     28 F           4.4371   71.5553   28.7635 F       1  UNL1       -0.1658
     29 C          14.3186   84.5679   23.3996 C.3     1  UNL1        0.1535
     30 C          14.7086   84.6780   21.9475 C.2     1  UNL1        0.2443
     31 O          15.5867   83.9018   21.4811 O.2     1  UNL1       -0.2730
     32 N          13.9990   85.5835   21.0855 N.am    1  UNL1       -0.2825
     33 H          13.1892   86.1045   21.4920 H       1  UNL1        0.1549
     34 C          14.1576   85.6146   19.6583 C.ar    1  UNL1        0.0535
     35 C          14.5325   84.4705   18.9357 C.ar    1  UNL1        0.0353
     36 C          14.6784   84.5507   17.5484 C.ar    1  UNL1        0.1002
     37 N          14.4703   85.7312   16.9072 N.ar    1  UNL1       -0.2422
     38 C          14.1248   86.8581   17.5843 C.ar    1  UNL1        0.1002
     39 C          13.9730   86.8222   18.9719 C.ar    1  UNL1        0.0353
     40 C          13.4960   85.7950   23.8368 C.3     1  UNL1        0.0569
     41 C          14.3694   86.8655   24.4301 C.ar    1  UNL1       -0.0017
     42 C          14.9474   87.9298   23.7446 C.ar    1  UNL1        0.0681
     43 N          15.5534   88.7756   24.6086 N.ar    1  UNL1       -0.3523
     44 C          15.3510   88.2631   25.8347 C.ar    1  UNL1        0.0563
     45 C          15.7476   88.8103   27.0542 C.ar    1  UNL1        0.0170
     46 C          15.3863   88.1278   28.2300 C.ar    1  UNL1        0.0015
     47 C          14.6429   86.9289   28.1619 C.ar    1  UNL1        0.0001
     48 C          14.2551   86.4007   26.9174 C.ar    1  UNL1        0.0012
     49 C          14.6308   87.0977   25.7679 C.ar    1  UNL1        0.0131
     50 H          16.0500   89.6627   24.3698 H       1  UNL1        0.1660
@<TRIPOS>BOND
     1     1     2    2
     2     2     3   am
     3     3    29    1
     4    29    40    1
     5    40    41    1
     6    41    42   ar
     7    42    43   ar
     8    43    44   ar
     9    44    45   ar
    10    45    46   ar
    11    46    47   ar
    12    47    48   ar
    13    48    49   ar
    14    29    30    1
    15    30    31    2
    16    30    32   am
    17    32    34    1
    18    34    35   ar
    19    35    36   ar
    20    36    37   ar
    21    37    38   ar
    22    38    39   ar
    23     2     5    1
    24     5     6   ar
    25     6     7   ar
    26     7     8    1
    27     7     9   ar
    28     9    13    1
    29    13    14    1
    30    14    15    1
    31    15    16    1
    32    16    19    1
    33    19    20   ar
    34    20    21   ar
    35    21    22   ar
    36    22    25    1
    37    25    26    1
    38    25    27    1
    39    25    28    1
    40    22    23   ar
    41    23    24   ar
    42    16    17    1
    43    17    18    1
    44     9    10   ar
    45    10    11   ar
    46    11    12    1
    47    49    41   ar
    48    39    34   ar
    49    11     5   ar
    50    49    44   ar
    51    18    13    1
    52    24    19   ar
    53     3     4    1
    54    43    50    1
    55    32    33    1
