@<TRIPOS>MOLECULE
*****
 42 46 0 0 0
SMALL
GASTEIGER

@<TRIPOS>ATOM
      1 C          -8.5845  -10.4008   31.6515 C.3     1  UNL1        0.1333
      2 N          -8.9576  -11.6083   30.9148 N.ar    1  UNL1       -0.2950
      3 C         -10.0856  -12.3579   31.0450 C.ar    1  UNL1        0.2019
      4 N         -10.1392  -13.4139   30.1910 N.ar    1  UNL1       -0.2134
      5 C          -8.9918  -13.2991   29.4992 C.ar    1  UNL1        0.1033
      6 C          -8.5377  -14.1330   28.4806 C.ar    1  UNL1        0.0284
      7 C          -7.3002  -13.8322   27.8666 C.ar    1  UNL1        0.0922
      8 C          -6.5849  -12.6707   28.2715 C.ar    1  UNL1        0.1782
      9 C          -7.0651  -11.8649   29.3256 C.ar    1  UNL1        0.1897
     10 C          -8.2818  -12.2112   29.9189 C.ar    1  UNL1        0.1173
     11 O          -6.3256  -10.7483   29.7268 O.3     1  UNL1       -0.4669
     12 C          -4.9806  -10.5582   29.2844 C.3     1  UNL1        0.2527
     13 C          -4.8435  -10.9796   27.8169 C.3     1  UNL1        0.2526
     14 O          -5.4083  -12.2780   27.6212 O.3     1  UNL1       -0.4682
     15 C          -6.7996  -14.7075   26.7850 C.2     1  UNL1        0.2526
     16 O          -5.9080  -15.5596   27.0496 O.2     1  UNL1       -0.2697
     17 N          -7.3099  -14.5881   25.4459 N.am    1  UNL1       -0.2805
     18 H          -8.0214  -13.8526   25.2379 H       1  UNL1        0.1552
     19 C          -6.9041  -15.4487   24.3683 C.ar    1  UNL1        0.0489
     20 C          -5.5979  -15.3586   23.8575 C.ar    1  UNL1        0.0206
     21 C          -5.1913  -16.1454   22.7668 C.ar    1  UNL1        0.1000
     22 C          -6.1295  -16.9895   22.1510 C.ar    1  UNL1        0.1439
     23 F          -5.7884  -17.7210   21.0594 F       1  UNL1       -0.2042
     24 C          -7.4335  -17.0752   22.6423 C.ar    1  UNL1        0.0290
     25 C          -7.8310  -16.3318   23.7677 C.ar    1  UNL1        0.0227
     26 C          -3.7947  -16.0317   22.2028 C.3     1  UNL1        0.4207
     27 F          -2.9951  -17.0115   22.7615 F       1  UNL1       -0.1658
     28 F          -3.7876  -16.1820   20.8265 F       1  UNL1       -0.1658
     29 F          -3.2645  -14.7895   22.5033 F       1  UNL1       -0.1658
     30 C          -9.2533  -16.4291   24.2777 C.3     1  UNL1        0.1649
     31 O          -9.8261  -15.1575   24.4402 O.3     1  UNL1       -0.3772
     32 H          -9.7298  -14.9151   25.3981 H       1  UNL1        0.2109
     33 N         -11.1518  -12.0429   31.9529 N.pl3   1  UNL1       -0.2814
     34 H         -11.7020  -11.1698   31.7959 H       1  UNL1        0.1551
     35 C         -11.6803  -13.0112   32.8706 C.ar    1  UNL1        0.0889
     36 C         -12.9246  -13.6056   32.6022 C.ar    1  UNL1        0.1543
     37 F         -13.6097  -13.2804   31.4770 F       1  UNL1       -0.2028
     38 C         -13.4576  -14.5535   33.4804 C.ar    1  UNL1        0.0310
     39 C         -12.7618  -14.9052   34.6385 C.ar    1  UNL1        0.0033
     40 C         -11.5359  -14.3020   34.9281 C.ar    1  UNL1        0.0128
     41 C         -10.9921  -13.3514   34.0556 C.ar    1  UNL1        0.0733
     42 CL         -9.4923  -12.5534   34.5146 Cl      1  UNL1       -0.0809
@<TRIPOS>BOND
     1     1     2    1
     2     2     3   ar
     3     3    33    1
     4    33    35    1
     5    35    36   ar
     6    36    37    1
     7    36    38   ar
     8    38    39   ar
     9    39    40   ar
    10    40    41   ar
    11    41    42    1
    12     3     4   ar
    13     4     5   ar
    14     5     6   ar
    15     6     7   ar
    16     7    15    1
    17    15    16    2
    18    15    17   am
    19    17    19    1
    20    19    20   ar
    21    20    21   ar
    22    21    26    1
    23    26    27    1
    24    26    28    1
    25    26    29    1
    26    21    22   ar
    27    22    23    1
    28    22    24   ar
    29    24    25   ar
    30    25    30    1
    31    30    31    1
    32     7     8   ar
    33     8     9   ar
    34     9    10   ar
    35     9    11    1
    36    11    12    1
    37    12    13    1
    38    13    14    1
    39    10     2   ar
    40    41    35   ar
    41    10     5   ar
    42    25    19   ar
    43    14     8    1
    44    33    34    1
    45    17    18    1
    46    31    32    1
@<TRIPOS>MOLECULE
*****
 42 46 0 0 0
SMALL
GASTEIGER

@<TRIPOS>ATOM
      1 C          -8.4045  -10.2098   31.6393 C.3     1  UNL1        0.1333
      2 N          -8.8095  -11.4340   30.9486 N.ar    1  UNL1       -0.2950
      3 C          -9.9427  -12.1652   31.1282 C.ar    1  UNL1        0.2019
      4 N         -10.0295  -13.2455   30.3081 N.ar    1  UNL1       -0.2134
      5 C          -8.8979  -13.1658   29.5859 C.ar    1  UNL1        0.1033
      6 C          -8.4784  -14.0354   28.5824 C.ar    1  UNL1        0.0284
      7 C          -7.2528  -13.7685   27.9301 C.ar    1  UNL1        0.0922
      8 C          -6.5143  -12.6044   28.2826 C.ar    1  UNL1        0.1782
      9 C          -6.9593  -11.7615   29.3231 C.ar    1  UNL1        0.1897
     10 C          -8.1652  -12.0747   29.9554 C.ar    1  UNL1        0.1173
     11 O          -6.1972  -10.6427   29.6726 O.3     1  UNL1       -0.4669
     12 C          -4.8611  -10.4827   29.1926 C.3     1  UNL1        0.2527
     13 C          -4.7647  -10.9495   27.7357 C.3     1  UNL1        0.2526
     14 O          -5.3493  -12.2460   27.5928 O.3     1  UNL1       -0.4682
     15 C          -6.7889  -14.6819   26.8639 C.2     1  UNL1        0.2526
     16 O          -6.0000  -15.6202   27.1611 O.2     1  UNL1       -0.2697
     17 N          -7.2187  -14.5034   25.5032 N.am    1  UNL1       -0.2805
     18 H          -7.8430  -13.6995   25.2697 H       1  UNL1        0.1552
     19 C          -6.8478  -15.3928   24.4365 C.ar    1  UNL1        0.0489
     20 C          -5.5551  -15.3247   23.8891 C.ar    1  UNL1        0.0206
     21 C          -5.1833  -16.1407   22.8074 C.ar    1  UNL1        0.1000
     22 C          -6.1434  -16.9925   22.2375 C.ar    1  UNL1        0.1439
     23 F          -5.8365  -17.7527   21.1554 F       1  UNL1       -0.2042
     24 C          -7.4343  -17.0566   22.7653 C.ar    1  UNL1        0.0290
     25 C          -7.7964  -16.2833   23.8825 C.ar    1  UNL1        0.0227
     26 C          -3.8015  -16.0510   22.2038 C.3     1  UNL1        0.4207
     27 F          -2.9993  -17.0357   22.7503 F       1  UNL1       -0.1658
     28 F          -3.8347  -16.2153   20.8295 F       1  UNL1       -0.1658
     29 F          -3.2472  -14.8130   22.4767 F       1  UNL1       -0.1658
     30 C          -9.2052  -16.3577   24.4324 C.3     1  UNL1        0.1649
     31 O          -9.7946  -15.0851   24.5017 O.3     1  UNL1       -0.3772
     32 H          -9.6807  -14.7619   25.4335 H       1  UNL1        0.2109
     33 N         -10.9828  -11.8100   32.0515 N.pl3   1  UNL1       -0.2814
     34 H         -11.5415  -10.9473   31.8690 H       1  UNL1        0.1551
     35 C         -11.4792  -12.7342   33.0305 C.ar    1  UNL1        0.0889
     36 C         -10.6426  -13.1331   34.0862 C.ar    1  UNL1        0.1543
     37 F          -9.3848  -12.6344   34.1883 F       1  UNL1       -0.2028
     38 C         -11.1058  -14.0300   35.0530 C.ar    1  UNL1        0.0310
     39 C         -12.4000  -14.5465   34.9670 C.ar    1  UNL1        0.0033
     40 C         -13.2317  -14.1763   33.9078 C.ar    1  UNL1        0.0128
     41 C         -12.7785  -13.2783   32.9337 C.ar    1  UNL1        0.0733
     42 CL        -13.8315  -12.9189   31.5702 Cl      1  UNL1       -0.0809
@<TRIPOS>BOND
     1     1     2    1
     2     2     3   ar
     3     3    33    1
     4    33    35    1
     5    35    36   ar
     6    36    37    1
     7    36    38   ar
     8    38    39   ar
     9    39    40   ar
    10    40    41   ar
    11    41    42    1
    12     3     4   ar
    13     4     5   ar
    14     5     6   ar
    15     6     7   ar
    16     7    15    1
    17    15    16    2
    18    15    17   am
    19    17    19    1
    20    19    20   ar
    21    20    21   ar
    22    21    26    1
    23    26    27    1
    24    26    28    1
    25    26    29    1
    26    21    22   ar
    27    22    23    1
    28    22    24   ar
    29    24    25   ar
    30    25    30    1
    31    30    31    1
    32     7     8   ar
    33     8     9   ar
    34     9    10   ar
    35     9    11    1
    36    11    12    1
    37    12    13    1
    38    13    14    1
    39    10     2   ar
    40    41    35   ar
    41    10     5   ar
    42    25    19   ar
    43    14     8    1
    44    33    34    1
    45    17    18    1
    46    31    32    1
@<TRIPOS>MOLECULE
*****
 42 46 0 0 0
SMALL
GASTEIGER

@<TRIPOS>ATOM
      1 C          -8.1086  -17.1689   21.9164 C.3     1  UNL1        0.1333
      2 N          -8.8124  -16.5080   23.0153 N.ar    1  UNL1       -0.2950
      3 C         -10.1496  -16.2968   23.1514 C.ar    1  UNL1        0.2019
      4 N         -10.4866  -15.6674   24.3079 N.ar    1  UNL1       -0.2134
      5 C          -9.2980  -15.4932   24.9123 C.ar    1  UNL1        0.1033
      6 C          -9.0627  -14.8915   26.1459 C.ar    1  UNL1        0.0284
      7 C          -7.7308  -14.8162   26.6143 C.ar    1  UNL1        0.0922
      8 C          -6.6857  -15.3937   25.8405 C.ar    1  UNL1        0.1782
      9 C          -6.9608  -15.9715   24.5829 C.ar    1  UNL1        0.1897
     10 C          -8.2886  -16.0054   24.1490 C.ar    1  UNL1        0.1173
     11 O          -5.9108  -16.5015   23.8273 O.3     1  UNL1       -0.4669
     12 C          -4.5496  -16.2350   24.1696 C.3     1  UNL1        0.2527
     13 C          -4.3754  -16.2536   25.6925 C.3     1  UNL1        0.2526
     14 O          -5.3679  -15.4334   26.3131 O.3     1  UNL1       -0.4682
     15 C          -7.4603  -14.1784   27.9206 C.2     1  UNL1        0.2526
     16 O          -6.5870  -14.6816   28.6791 O.2     1  UNL1       -0.2697
     17 N          -8.1854  -13.0066   28.3318 N.am    1  UNL1       -0.2805
     18 H          -8.9300  -12.6254   27.7066 H       1  UNL1        0.1552
     19 C          -7.9257  -12.3106   29.5625 C.ar    1  UNL1        0.0489
     20 C          -6.6205  -11.8824   29.8598 C.ar    1  UNL1        0.0206
     21 C          -6.3259  -11.2520   31.0804 C.ar    1  UNL1        0.1000
     22 C          -7.3476  -11.1037   32.0323 C.ar    1  UNL1        0.1439
     23 F          -7.0869  -10.5515   33.2448 F       1  UNL1       -0.2042
     24 C          -8.6442  -11.5388   31.7518 C.ar    1  UNL1        0.0290
     25 C          -8.9576  -12.1203   30.5105 C.ar    1  UNL1        0.0227
     26 C          -4.9187  -10.8129   31.4099 C.3     1  UNL1        0.4207
     27 F          -4.1674  -10.7780   30.2497 F       1  UNL1       -0.1658
     28 F          -4.9003   -9.5562   31.9905 F       1  UNL1       -0.1658
     29 F          -4.3415  -11.7054   32.2957 F       1  UNL1       -0.1658
     30 C         -10.3671  -12.5971   30.2302 C.3     1  UNL1        0.1649
     31 O         -10.9629  -11.8527   29.1995 O.3     1  UNL1       -0.3772
     32 H         -11.5185  -11.1517   29.6303 H       1  UNL1        0.2109
     33 N         -11.1278  -16.7415   22.1998 N.pl3   1  UNL1       -0.2814
     34 H         -11.8505  -16.0641   21.8704 H       1  UNL1        0.1551
     35 C         -10.9741  -17.9654   21.4665 C.ar    1  UNL1        0.0889
     36 C         -10.8450  -17.9179   20.0685 C.ar    1  UNL1        0.1543
     37 F         -10.8469  -16.7253   19.4213 F       1  UNL1       -0.2028
     38 C         -10.6911  -19.0971   19.3338 C.ar    1  UNL1        0.0310
     39 C         -10.6791  -20.3319   19.9851 C.ar    1  UNL1        0.0033
     40 C         -10.8320  -20.3925   21.3720 C.ar    1  UNL1        0.0128
     41 C         -10.9865  -19.2178   22.1182 C.ar    1  UNL1        0.0733
     42 CL        -11.2700  -19.3558   23.8496 Cl      1  UNL1       -0.0809
@<TRIPOS>BOND
     1     1     2    1
     2     2     3   ar
     3     3    33    1
     4    33    35    1
     5    35    36   ar
     6    36    37    1
     7    36    38   ar
     8    38    39   ar
     9    39    40   ar
    10    40    41   ar
    11    41    42    1
    12     3     4   ar
    13     4     5   ar
    14     5     6   ar
    15     6     7   ar
    16     7    15    1
    17    15    16    2
    18    15    17   am
    19    17    19    1
    20    19    20   ar
    21    20    21   ar
    22    21    26    1
    23    26    27    1
    24    26    28    1
    25    26    29    1
    26    21    22   ar
    27    22    23    1
    28    22    24   ar
    29    24    25   ar
    30    25    30    1
    31    30    31    1
    32     7     8   ar
    33     8     9   ar
    34     9    10   ar
    35     9    11    1
    36    11    12    1
    37    12    13    1
    38    13    14    1
    39    10     2   ar
    40    41    35   ar
    41    10     5   ar
    42    25    19   ar
    43    14     8    1
    44    33    34    1
    45    17    18    1
    46    31    32    1
@<TRIPOS>MOLECULE
*****
 42 46 0 0 0
SMALL
GASTEIGER

@<TRIPOS>ATOM
      1 C          -8.2354  -17.7416   22.4179 C.3     1  UNL1        0.1333
      2 N          -8.8259  -17.3346   23.6929 N.ar    1  UNL1       -0.2950
      3 C         -10.0250  -17.7027   24.2199 C.ar    1  UNL1        0.2019
      4 N         -10.2720  -17.1613   25.4418 N.ar    1  UNL1       -0.2134
      5 C          -9.1659  -16.4335   25.6769 C.ar    1  UNL1        0.1033
      6 C          -8.8902  -15.6642   26.8044 C.ar    1  UNL1        0.0284
      7 C          -7.6554  -14.9781   26.8649 C.ar    1  UNL1        0.0922
      8 C          -6.7204  -15.1303   25.8032 C.ar    1  UNL1        0.1782
      9 C          -7.0473  -15.8978   24.6652 C.ar    1  UNL1        0.1897
     10 C          -8.2872  -16.5412   24.6376 C.ar    1  UNL1        0.1173
     11 O          -6.1238  -16.0032   23.6208 O.3     1  UNL1       -0.4669
     12 C          -4.9826  -15.1461   23.5576 C.3     1  UNL1        0.2527
     13 C          -4.4072  -14.9297   24.9619 C.3     1  UNL1        0.2526
     14 O          -5.4460  -14.5531   25.8686 O.3     1  UNL1       -0.4682
     15 C          -7.3454  -14.1536   28.0526 C.2     1  UNL1        0.2526
     16 O          -6.2291  -14.2954   28.6225 O.2     1  UNL1       -0.2697
     17 N          -8.3018  -13.2086   28.5626 N.am    1  UNL1       -0.2805
     18 H          -9.2346  -13.1308   28.0996 H       1  UNL1        0.1552
     19 C          -8.0345  -12.3400   29.6764 C.ar    1  UNL1        0.0489
     20 C          -6.7199  -11.9105   29.9265 C.ar    1  UNL1        0.0206
     21 C          -6.4198  -11.1093   31.0410 C.ar    1  UNL1        0.1000
     22 C          -7.4475  -10.7862   31.9418 C.ar    1  UNL1        0.1439
     23 F          -7.1837  -10.0626   33.0597 F       1  UNL1       -0.2042
     24 C          -8.7540  -11.2202   31.7095 C.ar    1  UNL1        0.0290
     25 C          -9.0710  -11.9757   30.5668 C.ar    1  UNL1        0.0227
     26 C          -5.0033  -10.6672   31.3229 C.3     1  UNL1        0.4207
     27 F          -4.2920  -10.6294   30.1378 F       1  UNL1       -0.1658
     28 F          -4.9682   -9.4110   31.9037 F       1  UNL1       -0.1658
     29 F          -4.3942  -11.5591   32.1876 F       1  UNL1       -0.1658
     30 C         -10.4917  -12.4476   30.3391 C.3     1  UNL1        0.1649
     31 O         -10.9881  -11.9977   29.1051 O.3     1  UNL1       -0.3772
     32 H         -11.5199  -11.1791   29.2863 H       1  UNL1        0.2109
     33 N         -10.9277  -18.6196   23.5836 N.pl3   1  UNL1       -0.2814
     34 H         -11.6167  -19.1353   24.1743 H       1  UNL1        0.1551
     35 C         -11.1238  -18.6309   22.1622 C.ar    1  UNL1        0.0889
     36 C         -10.6977  -19.7435   21.4180 C.ar    1  UNL1        0.1543
     37 F         -10.1237  -20.8039   22.0404 F       1  UNL1       -0.2028
     38 C         -10.8812  -19.7779   20.0327 C.ar    1  UNL1        0.0310
     39 C         -11.4772  -18.6985   19.3778 C.ar    1  UNL1        0.0033
     40 C         -11.8817  -17.5765   20.1045 C.ar    1  UNL1        0.0128
     41 C         -11.7033  -17.5312   21.4926 C.ar    1  UNL1        0.0733
     42 CL        -12.1436  -16.0567   22.3466 Cl      1  UNL1       -0.0809
@<TRIPOS>BOND
     1     1     2    1
     2     2     3   ar
     3     3    33    1
     4    33    35    1
     5    35    36   ar
     6    36    37    1
     7    36    38   ar
     8    38    39   ar
     9    39    40   ar
    10    40    41   ar
    11    41    42    1
    12     3     4   ar
    13     4     5   ar
    14     5     6   ar
    15     6     7   ar
    16     7    15    1
    17    15    16    2
    18    15    17   am
    19    17    19    1
    20    19    20   ar
    21    20    21   ar
    22    21    26    1
    23    26    27    1
    24    26    28    1
    25    26    29    1
    26    21    22   ar
    27    22    23    1
    28    22    24   ar
    29    24    25   ar
    30    25    30    1
    31    30    31    1
    32     7     8   ar
    33     8     9   ar
    34     9    10   ar
    35     9    11    1
    36    11    12    1
    37    12    13    1
    38    13    14    1
    39    10     2   ar
    40    41    35   ar
    41    10     5   ar
    42    25    19   ar
    43    14     8    1
    44    33    34    1
    45    17    18    1
    46    31    32    1
@<TRIPOS>MOLECULE
*****
 42 46 0 0 0
SMALL
GASTEIGER

@<TRIPOS>ATOM
      1 C          -6.3042  -17.2052   21.1215 C.3     1  UNL1        0.1333
      2 N          -5.5659  -16.5806   22.2190 N.ar    1  UNL1       -0.2950
      3 C          -4.2404  -16.2794   22.2768 C.ar    1  UNL1        0.2019
      4 N          -3.8683  -15.6799   23.4384 N.ar    1  UNL1       -0.2134
      5 C          -5.0247  -15.6032   24.1206 C.ar    1  UNL1        0.1033
      6 C          -5.2170  -15.0656   25.3907 C.ar    1  UNL1        0.0284
      7 C          -6.5232  -15.0696   25.9319 C.ar    1  UNL1        0.0922
      8 C          -7.6000  -15.5752   25.1512 C.ar    1  UNL1        0.1782
      9 C          -7.3607  -16.1358   23.8786 C.ar    1  UNL1        0.1897
     10 C          -6.0512  -16.1308   23.3914 C.ar    1  UNL1        0.1173
     11 O          -8.4318  -16.6567   23.1463 O.3     1  UNL1       -0.4669
     12 C          -9.7037  -16.8778   23.7582 C.3     1  UNL1        0.2527
     13 C         -10.0278  -15.7360   24.7284 C.3     1  UNL1        0.2526
     14 O          -8.9230  -15.5045   25.6053 O.3     1  UNL1       -0.4682
     15 C          -6.7472  -14.5058   27.2804 C.2     1  UNL1        0.2526
     16 O          -6.8002  -15.2864   28.2698 O.2     1  UNL1       -0.2697
     17 N          -6.9132  -13.0898   27.4678 N.am    1  UNL1       -0.2805
     18 H          -6.9026  -12.4628   26.6328 H       1  UNL1        0.1552
     19 C          -7.0756  -12.4795   28.7592 C.ar    1  UNL1        0.0489
     20 C          -8.2727  -12.6636   29.4723 C.ar    1  UNL1        0.0206
     21 C          -8.4825  -12.0321   30.7098 C.ar    1  UNL1        0.1000
     22 C          -7.4972  -11.1621   31.2041 C.ar    1  UNL1        0.1439
     23 F          -7.6903  -10.4902   32.3679 F       1  UNL1       -0.2042
     24 C          -6.3108  -10.9617   30.4960 C.ar    1  UNL1        0.0290
     25 C          -6.0713  -11.6336   29.2843 C.ar    1  UNL1        0.0227
     26 C          -9.7783  -12.2111   31.4651 C.3     1  UNL1        0.4207
     27 F         -10.5354  -13.1898   30.8482 F       1  UNL1       -0.1658
     28 F          -9.5540  -12.5837   32.7795 F       1  UNL1       -0.1658
     29 F         -10.4896  -11.0244   31.4689 F       1  UNL1       -0.1658
     30 C          -4.7836  -11.3933   28.5249 C.3     1  UNL1        0.1649
     31 O          -5.0357  -11.0508   27.1868 O.3     1  UNL1       -0.3772
     32 H          -4.9418  -11.8813   26.6510 H       1  UNL1        0.2109
     33 N          -3.3218  -16.5141   21.1991 N.pl3   1  UNL1       -0.2814
     34 H          -3.2196  -15.7840   20.4600 H       1  UNL1        0.1551
     35 C          -2.3340  -17.5534   21.2543 C.ar    1  UNL1        0.0889
     36 C          -1.0654  -17.3269   20.6951 C.ar    1  UNL1        0.1543
     37 F          -0.7724  -16.1307   20.1255 F       1  UNL1       -0.2028
     38 C          -0.0865  -18.3237   20.7400 C.ar    1  UNL1        0.0310
     39 C          -0.3691  -19.5574   21.3293 C.ar    1  UNL1        0.0033
     40 C          -1.6351  -19.8024   21.8659 C.ar    1  UNL1        0.0128
     41 C          -2.6234  -18.8112   21.8269 C.ar    1  UNL1        0.0733
     42 CL         -4.2288  -19.2039   22.4314 Cl      1  UNL1       -0.0809
@<TRIPOS>BOND
     1     1     2    1
     2     2     3   ar
     3     3    33    1
     4    33    35    1
     5    35    36   ar
     6    36    37    1
     7    36    38   ar
     8    38    39   ar
     9    39    40   ar
    10    40    41   ar
    11    41    42    1
    12     3     4   ar
    13     4     5   ar
    14     5     6   ar
    15     6     7   ar
    16     7    15    1
    17    15    16    2
    18    15    17   am
    19    17    19    1
    20    19    20   ar
    21    20    21   ar
    22    21    26    1
    23    26    27    1
    24    26    28    1
    25    26    29    1
    26    21    22   ar
    27    22    23    1
    28    22    24   ar
    29    24    25   ar
    30    25    30    1
    31    30    31    1
    32     7     8   ar
    33     8     9   ar
    34     9    10   ar
    35     9    11    1
    36    11    12    1
    37    12    13    1
    38    13    14    1
    39    10     2   ar
    40    41    35   ar
    41    10     5   ar
    42    25    19   ar
    43    14     8    1
    44    33    34    1
    45    17    18    1
    46    31    32    1
@<TRIPOS>MOLECULE
*****
 42 46 0 0 0
SMALL
GASTEIGER

@<TRIPOS>ATOM
      1 C          -8.4269  -10.4673   31.5929 C.3     1  UNL1        0.1333
      2 N          -8.9207  -11.6657   30.9147 N.ar    1  UNL1       -0.2950
      3 C         -10.0903  -12.3286   31.1238 C.ar    1  UNL1        0.2019
      4 N         -10.2612  -13.4021   30.3080 N.ar    1  UNL1       -0.2134
      5 C          -9.1453  -13.3897   29.5576 C.ar    1  UNL1        0.1033
      6 C          -8.8031  -14.2828   28.5456 C.ar    1  UNL1        0.0284
      7 C          -7.5805  -14.0890   27.8625 C.ar    1  UNL1        0.0922
      8 C          -6.7660  -12.9706   28.1944 C.ar    1  UNL1        0.1782
      9 C          -7.1342  -12.1025   29.2441 C.ar    1  UNL1        0.1897
     10 C          -8.3404  -12.3437   29.9069 C.ar    1  UNL1        0.1173
     11 O          -6.2989  -11.0306   29.5725 O.3     1  UNL1       -0.4669
     12 C          -4.9681  -10.9500   29.0591 C.3     1  UNL1        0.2527
     13 C          -4.9358  -11.4221   27.6011 C.3     1  UNL1        0.2526
     14 O          -5.5994  -12.6818   27.4752 O.3     1  UNL1       -0.4682
     15 C          -7.1981  -15.0286   26.7866 C.2     1  UNL1        0.2526
     16 O          -6.4473  -16.0038   27.0630 O.2     1  UNL1       -0.2697
     17 N          -7.6636  -14.8343   25.4399 N.am    1  UNL1       -0.2805
     18 H          -8.2546  -14.0013   25.2227 H       1  UNL1        0.1552
     19 C          -7.3728  -15.7452   24.3665 C.ar    1  UNL1        0.0489
     20 C          -8.3110  -16.7307   24.0144 C.ar    1  UNL1        0.0206
     21 C          -8.0301  -17.6712   23.0091 C.ar    1  UNL1        0.1000
     22 C          -6.7681  -17.6510   22.3935 C.ar    1  UNL1        0.1439
     23 F          -6.4407  -18.5799   21.4592 F       1  UNL1       -0.2042
     24 C          -5.8243  -16.6848   22.7466 C.ar    1  UNL1        0.0290
     25 C          -6.1196  -15.7066   23.7125 C.ar    1  UNL1        0.0227
     26 C          -9.0288  -18.7449   22.6468 C.3     1  UNL1        0.4207
     27 F         -10.2064  -18.5255   23.3374 F       1  UNL1       -0.1658
     28 F          -9.3024  -18.7486   21.2896 F       1  UNL1       -0.1658
     29 F          -8.5289  -19.9888   22.9891 F       1  UNL1       -0.1658
     30 C          -5.0780  -14.6748   24.0908 C.3     1  UNL1        0.1649
     31 O          -4.9685  -14.5463   25.4847 O.3     1  UNL1       -0.3772
     32 H          -5.5225  -13.7663   25.7496 H       1  UNL1        0.2109
     33 N         -11.0842  -11.9122   32.0721 N.pl3   1  UNL1       -0.2814
     34 H         -11.5574  -10.9926   31.9306 H       1  UNL1        0.1551
     35 C         -11.6614  -12.8233   33.0185 C.ar    1  UNL1        0.0889
     36 C         -12.9593  -13.3135   32.7978 C.ar    1  UNL1        0.1543
     37 F         -13.6515  -12.9430   31.6911 F       1  UNL1       -0.2028
     38 C         -13.5405  -14.2044   33.7046 C.ar    1  UNL1        0.0310
     39 C         -12.8388  -14.6018   34.8442 C.ar    1  UNL1        0.0033
     40 C         -11.5577  -14.1011   35.0866 C.ar    1  UNL1        0.0128
     41 C         -10.9653  -13.2085   34.1850 C.ar    1  UNL1        0.0733
     42 CL         -9.3894  -12.5350   34.5854 Cl      1  UNL1       -0.0809
@<TRIPOS>BOND
     1     1     2    1
     2     2     3   ar
     3     3    33    1
     4    33    35    1
     5    35    36   ar
     6    36    37    1
     7    36    38   ar
     8    38    39   ar
     9    39    40   ar
    10    40    41   ar
    11    41    42    1
    12     3     4   ar
    13     4     5   ar
    14     5     6   ar
    15     6     7   ar
    16     7    15    1
    17    15    16    2
    18    15    17   am
    19    17    19    1
    20    19    20   ar
    21    20    21   ar
    22    21    26    1
    23    26    27    1
    24    26    28    1
    25    26    29    1
    26    21    22   ar
    27    22    23    1
    28    22    24   ar
    29    24    25   ar
    30    25    30    1
    31    30    31    1
    32     7     8   ar
    33     8     9   ar
    34     9    10   ar
    35     9    11    1
    36    11    12    1
    37    12    13    1
    38    13    14    1
    39    10     2   ar
    40    41    35   ar
    41    10     5   ar
    42    25    19   ar
    43    14     8    1
    44    33    34    1
    45    17    18    1
    46    31    32    1
@<TRIPOS>MOLECULE
*****
 42 46 0 0 0
SMALL
GASTEIGER

@<TRIPOS>ATOM
      1 C          -8.6394  -10.3598   31.5479 C.3     1  UNL1        0.1333
      2 N          -9.0192  -11.5976   30.8671 N.ar    1  UNL1       -0.2950
      3 C         -10.1499  -12.3359   31.0334 C.ar    1  UNL1        0.2019
      4 N         -10.2100  -13.4289   30.2278 N.ar    1  UNL1       -0.2134
      5 C          -9.0638  -13.3501   29.5289 C.ar    1  UNL1        0.1033
      6 C          -8.6157  -14.2308   28.5477 C.ar    1  UNL1        0.0284
      7 C          -7.3785  -13.9629   27.9179 C.ar    1  UNL1        0.0922
      8 C          -6.6576  -12.7874   28.2686 C.ar    1  UNL1        0.1782
      9 C          -7.1318  -11.9331   29.2866 C.ar    1  UNL1        0.1897
     10 C          -8.3484  -12.2474   29.8976 C.ar    1  UNL1        0.1173
     11 O          -6.3868  -10.8027   29.6355 O.3     1  UNL1       -0.4669
     12 C          -5.0421  -10.6383   29.1818 C.3     1  UNL1        0.2527
     13 C          -4.9105  -11.1257   27.7344 C.3     1  UNL1        0.2526
     14 O          -5.4810  -12.4292   27.5986 O.3     1  UNL1       -0.4682
     15 C          -6.8842  -14.8880   26.8756 C.2     1  UNL1        0.2526
     16 O          -7.5077  -15.9641   26.6657 O.2     1  UNL1       -0.2697
     17 N          -5.7043  -14.5767   26.1147 N.am    1  UNL1       -0.2805
     18 H          -5.1806  -13.6985   26.3272 H       1  UNL1        0.1552
     19 C          -5.2104  -15.4081   25.0511 C.ar    1  UNL1        0.0489
     20 C          -5.5030  -15.0803   23.7161 C.ar    1  UNL1        0.0206
     21 C          -5.0834  -15.9058   22.6594 C.ar    1  UNL1        0.1000
     22 C          -4.4113  -17.1022   22.9578 C.ar    1  UNL1        0.1439
     23 F          -4.0419  -17.9524   21.9660 F       1  UNL1       -0.2042
     24 C          -4.1286  -17.4435   24.2817 C.ar    1  UNL1        0.0290
     25 C          -4.4970  -16.5944   25.3402 C.ar    1  UNL1        0.0227
     26 C          -5.4180  -15.5660   21.2262 C.3     1  UNL1        0.4207
     27 F          -6.3063  -16.5022   20.7300 F       1  UNL1       -0.1658
     28 F          -5.9899  -14.3096   21.1211 F       1  UNL1       -0.1658
     29 F          -4.2680  -15.5818   20.4570 F       1  UNL1       -0.1658
     30 C          -4.1925  -16.9883   26.7702 C.3     1  UNL1        0.1649
     31 O          -3.4754  -18.1942   26.8264 O.3     1  UNL1       -0.3772
     32 H          -4.1342  -18.9170   26.9970 H       1  UNL1        0.2109
     33 N         -11.2125  -11.9761   31.9288 N.pl3   1  UNL1       -0.2814
     34 H         -11.7569  -11.1065   31.7363 H       1  UNL1        0.1551
     35 C         -11.7463  -12.9016   32.8867 C.ar    1  UNL1        0.0889
     36 C         -13.0271  -13.4411   32.6819 C.ar    1  UNL1        0.1543
     37 F         -13.7434  -13.1039   31.5799 F       1  UNL1       -0.2028
     38 C         -13.5661  -14.3469   33.6001 C.ar    1  UNL1        0.0310
     39 C         -12.8390  -14.7103   34.7351 C.ar    1  UNL1        0.0033
     40 C         -11.5751  -14.1609   34.9616 C.ar    1  UNL1        0.0128
     41 C         -11.0251  -13.2529   34.0486 C.ar    1  UNL1        0.0733
     42 CL         -9.4715  -12.5188   34.4290 Cl      1  UNL1       -0.0809
@<TRIPOS>BOND
     1     1     2    1
     2     2     3   ar
     3     3    33    1
     4    33    35    1
     5    35    36   ar
     6    36    37    1
     7    36    38   ar
     8    38    39   ar
     9    39    40   ar
    10    40    41   ar
    11    41    42    1
    12     3     4   ar
    13     4     5   ar
    14     5     6   ar
    15     6     7   ar
    16     7    15    1
    17    15    16    2
    18    15    17   am
    19    17    19    1
    20    19    20   ar
    21    20    21   ar
    22    21    26    1
    23    26    27    1
    24    26    28    1
    25    26    29    1
    26    21    22   ar
    27    22    23    1
    28    22    24   ar
    29    24    25   ar
    30    25    30    1
    31    30    31    1
    32     7     8   ar
    33     8     9   ar
    34     9    10   ar
    35     9    11    1
    36    11    12    1
    37    12    13    1
    38    13    14    1
    39    10     2   ar
    40    41    35   ar
    41    10     5   ar
    42    25    19   ar
    43    14     8    1
    44    33    34    1
    45    17    18    1
    46    31    32    1
@<TRIPOS>MOLECULE
*****
 42 46 0 0 0
SMALL
GASTEIGER

@<TRIPOS>ATOM
      1 C          -6.5632  -16.6424   21.9469 C.3     1  UNL1        0.1333
      2 N          -7.7376  -16.2245   22.7123 N.ar    1  UNL1       -0.2950
      3 C          -9.0255  -16.1198   22.2863 C.ar    1  UNL1        0.2019
      4 N          -9.8894  -15.7211   23.2568 N.ar    1  UNL1       -0.2134
      5 C          -9.0919  -15.5836   24.3308 C.ar    1  UNL1        0.1033
      6 C          -9.4687  -15.1914   25.6127 C.ar    1  UNL1        0.0284
      7 C          -8.4731  -15.1191   26.6139 C.ar    1  UNL1        0.0922
      8 C          -7.1368  -15.4909   26.2966 C.ar    1  UNL1        0.1782
      9 C          -6.7889  -15.8580   24.9793 C.ar    1  UNL1        0.1897
     10 C          -7.8005  -15.8952   24.0161 C.ar    1  UNL1        0.1173
     11 O          -5.4618  -16.1860   24.6866 O.3     1  UNL1       -0.4669
     12 C          -4.4117  -15.9022   25.6129 C.3     1  UNL1        0.2527
     13 C          -4.8847  -16.1734   27.0456 C.3     1  UNL1        0.2526
     14 O          -6.1409  -15.5333   27.2804 O.3     1  UNL1       -0.4682
     15 C          -8.8530  -14.7018   27.9806 C.2     1  UNL1        0.2526
     16 O          -9.0825  -15.5865   28.8499 O.2     1  UNL1       -0.2697
     17 N          -8.9709  -13.3091   28.3190 N.am    1  UNL1       -0.2805
     18 H          -8.8125  -12.5916   27.5769 H       1  UNL1        0.1552
     19 C          -9.2795  -12.8432   29.6434 C.ar    1  UNL1        0.0489
     20 C         -10.4556  -13.2769   30.2791 C.ar    1  UNL1        0.0206
     21 C         -10.8125  -12.7933   31.5491 C.ar    1  UNL1        0.1000
     22 C         -10.0030  -11.8204   32.1576 C.ar    1  UNL1        0.1439
     23 F         -10.3473  -11.2883   33.3581 F       1  UNL1       -0.2042
     24 C          -8.8403  -11.3728   31.5276 C.ar    1  UNL1        0.0290
     25 C          -8.4485  -11.8936   30.2816 C.ar    1  UNL1        0.0227
     26 C         -12.0883  -13.2414   32.2222 C.3     1  UNL1        0.4207
     27 F         -12.4172  -14.5095   31.7802 F       1  UNL1       -0.1658
     28 F         -11.9538  -13.2708   33.5998 F       1  UNL1       -0.1658
     29 F         -13.1177  -12.3718   31.9082 F       1  UNL1       -0.1658
     30 C          -7.1905  -11.3861   29.6087 C.3     1  UNL1        0.1649
     31 O          -6.4983  -12.4264   28.9683 O.3     1  UNL1       -0.3772
     32 H          -5.7842  -12.7265   29.5894 H       1  UNL1        0.2109
     33 N          -9.4549  -16.4507   20.9573 N.pl3   1  UNL1       -0.2814
     34 H          -9.1781  -15.8230   20.1705 H       1  UNL1        0.1551
     35 C          -9.9811  -17.7445   20.6279 C.ar    1  UNL1        0.0889
     36 C          -9.1276  -18.7135   20.0747 C.ar    1  UNL1        0.1543
     37 F          -7.8155  -18.4339   19.8718 F       1  UNL1       -0.2028
     38 C          -9.6174  -19.9815   19.7490 C.ar    1  UNL1        0.0310
     39 C         -10.9632  -20.2881   19.9588 C.ar    1  UNL1        0.0033
     40 C         -11.8262  -19.3241   20.4847 C.ar    1  UNL1        0.0128
     41 C         -11.3467  -18.0507   20.8150 C.ar    1  UNL1        0.0733
     42 CL        -12.4944  -16.8446   21.3850 Cl      1  UNL1       -0.0809
@<TRIPOS>BOND
     1     1     2    1
     2     2     3   ar
     3     3    33    1
     4    33    35    1
     5    35    36   ar
     6    36    37    1
     7    36    38   ar
     8    38    39   ar
     9    39    40   ar
    10    40    41   ar
    11    41    42    1
    12     3     4   ar
    13     4     5   ar
    14     5     6   ar
    15     6     7   ar
    16     7    15    1
    17    15    16    2
    18    15    17   am
    19    17    19    1
    20    19    20   ar
    21    20    21   ar
    22    21    26    1
    23    26    27    1
    24    26    28    1
    25    26    29    1
    26    21    22   ar
    27    22    23    1
    28    22    24   ar
    29    24    25   ar
    30    25    30    1
    31    30    31    1
    32     7     8   ar
    33     8     9   ar
    34     9    10   ar
    35     9    11    1
    36    11    12    1
    37    12    13    1
    38    13    14    1
    39    10     2   ar
    40    41    35   ar
    41    10     5   ar
    42    25    19   ar
    43    14     8    1
    44    33    34    1
    45    17    18    1
    46    31    32    1
@<TRIPOS>MOLECULE
*****
 42 46 0 0 0
SMALL
GASTEIGER

@<TRIPOS>ATOM
      1 C          -8.2973  -17.9933   22.6291 C.3     1  UNL1        0.1333
      2 N          -8.8131  -17.5563   23.9264 N.ar    1  UNL1       -0.2950
      3 C          -9.9399  -17.9710   24.5663 C.ar    1  UNL1        0.2019
      4 N         -10.1273  -17.3811   25.7763 N.ar    1  UNL1       -0.2134
      5 C          -9.0582  -16.5726   25.8850 C.ar    1  UNL1        0.1033
      6 C          -8.7484  -15.7273   26.9474 C.ar    1  UNL1        0.0284
      7 C          -7.5621  -14.9617   26.8739 C.ar    1  UNL1        0.0922
      8 C          -6.7043  -15.1112   25.7486 C.ar    1  UNL1        0.1782
      9 C          -7.0659  -15.9585   24.6797 C.ar    1  UNL1        0.1897
     10 C          -8.2577  -16.6802   24.7844 C.ar    1  UNL1        0.1173
     11 O          -6.2214  -16.0613   23.5702 O.3     1  UNL1       -0.4669
     12 C          -5.1493  -15.1379   23.3728 C.3     1  UNL1        0.2527
     13 C          -4.4824  -14.8095   24.7135 C.3     1  UNL1        0.2526
     14 O          -5.4708  -14.4513   25.6820 O.3     1  UNL1       -0.4682
     15 C          -7.2174  -14.0560   27.9907 C.2     1  UNL1        0.2526
     16 O          -6.0293  -14.0292   28.4135 O.2     1  UNL1       -0.2697
     17 N          -8.2191  -13.2219   28.5981 N.am    1  UNL1       -0.2805
     18 H          -9.2048  -13.2842   28.2589 H       1  UNL1        0.1552
     19 C          -7.9315  -12.2811   29.6463 C.ar    1  UNL1        0.0489
     20 C          -6.6168  -11.8186   29.8272 C.ar    1  UNL1        0.0206
     21 C          -6.2953  -10.9445   30.8792 C.ar    1  UNL1        0.1000
     22 C          -7.2999  -10.5794   31.7900 C.ar    1  UNL1        0.1439
     23 F          -7.0133   -9.7830   32.8514 F       1  UNL1       -0.2042
     24 C          -8.6058  -11.0452   31.6269 C.ar    1  UNL1        0.0290
     25 C          -8.9458  -11.8757   30.5443 C.ar    1  UNL1        0.0227
     26 C          -4.8780  -10.4658   31.0879 C.3     1  UNL1        0.4207
     27 F          -4.8968   -9.1424   31.4877 F       1  UNL1       -0.1658
     28 F          -4.2250  -11.2135   32.0529 F       1  UNL1       -0.1658
     29 F          -4.1659  -10.5711   29.9062 F       1  UNL1       -0.1658
     30 C         -10.3652  -12.3806   30.3918 C.3     1  UNL1        0.1649
     31 O         -10.9575  -11.8928   29.2159 O.3     1  UNL1       -0.3772
     32 H         -11.4981  -11.0997   29.4696 H       1  UNL1        0.2109
     33 N         -10.8250  -18.9766   24.0510 N.pl3   1  UNL1       -0.2814
     34 H         -10.5775  -19.9811   24.1906 H       1  UNL1        0.1551
     35 C         -12.1611  -18.6692   23.6274 C.ar    1  UNL1        0.0889
     36 C         -13.1803  -18.5646   24.5885 C.ar    1  UNL1        0.1543
     37 F         -12.8993  -18.7343   25.9051 F       1  UNL1       -0.2028
     38 C         -14.4886  -18.2629   24.1993 C.ar    1  UNL1        0.0310
     39 C         -14.7930  -18.0776   22.8495 C.ar    1  UNL1        0.0033
     40 C         -13.7926  -18.2041   21.8832 C.ar    1  UNL1        0.0128
     41 C         -12.4786  -18.5056   22.2614 C.ar    1  UNL1        0.0733
     42 CL        -11.2772  -18.7470   20.9983 Cl      1  UNL1       -0.0809
@<TRIPOS>BOND
     1     1     2    1
     2     2     3   ar
     3     3    33    1
     4    33    35    1
     5    35    36   ar
     6    36    37    1
     7    36    38   ar
     8    38    39   ar
     9    39    40   ar
    10    40    41   ar
    11    41    42    1
    12     3     4   ar
    13     4     5   ar
    14     5     6   ar
    15     6     7   ar
    16     7    15    1
    17    15    16    2
    18    15    17   am
    19    17    19    1
    20    19    20   ar
    21    20    21   ar
    22    21    26    1
    23    26    27    1
    24    26    28    1
    25    26    29    1
    26    21    22   ar
    27    22    23    1
    28    22    24   ar
    29    24    25   ar
    30    25    30    1
    31    30    31    1
    32     7     8   ar
    33     8     9   ar
    34     9    10   ar
    35     9    11    1
    36    11    12    1
    37    12    13    1
    38    13    14    1
    39    10     2   ar
    40    41    35   ar
    41    10     5   ar
    42    25    19   ar
    43    14     8    1
    44    33    34    1
    45    17    18    1
    46    31    32    1
