@<TRIPOS>MOLECULE
*****
 35 38 0 0 0
SMALL
GASTEIGER

@<TRIPOS>ATOM
      1 C         -10.8483  -13.1410   31.6105 C.ar    1  UNL1        0.0179
      2 C         -10.0622  -12.6424   32.6581 C.ar    1  UNL1        0.0028
      3 C          -9.0689  -11.6923   32.4030 C.ar    1  UNL1        0.0148
      4 C          -8.8508  -11.2266   31.0941 C.ar    1  UNL1        0.0516
      5 C          -9.6730  -11.6924   30.0575 C.ar    1  UNL1        0.0148
      6 C         -10.6654  -12.6426   30.3129 C.ar    1  UNL1        0.0028
      7 C         -13.2492  -11.1836   32.6140 C.3     1  UNL1        0.0327
      8 C         -13.7730  -12.5778   32.7551 C.ar    1  UNL1       -0.0005
      9 C         -15.0344  -12.9230   33.2354 C.ar    1  UNL1        0.0693
     10 N         -15.2072  -14.2628   33.1949 N.ar    1  UNL1       -0.3376
     11 C         -14.0633  -14.7606   32.7009 C.ar    1  UNL1        0.1438
     12 N         -13.8172  -16.0665   32.4401 N.ar    1  UNL1       -0.2042
     13 C         -12.6134  -16.4061   31.8955 C.ar    1  UNL1        0.1876
     14 S         -12.2550  -18.1168   31.5319 S.3     1  UNL1       -0.1034
     15 N         -11.6781  -15.4439   31.6264 N.ar    1  UNL1       -0.2213
     16 C         -11.9073  -14.1233   31.8896 C.ar    1  UNL1        0.0860
     17 C         -13.1514  -13.7774   32.4335 C.ar    1  UNL1        0.0492
     18 H         -16.0615  -14.7955   33.4718 H       1  UNL1        0.1674
     19 H         -12.7810  -18.0047   30.2314 H       1  UNL1        0.1101
     20 N          -7.8509  -10.2342   30.8084 N.am    1  UNL1       -0.2679
     21 C          -6.7349  -10.4533   29.9243 C.2     1  UNL1        0.3115
     22 O          -6.6831  -11.5059   29.2306 O.2     1  UNL1       -0.2519
     23 N          -5.6822   -9.4715   29.8053 N.am    1  UNL1       -0.2396
     24 H          -8.0029   -9.2800   31.2036 H       1  UNL1        0.1564
     25 C          -5.8626   -8.1317   30.2947 C.ar    1  UNL1        0.0659
     26 C          -6.4893   -7.1763   29.4804 C.ar    1  UNL1        0.0158
     27 C          -6.6714   -5.8688   29.9383 C.ar    1  UNL1        0.0013
     28 C          -6.2320   -5.5068   31.2138 C.ar    1  UNL1        0.0009
     29 C          -5.6120   -6.4521   32.0350 C.ar    1  UNL1        0.0127
     30 C          -5.4257   -7.7645   31.5841 C.ar    1  UNL1        0.0714
     31 CL         -4.6609   -8.9300   32.6565 Cl      1  UNL1       -0.0809
     32 C          -4.4312   -9.8049   29.1118 C.3     1  UNL1        0.1314
     33 C          -4.6199   -9.7170   27.5967 C.3     1  UNL1        0.1590
     34 O          -5.0213  -10.9582   27.0846 O.3     1  UNL1       -0.3802
     35 H          -5.9839  -11.0586   27.3061 H       1  UNL1        0.2105
@<TRIPOS>BOND
     1     7     8    1
     2     8     9   ar
     3     9    10   ar
     4    10    11   ar
     5    11    12   ar
     6    12    13   ar
     7    13    14    1
     8    13    15   ar
     9    15    16   ar
    10    16     1    1
    11     1     2   ar
    12     2     3   ar
    13     3     4   ar
    14     4    20    1
    15    20    21   am
    16    21    22    2
    17    21    23   am
    18    23    32    1
    19    32    33    1
    20    33    34    1
    21    23    25    1
    22    25    26   ar
    23    26    27   ar
    24    27    28   ar
    25    28    29   ar
    26    29    30   ar
    27    30    31    1
    28     4     5   ar
    29     5     6   ar
    30    16    17   ar
    31    17     8   ar
    32    17    11   ar
    33     6     1   ar
    34    30    25   ar
    35    10    18    1
    36    14    19    1
    37    20    24    1
    38    34    35    1
@<TRIPOS>MOLECULE
*****
 35 38 0 0 0
SMALL
GASTEIGER

@<TRIPOS>ATOM
      1 C         -10.8356  -13.2760   31.9564 C.ar    1  UNL1        0.0179
      2 C         -10.7978  -12.8093   30.6355 C.ar    1  UNL1        0.0028
      3 C          -9.9260  -11.7765   30.2780 C.ar    1  UNL1        0.0148
      4 C          -9.0779  -11.1980   31.2392 C.ar    1  UNL1        0.0516
      5 C          -9.0850  -11.7021   32.5481 C.ar    1  UNL1        0.0148
      6 C          -9.9571  -12.7341   32.9052 C.ar    1  UNL1        0.0028
      7 C         -12.4513  -11.9449   34.4505 C.3     1  UNL1        0.0327
      8 C         -12.9564  -13.3487   34.3393 C.ar    1  UNL1       -0.0005
      9 C         -13.9154  -13.9309   35.1653 C.ar    1  UNL1        0.0693
     10 N         -14.1767  -15.1966   34.7702 N.ar    1  UNL1       -0.3376
     11 C         -13.3851  -15.4153   33.7091 C.ar    1  UNL1        0.1438
     12 N         -13.3589  -16.5445   32.9620 N.ar    1  UNL1       -0.2042
     13 C         -12.5241  -16.5928   31.8840 C.ar    1  UNL1        0.1876
     14 S         -12.4667  -18.0620   30.8715 S.3     1  UNL1       -0.1034
     15 N         -11.7299  -15.5224   31.5737 N.ar    1  UNL1       -0.2213
     16 C         -11.7387  -14.3787   32.3206 C.ar    1  UNL1        0.0860
     17 C         -12.6097  -14.3275   33.4170 C.ar    1  UNL1        0.0492
     18 H         -14.8663  -15.8575   35.1919 H       1  UNL1        0.1674
     19 H         -13.4853  -17.5828   30.0269 H       1  UNL1        0.1101
     20 N          -8.1571  -10.1501   30.8928 N.am    1  UNL1       -0.2679
     21 C          -7.0401  -10.3282   30.0007 C.2     1  UNL1        0.3115
     22 O          -6.9211  -11.4049   29.3539 O.2     1  UNL1       -0.2519
     23 N          -6.0636   -9.2794   29.8203 N.am    1  UNL1       -0.2396
     24 H          -8.3729   -9.1923   31.2475 H       1  UNL1        0.1564
     25 C          -6.3345   -7.9351   30.2524 C.ar    1  UNL1        0.0659
     26 C          -7.1093   -7.0911   29.4424 C.ar    1  UNL1        0.0158
     27 C          -7.3812   -5.7809   29.8449 C.ar    1  UNL1        0.0013
     28 C          -6.8844   -5.3053   31.0606 C.ar    1  UNL1        0.0009
     29 C          -6.1167   -6.1395   31.8775 C.ar    1  UNL1        0.0127
     30 C          -5.8396   -7.4537   31.4818 C.ar    1  UNL1        0.0714
     31 CL         -4.8883   -8.4786   32.5486 Cl      1  UNL1       -0.0809
     32 C          -4.8010   -9.5528   29.1215 C.3     1  UNL1        0.1314
     33 C          -5.0301   -9.6225   27.6110 C.3     1  UNL1        0.1590
     34 O          -5.1011  -10.9579   27.1917 O.3     1  UNL1       -0.3802
     35 H          -6.0005  -11.2892   27.4512 H       1  UNL1        0.2105
@<TRIPOS>BOND
     1     7     8    1
     2     8     9   ar
     3     9    10   ar
     4    10    11   ar
     5    11    12   ar
     6    12    13   ar
     7    13    14    1
     8    13    15   ar
     9    15    16   ar
    10    16     1    1
    11     1     2   ar
    12     2     3   ar
    13     3     4   ar
    14     4    20    1
    15    20    21   am
    16    21    22    2
    17    21    23   am
    18    23    32    1
    19    32    33    1
    20    33    34    1
    21    23    25    1
    22    25    26   ar
    23    26    27   ar
    24    27    28   ar
    25    28    29   ar
    26    29    30   ar
    27    30    31    1
    28     4     5   ar
    29     5     6   ar
    30    16    17   ar
    31    17     8   ar
    32    17    11   ar
    33     6     1   ar
    34    30    25   ar
    35    10    18    1
    36    14    19    1
    37    20    24    1
    38    34    35    1
@<TRIPOS>MOLECULE
*****
 35 38 0 0 0
SMALL
GASTEIGER

@<TRIPOS>ATOM
      1 C          -7.6833  -15.6988   25.4793 C.ar    1  UNL1        0.0179
      2 C          -8.9288  -15.0650   25.3736 C.ar    1  UNL1        0.0028
      3 C          -9.4900  -14.4250   26.4826 C.ar    1  UNL1        0.0148
      4 C          -8.8095  -14.4092   27.7133 C.ar    1  UNL1        0.0516
      5 C          -7.5415  -15.0025   27.8002 C.ar    1  UNL1        0.0148
      6 C          -6.9812  -15.6427   26.6915 C.ar    1  UNL1        0.0028
      7 C         -10.0054  -17.8568   24.7354 C.3     1  UNL1        0.0327
      8 C          -8.8919  -18.1051   23.7677 C.ar    1  UNL1       -0.0005
      9 C          -8.8869  -19.0815   22.7739 C.ar    1  UNL1        0.0693
     10 N          -7.7500  -19.0123   22.0464 N.ar    1  UNL1       -0.3376
     11 C          -7.0395  -18.0068   22.5798 C.ar    1  UNL1        0.1438
     12 N          -5.8476  -17.5527   22.1246 N.ar    1  UNL1       -0.2042
     13 C          -5.2726  -16.4882   22.7548 C.ar    1  UNL1        0.1876
     14 S          -3.7048  -15.8576   22.1794 S.3     1  UNL1       -0.1034
     15 N          -5.8895  -15.9007   23.8259 N.ar    1  UNL1       -0.2213
     16 C          -7.0881  -16.3503   24.3023 C.ar    1  UNL1        0.0860
     17 C          -7.6829  -17.4333   23.6415 C.ar    1  UNL1        0.0492
     18 H          -7.4902  -19.6056   21.2274 H       1  UNL1        0.1674
     19 H          -4.3314  -14.9603   21.2945 H       1  UNL1        0.1101
     20 N          -9.3544  -13.7395   28.8626 N.am    1  UNL1       -0.2679
     21 C          -8.6654  -12.7017   29.5859 C.2     1  UNL1        0.3115
     22 O          -7.5915  -12.2252   29.1260 O.2     1  UNL1       -0.2519
     23 N          -9.2002  -12.1830   30.8233 N.am    1  UNL1       -0.2396
     24 H         -10.3389  -13.9690   29.1230 H       1  UNL1        0.1564
     25 C         -10.5639  -12.4355   31.2023 C.ar    1  UNL1        0.0659
     26 C         -10.8989  -13.6563   31.8074 C.ar    1  UNL1        0.0158
     27 C         -12.2194  -13.9202   32.1806 C.ar    1  UNL1        0.0013
     28 C         -13.2140  -12.9659   31.9553 C.ar    1  UNL1        0.0009
     29 C         -12.8900  -11.7446   31.3586 C.ar    1  UNL1        0.0127
     30 C         -11.5694  -11.4720   30.9817 C.ar    1  UNL1        0.0714
     31 CL        -11.1988   -9.9143   30.2538 Cl      1  UNL1       -0.0809
     32 C          -8.3787  -11.3219   31.6840 C.3     1  UNL1        0.1314
     33 C          -8.8315  -11.4337   33.1405 C.3     1  UNL1        0.1590
     34 O          -9.2957  -10.1943   33.6012 O.3     1  UNL1       -0.3802
     35 H         -10.2028  -10.0704   33.2170 H       1  UNL1        0.2105
@<TRIPOS>BOND
     1     7     8    1
     2     8     9   ar
     3     9    10   ar
     4    10    11   ar
     5    11    12   ar
     6    12    13   ar
     7    13    14    1
     8    13    15   ar
     9    15    16   ar
    10    16     1    1
    11     1     2   ar
    12     2     3   ar
    13     3     4   ar
    14     4    20    1
    15    20    21   am
    16    21    22    2
    17    21    23   am
    18    23    32    1
    19    32    33    1
    20    33    34    1
    21    23    25    1
    22    25    26   ar
    23    26    27   ar
    24    27    28   ar
    25    28    29   ar
    26    29    30   ar
    27    30    31    1
    28     4     5   ar
    29     5     6   ar
    30    16    17   ar
    31    17     8   ar
    32    17    11   ar
    33     6     1   ar
    34    30    25   ar
    35    10    18    1
    36    14    19    1
    37    20    24    1
    38    34    35    1
@<TRIPOS>MOLECULE
*****
 35 38 0 0 0
SMALL
GASTEIGER

@<TRIPOS>ATOM
      1 C          -8.2945  -12.3063   29.9370 C.ar    1  UNL1        0.0179
      2 C          -7.1543  -12.8481   29.3283 C.ar    1  UNL1        0.0028
      3 C          -7.2831  -13.7959   28.3086 C.ar    1  UNL1        0.0148
      4 C          -8.5571  -14.2125   27.8829 C.ar    1  UNL1        0.0516
      5 C          -9.6946  -13.6309   28.4615 C.ar    1  UNL1        0.0148
      6 C          -9.5654  -12.6840   29.4813 C.ar    1  UNL1        0.0028
      7 C         -10.7103  -13.1691   31.9425 C.3     1  UNL1        0.0327
      8 C         -10.1110  -11.9322   32.5334 C.ar    1  UNL1       -0.0005
      9 C         -10.5399  -11.3038   33.7005 C.ar    1  UNL1        0.0693
     10 N          -9.7593  -10.2364   33.9790 N.ar    1  UNL1       -0.3376
     11 C          -8.8501  -10.1858   32.9936 C.ar    1  UNL1        0.1438
     12 N          -7.8319   -9.2975   32.9024 N.ar    1  UNL1       -0.2042
     13 C          -6.9634   -9.4076   31.8561 C.ar    1  UNL1        0.1876
     14 S          -5.6052   -8.2588   31.7059 S.3     1  UNL1       -0.1034
     15 N          -7.1268  -10.3928   30.9204 N.ar    1  UNL1       -0.2213
     16 C          -8.1520  -11.2924   30.9933 C.ar    1  UNL1        0.0860
     17 C          -9.0317  -11.1856   32.0787 C.ar    1  UNL1        0.0492
     18 H          -9.8370   -9.5978   34.8015 H       1  UNL1        0.1674
     19 H          -4.7544   -9.0850   32.4636 H       1  UNL1        0.1101
     20 N          -8.7171  -15.1690   26.8219 N.am    1  UNL1       -0.2679
     21 C          -7.6782  -15.5030   25.8816 C.2     1  UNL1        0.3115
     22 O          -6.5082  -15.0659   26.0599 O.2     1  UNL1       -0.2519
     23 N          -7.9540  -16.3516   24.7457 N.am    1  UNL1       -0.2396
     24 H          -9.6125  -15.7051   26.7973 H       1  UNL1        0.1564
     25 C          -9.1532  -17.1427   24.6883 C.ar    1  UNL1        0.0659
     26 C          -9.3262  -18.2030   25.5909 C.ar    1  UNL1        0.0158
     27 C         -10.4841  -18.9841   25.5486 C.ar    1  UNL1        0.0013
     28 C         -11.4789  -18.7099   24.6073 C.ar    1  UNL1        0.0009
     29 C         -11.3192  -17.6525   23.7078 C.ar    1  UNL1        0.0127
     30 C         -10.1621  -16.8649   23.7433 C.ar    1  UNL1        0.0714
     31 CL        -10.0091  -15.5297   22.6087 Cl      1  UNL1       -0.0809
     32 C          -6.9743  -16.4790   23.6590 C.3     1  UNL1        0.1314
     33 C          -6.7329  -15.1226   22.9950 C.3     1  UNL1        0.1590
     34 O          -5.6017  -14.5064   23.5468 O.3     1  UNL1       -0.3802
     35 H          -4.8110  -14.9599   23.1529 H       1  UNL1        0.2105
@<TRIPOS>BOND
     1     7     8    1
     2     8     9   ar
     3     9    10   ar
     4    10    11   ar
     5    11    12   ar
     6    12    13   ar
     7    13    14    1
     8    13    15   ar
     9    15    16   ar
    10    16     1    1
    11     1     2   ar
    12     2     3   ar
    13     3     4   ar
    14     4    20    1
    15    20    21   am
    16    21    22    2
    17    21    23   am
    18    23    32    1
    19    32    33    1
    20    33    34    1
    21    23    25    1
    22    25    26   ar
    23    26    27   ar
    24    27    28   ar
    25    28    29   ar
    26    29    30   ar
    27    30    31    1
    28     4     5   ar
    29     5     6   ar
    30    16    17   ar
    31    17     8   ar
    32    17    11   ar
    33     6     1   ar
    34    30    25   ar
    35    10    18    1
    36    14    19    1
    37    20    24    1
    38    34    35    1
@<TRIPOS>MOLECULE
*****
 35 38 0 0 0
SMALL
GASTEIGER

@<TRIPOS>ATOM
      1 C          -8.2283  -15.9147   25.5409 C.ar    1  UNL1        0.0179
      2 C          -7.7973  -16.2934   26.8195 C.ar    1  UNL1        0.0028
      3 C          -8.2316  -15.5894   27.9466 C.ar    1  UNL1        0.0148
      4 C          -9.1061  -14.4967   27.8082 C.ar    1  UNL1        0.0516
      5 C          -9.5728  -14.1530   26.5309 C.ar    1  UNL1        0.0148
      6 C          -9.1378  -14.8566   25.4045 C.ar    1  UNL1        0.0028
      7 C          -5.1513  -14.8848   25.2695 C.3     1  UNL1        0.0327
      8 C          -5.3805  -15.7976   24.1066 C.ar    1  UNL1       -0.0005
      9 C          -4.4427  -16.1060   23.1235 C.ar    1  UNL1        0.0693
     10 N          -4.9546  -16.9924   22.2409 N.ar    1  UNL1       -0.3376
     11 C          -6.2064  -17.2364   22.6576 C.ar    1  UNL1        0.1438
     12 N          -7.0710  -18.1121   22.0923 N.ar    1  UNL1       -0.2042
     13 C          -8.2981  -18.2774   22.6650 C.ar    1  UNL1        0.1876
     14 S          -9.4623  -19.4276   21.9519 S.3     1  UNL1       -0.1034
     15 N          -8.6428  -17.5667   23.7826 N.ar    1  UNL1       -0.2213
     16 C          -7.7858  -16.6743   24.3613 C.ar    1  UNL1        0.0860
     17 C          -6.5205  -16.5203   23.7793 C.ar    1  UNL1        0.0492
     18 H          -4.4681  -17.4136   21.4186 H       1  UNL1        0.1674
     19 H          -8.9805  -20.4867   22.7436 H       1  UNL1        0.1101
     20 N          -9.5846  -13.7700   28.9523 N.am    1  UNL1       -0.2679
     21 C          -8.8247  -12.7498   29.6281 C.2     1  UNL1        0.3115
     22 O          -7.7414  -12.3409   29.1269 O.2     1  UNL1       -0.2519
     23 N          -9.2982  -12.1720   30.8642 N.am    1  UNL1       -0.2396
     24 H         -10.5718  -13.9421   29.2449 H       1  UNL1        0.1564
     25 C         -10.6619  -12.3447   31.2859 C.ar    1  UNL1        0.0659
     26 C         -11.0530  -13.5516   31.8852 C.ar    1  UNL1        0.0158
     27 C         -12.3744  -13.7383   32.2994 C.ar    1  UNL1        0.0013
     28 C         -13.3138  -12.7201   32.1214 C.ar    1  UNL1        0.0009
     29 C         -12.9333  -11.5121   31.5310 C.ar    1  UNL1        0.0127
     30 C         -11.6113  -11.3167   31.1131 C.ar    1  UNL1        0.0714
     31 CL        -11.1675   -9.7739   30.3947 Cl      1  UNL1       -0.0809
     32 C          -8.4110  -11.3313   31.6786 C.3     1  UNL1        0.1314
     33 C          -8.7872  -11.4328   33.1575 C.3     1  UNL1        0.1590
     34 O          -9.2438  -10.1944   33.6286 O.3     1  UNL1       -0.3802
     35 H         -10.1710  -10.0864   33.2901 H       1  UNL1        0.2105
@<TRIPOS>BOND
     1     7     8    1
     2     8     9   ar
     3     9    10   ar
     4    10    11   ar
     5    11    12   ar
     6    12    13   ar
     7    13    14    1
     8    13    15   ar
     9    15    16   ar
    10    16     1    1
    11     1     2   ar
    12     2     3   ar
    13     3     4   ar
    14     4    20    1
    15    20    21   am
    16    21    22    2
    17    21    23   am
    18    23    32    1
    19    32    33    1
    20    33    34    1
    21    23    25    1
    22    25    26   ar
    23    26    27   ar
    24    27    28   ar
    25    28    29   ar
    26    29    30   ar
    27    30    31    1
    28     4     5   ar
    29     5     6   ar
    30    16    17   ar
    31    17     8   ar
    32    17    11   ar
    33     6     1   ar
    34    30    25   ar
    35    10    18    1
    36    14    19    1
    37    20    24    1
    38    34    35    1
@<TRIPOS>MOLECULE
*****
 35 38 0 0 0
SMALL
GASTEIGER

@<TRIPOS>ATOM
      1 C          -8.4823  -16.6004   25.8674 C.ar    1  UNL1        0.0179
      2 C          -9.3032  -15.4665   25.8008 C.ar    1  UNL1        0.0028
      3 C          -9.1264  -14.4147   26.7047 C.ar    1  UNL1        0.0148
      4 C          -8.1224  -14.4836   27.6872 C.ar    1  UNL1        0.0516
      5 C          -7.2723  -15.5987   27.7179 C.ar    1  UNL1        0.0148
      6 C          -7.4498  -16.6502   26.8146 C.ar    1  UNL1        0.0028
      7 C          -7.0380  -15.3282   23.2411 C.3     1  UNL1        0.0327
      8 C          -7.5851  -16.6508   22.8059 C.ar    1  UNL1       -0.0005
      9 C          -7.4849  -17.1848   21.5230 C.ar    1  UNL1        0.0693
     10 N          -8.0467  -18.4130   21.4751 N.ar    1  UNL1       -0.3376
     11 C          -8.5044  -18.6503   22.7138 C.ar    1  UNL1        0.1438
     12 N          -9.0969  -19.7941   23.1318 N.ar    1  UNL1       -0.2042
     13 C          -9.4682  -19.8944   24.4407 C.ar    1  UNL1        0.1876
     14 S         -10.2462  -21.3891   25.0302 S.3     1  UNL1       -0.1034
     15 N          -9.2486  -18.8563   25.3051 N.ar    1  UNL1       -0.2213
     16 C          -8.6588  -17.6932   24.8985 C.ar    1  UNL1        0.0860
     17 C          -8.2641  -17.6012   23.5572 C.ar    1  UNL1        0.0492
     18 H          -8.0949  -19.0509   20.6498 H       1  UNL1        0.1674
     19 H          -9.0063  -21.9639   25.3662 H       1  UNL1        0.1101
     20 N          -7.9057  -13.4066   28.6142 N.am    1  UNL1       -0.2679
     21 C          -8.9676  -12.7037   29.2874 C.2     1  UNL1        0.3115
     22 O         -10.1530  -13.1270   29.1991 O.2     1  UNL1       -0.2519
     23 N          -8.6899  -11.5300   30.0819 N.am    1  UNL1       -0.2396
     24 H          -6.9164  -13.1909   28.8680 H       1  UNL1        0.1564
     25 C          -7.3483  -11.2166   30.4932 C.ar    1  UNL1        0.0659
     26 C          -6.3688  -10.9612   29.5215 C.ar    1  UNL1        0.0158
     27 C          -5.0592  -10.6571   29.9024 C.ar    1  UNL1        0.0013
     28 C          -4.7191  -10.6024   31.2559 C.ar    1  UNL1        0.0009
     29 C          -5.6884  -10.8494   32.2317 C.ar    1  UNL1        0.0127
     30 C          -7.0030  -11.1547   31.8589 C.ar    1  UNL1        0.0714
     31 CL         -8.1984  -11.4373   33.1177 Cl      1  UNL1       -0.0809
     32 C          -9.7873  -10.6728   30.5489 C.3     1  UNL1        0.1314
     33 C         -10.2724   -9.7626   29.4196 C.3     1  UNL1        0.1590
     34 O          -9.1901   -9.0827   28.8451 O.3     1  UNL1       -0.3802
     35 H          -8.7221   -9.7358   28.2617 H       1  UNL1        0.2105
@<TRIPOS>BOND
     1     7     8    1
     2     8     9   ar
     3     9    10   ar
     4    10    11   ar
     5    11    12   ar
     6    12    13   ar
     7    13    14    1
     8    13    15   ar
     9    15    16   ar
    10    16     1    1
    11     1     2   ar
    12     2     3   ar
    13     3     4   ar
    14     4    20    1
    15    20    21   am
    16    21    22    2
    17    21    23   am
    18    23    32    1
    19    32    33    1
    20    33    34    1
    21    23    25    1
    22    25    26   ar
    23    26    27   ar
    24    27    28   ar
    25    28    29   ar
    26    29    30   ar
    27    30    31    1
    28     4     5   ar
    29     5     6   ar
    30    16    17   ar
    31    17     8   ar
    32    17    11   ar
    33     6     1   ar
    34    30    25   ar
    35    10    18    1
    36    14    19    1
    37    20    24    1
    38    34    35    1
@<TRIPOS>MOLECULE
*****
 35 38 0 0 0
SMALL
GASTEIGER

@<TRIPOS>ATOM
      1 C          -6.8223  -15.4626   25.7715 C.ar    1  UNL1        0.0179
      2 C          -8.1145  -15.7253   26.2460 C.ar    1  UNL1        0.0028
      3 C          -8.6132  -15.0315   27.3525 C.ar    1  UNL1        0.0148
      4 C          -7.8243  -14.0626   27.9980 C.ar    1  UNL1        0.0516
      5 C          -6.5508  -13.7690   27.4889 C.ar    1  UNL1        0.0148
      6 C          -6.0524  -14.4633   26.3832 C.ar    1  UNL1        0.0028
      7 C          -9.5008  -15.5840   23.9240 C.3     1  UNL1        0.0327
      8 C          -8.4516  -16.3403   23.1723 C.ar    1  UNL1       -0.0005
      9 C          -8.6317  -16.9651   21.9401 C.ar    1  UNL1        0.0693
     10 N          -7.4755  -17.5229   21.5174 N.ar    1  UNL1       -0.3376
     11 C          -6.5748  -17.2599   22.4765 C.ar    1  UNL1        0.1438
     12 N          -5.2622  -17.5911   22.4403 N.ar    1  UNL1       -0.2042
     13 C          -4.4658  -17.2111   23.4807 C.ar    1  UNL1        0.1876
     14 S          -2.7291  -17.6240   23.4654 S.3     1  UNL1       -0.1034
     15 N          -4.9896  -16.5158   24.5367 N.ar    1  UNL1       -0.2213
     16 C          -6.3124  -16.1798   24.5925 C.ar    1  UNL1        0.0860
     17 C          -7.1230  -16.5577   23.5139 C.ar    1  UNL1        0.0492
     18 H          -7.3145  -18.0339   20.6212 H       1  UNL1        0.1674
     19 H          -2.3964  -16.4247   22.8085 H       1  UNL1        0.1101
     20 N          -8.3215  -13.3199   29.1238 N.am    1  UNL1       -0.2679
     21 C          -7.6192  -12.2172   29.7288 C.2     1  UNL1        0.3115
     22 O          -6.5840  -11.7549   29.1751 O.2     1  UNL1       -0.2519
     23 N          -8.0978  -11.6182   30.9529 N.am    1  UNL1       -0.2396
     24 H          -9.2844  -13.5489   29.4556 H       1  UNL1        0.1564
     25 C          -9.4322  -11.8690   31.4258 C.ar    1  UNL1        0.0659
     26 C          -9.6197  -12.5385   32.6446 C.ar    1  UNL1        0.0158
     27 C         -10.9091  -12.7929   33.1191 C.ar    1  UNL1        0.0013
     28 C         -12.0204  -12.3778   32.3818 C.ar    1  UNL1        0.0009
     29 C         -11.8447  -11.7051   31.1696 C.ar    1  UNL1        0.0127
     30 C         -10.5561  -11.4460   30.6870 C.ar    1  UNL1        0.0714
     31 CL        -10.3774  -10.5773   29.1682 Cl      1  UNL1       -0.0809
     32 C          -7.2514  -10.6788   31.7001 C.3     1  UNL1        0.1314
     33 C          -8.0065   -9.3761   31.9684 C.3     1  UNL1        0.1590
     34 O          -8.0673   -9.1250   33.3458 O.3     1  UNL1       -0.3802
     35 H          -7.1727   -8.7863   33.6122 H       1  UNL1        0.2105
@<TRIPOS>BOND
     1     7     8    1
     2     8     9   ar
     3     9    10   ar
     4    10    11   ar
     5    11    12   ar
     6    12    13   ar
     7    13    14    1
     8    13    15   ar
     9    15    16   ar
    10    16     1    1
    11     1     2   ar
    12     2     3   ar
    13     3     4   ar
    14     4    20    1
    15    20    21   am
    16    21    22    2
    17    21    23   am
    18    23    32    1
    19    32    33    1
    20    33    34    1
    21    23    25    1
    22    25    26   ar
    23    26    27   ar
    24    27    28   ar
    25    28    29   ar
    26    29    30   ar
    27    30    31    1
    28     4     5   ar
    29     5     6   ar
    30    16    17   ar
    31    17     8   ar
    32    17    11   ar
    33     6     1   ar
    34    30    25   ar
    35    10    18    1
    36    14    19    1
    37    20    24    1
    38    34    35    1
@<TRIPOS>MOLECULE
*****
 35 38 0 0 0
SMALL
GASTEIGER

@<TRIPOS>ATOM
      1 C          -7.8977  -12.7273   29.4279 C.ar    1  UNL1        0.0179
      2 C          -9.2267  -13.0003   29.0772 C.ar    1  UNL1        0.0028
      3 C          -9.5132  -13.9187   28.0628 C.ar    1  UNL1        0.0148
      4 C          -8.4712  -14.5784   27.3868 C.ar    1  UNL1        0.0516
      5 C          -7.1451  -14.3380   27.7754 C.ar    1  UNL1        0.0148
      6 C          -6.8592  -13.4193   28.7890 C.ar    1  UNL1        0.0028
      7 C          -5.4968  -10.9872   28.0824 C.3     1  UNL1        0.0327
      8 C          -5.6557  -10.4574   29.4724 C.ar    1  UNL1       -0.0005
      9 C          -4.8989   -9.4341   30.0392 C.ar    1  UNL1        0.0693
     10 N          -5.3240   -9.1690   31.2943 N.ar    1  UNL1       -0.3376
     11 C          -6.3349  -10.0214   31.5219 C.ar    1  UNL1        0.1438
     12 N          -7.0915  -10.0688   32.6441 N.ar    1  UNL1       -0.2042
     13 C          -8.1146  -10.9693   32.7021 C.ar    1  UNL1        0.1876
     14 S          -9.1377  -11.0568   34.1624 S.3     1  UNL1       -0.1034
     15 N          -8.3616  -11.8067   31.6482 N.ar    1  UNL1       -0.2213
     16 C          -7.6041  -11.7771   30.5120 C.ar    1  UNL1        0.0860
     17 C          -6.5649  -10.8392   30.4504 C.ar    1  UNL1        0.0492
     18 H          -4.9545   -8.4385   31.9424 H       1  UNL1        0.1674
     19 H         -10.0401  -10.1058   33.6506 H       1  UNL1        0.1101
     20 N          -8.7394  -15.5431   26.3555 N.am    1  UNL1       -0.2679
     21 C          -7.8811  -15.7597   25.2190 C.2     1  UNL1        0.3115
     22 O          -6.7518  -15.1991   25.1715 O.2     1  UNL1       -0.2519
     23 N          -8.2884  -16.6293   24.1401 N.am    1  UNL1       -0.2396
     24 H          -9.5600  -16.1727   26.4964 H       1  UNL1        0.1564
     25 C          -9.3846  -17.5453   24.3030 C.ar    1  UNL1        0.0659
     26 C          -9.1880  -18.7403   25.0116 C.ar    1  UNL1        0.0158
     27 C         -10.2411  -19.6435   25.1782 C.ar    1  UNL1        0.0013
     28 C         -11.4987  -19.3585   24.6416 C.ar    1  UNL1        0.0009
     29 C         -11.7067  -18.1685   23.9393 C.ar    1  UNL1        0.0127
     30 C         -10.6570  -17.2578   23.7677 C.ar    1  UNL1        0.0714
     31 CL        -10.9654  -15.7614   22.8966 Cl      1  UNL1       -0.0809
     32 C          -7.5390  -16.6464   22.8771 C.3     1  UNL1        0.1314
     33 C          -7.5630  -15.2645   22.2223 C.3     1  UNL1        0.1590
     34 O          -6.3226  -14.6314   22.3788 O.3     1  UNL1       -0.3802
     35 H          -5.7059  -15.0494   21.7224 H       1  UNL1        0.2105
@<TRIPOS>BOND
     1     7     8    1
     2     8     9   ar
     3     9    10   ar
     4    10    11   ar
     5    11    12   ar
     6    12    13   ar
     7    13    14    1
     8    13    15   ar
     9    15    16   ar
    10    16     1    1
    11     1     2   ar
    12     2     3   ar
    13     3     4   ar
    14     4    20    1
    15    20    21   am
    16    21    22    2
    17    21    23   am
    18    23    32    1
    19    32    33    1
    20    33    34    1
    21    23    25    1
    22    25    26   ar
    23    26    27   ar
    24    27    28   ar
    25    28    29   ar
    26    29    30   ar
    27    30    31    1
    28     4     5   ar
    29     5     6   ar
    30    16    17   ar
    31    17     8   ar
    32    17    11   ar
    33     6     1   ar
    34    30    25   ar
    35    10    18    1
    36    14    19    1
    37    20    24    1
    38    34    35    1
@<TRIPOS>MOLECULE
*****
 35 38 0 0 0
SMALL
GASTEIGER

@<TRIPOS>ATOM
      1 C         -10.9349  -13.3900   31.8494 C.ar    1  UNL1        0.0179
      2 C         -10.2715  -12.8441   32.9566 C.ar    1  UNL1        0.0028
      3 C          -9.2065  -11.9572   32.7729 C.ar    1  UNL1        0.0148
      4 C          -8.7927  -11.6030   31.4763 C.ar    1  UNL1        0.0516
      5 C          -9.4917  -12.1139   30.3728 C.ar    1  UNL1        0.0148
      6 C         -10.5557  -13.0010   30.5569 C.ar    1  UNL1        0.0028
      7 C         -13.2683  -11.2893   32.7124 C.3     1  UNL1        0.0327
      8 C         -13.8870  -12.6482   32.8064 C.ar    1  UNL1       -0.0005
      9 C         -15.1963  -12.9150   33.2005 C.ar    1  UNL1        0.0693
     10 N         -15.4501  -14.2410   33.1367 N.ar    1  UNL1       -0.3376
     11 C         -14.3100  -14.8079   32.7136 C.ar    1  UNL1        0.1438
     12 N         -14.1300  -16.1255   32.4576 N.ar    1  UNL1       -0.2042
     13 C         -12.9169  -16.5380   31.9893 C.ar    1  UNL1        0.1876
     14 S         -12.6440  -18.2661   31.6343 S.3     1  UNL1       -0.1034
     15 N         -11.9073  -15.6358   31.7903 N.ar    1  UNL1       -0.2213
     16 C         -12.0696  -14.3046   32.0501 C.ar    1  UNL1        0.0860
     17 C         -13.3224  -13.8832   32.5151 C.ar    1  UNL1        0.0492
     18 H         -16.3526  -14.7197   33.3526 H       1  UNL1        0.1674
     19 H         -13.0755  -18.1145   30.3034 H       1  UNL1        0.1101
     20 N          -7.7151  -10.6765   31.2604 N.am    1  UNL1       -0.2679
     21 C          -7.3155   -9.6761   32.2167 C.2     1  UNL1        0.3115
     22 O          -7.8151   -9.6827   33.3753 O.2     1  UNL1       -0.2519
     23 N          -6.3320   -8.6758   31.8729 N.am    1  UNL1       -0.2396
     24 H          -7.1457  -10.8044   30.3949 H       1  UNL1        0.1564
     25 C          -5.4939   -8.8309   30.7150 C.ar    1  UNL1        0.0659
     26 C          -5.4920   -7.8372   29.7244 C.ar    1  UNL1        0.0158
     27 C          -4.6855   -7.9718   28.5912 C.ar    1  UNL1        0.0013
     28 C          -3.8728   -9.0977   28.4407 C.ar    1  UNL1        0.0009
     29 C          -3.8628  -10.0903   29.4241 C.ar    1  UNL1        0.0127
     30 C          -4.6677   -9.9633   30.5628 C.ar    1  UNL1        0.0714
     31 CL         -4.6099  -11.2239   31.7879 Cl      1  UNL1       -0.0809
     32 C          -6.1183   -7.5139   32.7456 C.3     1  UNL1        0.1314
     33 C          -4.6478   -7.4154   33.1542 C.3     1  UNL1        0.1590
     34 O          -4.4681   -7.9241   34.4476 O.3     1  UNL1       -0.3802
     35 H          -4.4906   -8.9136   34.3690 H       1  UNL1        0.2105
@<TRIPOS>BOND
     1     7     8    1
     2     8     9   ar
     3     9    10   ar
     4    10    11   ar
     5    11    12   ar
     6    12    13   ar
     7    13    14    1
     8    13    15   ar
     9    15    16   ar
    10    16     1    1
    11     1     2   ar
    12     2     3   ar
    13     3     4   ar
    14     4    20    1
    15    20    21   am
    16    21    22    2
    17    21    23   am
    18    23    32    1
    19    32    33    1
    20    33    34    1
    21    23    25    1
    22    25    26   ar
    23    26    27   ar
    24    27    28   ar
    25    28    29   ar
    26    29    30   ar
    27    30    31    1
    28     4     5   ar
    29     5     6   ar
    30    16    17   ar
    31    17     8   ar
    32    17    11   ar
    33     6     1   ar
    34    30    25   ar
    35    10    18    1
    36    14    19    1
    37    20    24    1
    38    34    35    1
