@<TRIPOS>MOLECULE
*****
 31 33 0 0 0
SMALL
GASTEIGER

@<TRIPOS>ATOM
      1 C         -22.1573   -8.6394  -12.4920 C.2     1  UNL1       -0.0222
      2 C         -21.5710   -9.5289  -11.6422 C.2     1  UNL1       -0.0042
      3 C         -21.2401  -10.9132  -12.0506 C.ar    1  UNL1       -0.0003
      4 C         -21.6819  -11.4169  -13.2854 C.ar    1  UNL1       -0.0000
      5 C         -21.3330  -12.7110  -13.6830 C.ar    1  UNL1       -0.0000
      6 C         -20.5274  -13.5031  -12.8603 C.ar    1  UNL1       -0.0000
      7 C         -20.0626  -12.9991  -11.6423 C.ar    1  UNL1       -0.0000
      8 C         -20.4090  -11.7053  -11.2415 C.ar    1  UNL1       -0.0000
      9 C         -21.2262   -9.1599  -10.2461 C.ar    1  UNL1       -0.0017
     10 C         -19.8975   -8.8108   -9.9628 C.ar    1  UNL1        0.0029
     11 C         -19.5180   -8.4358   -8.6743 C.ar    1  UNL1        0.0369
     12 C         -20.4651   -8.4050   -7.6373 C.ar    1  UNL1        0.1384
     13 C         -21.7807   -8.7951   -7.9052 C.ar    1  UNL1        0.0350
     14 C         -22.1780   -9.1826   -9.1957 C.ar    1  UNL1        0.0100
     15 C         -23.6070   -9.6248   -9.3949 C.3     1  UNL1        0.1637
     16 O         -24.3387   -9.3788   -8.2269 O.3     1  UNL1       -0.3772
     17 H         -25.2668   -9.6758   -8.4143 H       1  UNL1        0.2109
     18 O         -20.1477   -8.0141   -6.3263 O.3     1  UNL1       -0.4740
     19 C         -19.2487   -8.6877   -5.4429 C.3     1  UNL1        0.2226
     20 C         -17.9260   -7.9216   -5.3202 C.3     1  UNL1        0.1201
     21 N         -16.7752   -8.8500   -5.2949 N.3     1  UNL1       -0.2672
     22 C         -15.8230   -8.4694   -4.2402 C.3     1  UNL1        0.0898
     23 C         -17.2212  -10.2377   -5.0804 C.3     1  UNL1        0.0898
     24 C         -22.3099   -7.2067  -12.1155 C.ar    1  UNL1       -0.0040
     25 C         -23.5893   -6.6529  -11.9257 C.ar    1  UNL1       -0.0003
     26 C         -23.7318   -5.3112  -11.5604 C.ar    1  UNL1       -0.0000
     27 C         -22.6016   -4.5130  -11.3712 C.ar    1  UNL1       -0.0000
     28 C         -21.3263   -5.0583  -11.5358 C.ar    1  UNL1       -0.0000
     29 C         -21.1788   -6.4008  -11.8970 C.ar    1  UNL1       -0.0003
     30 C         -22.0559   -8.2673  -14.9889 C.3     1  UNL1        0.0050
     31 C         -22.6942   -9.0609  -13.8490 C.3     1  UNL1        0.0264
@<TRIPOS>BOND
     1    30    31    1
     2    31     1    1
     3     1     2    2
     4     2     3    1
     5     3     4   ar
     6     4     5   ar
     7     5     6   ar
     8     6     7   ar
     9     7     8   ar
    10     2     9    1
    11     9    10   ar
    12    10    11   ar
    13    11    12   ar
    14    12    18    1
    15    18    19    1
    16    19    20    1
    17    20    21    1
    18    21    22    1
    19    21    23    1
    20    12    13   ar
    21    13    14   ar
    22    14    15    1
    23    15    16    1
    24     1    24    1
    25    24    25   ar
    26    25    26   ar
    27    26    27   ar
    28    27    28   ar
    29    28    29   ar
    30     8     3   ar
    31    14     9   ar
    32    29    24   ar
    33    16    17    1
@<TRIPOS>MOLECULE
*****
 31 33 0 0 0
SMALL
GASTEIGER

@<TRIPOS>ATOM
      1 C         -22.1272   -8.6548  -12.4995 C.2     1  UNL1       -0.0222
      2 C         -21.5699   -9.5588  -11.6455 C.2     1  UNL1       -0.0042
      3 C         -21.2445  -10.9427  -12.0600 C.ar    1  UNL1       -0.0003
      4 C         -21.7039  -11.4451  -13.2888 C.ar    1  UNL1       -0.0000
      5 C         -21.3604  -12.7388  -13.6928 C.ar    1  UNL1       -0.0000
      6 C         -20.5429  -13.5315  -12.8825 C.ar    1  UNL1       -0.0000
      7 C         -20.0608  -13.0287  -11.6709 C.ar    1  UNL1       -0.0000
      8 C         -20.4017  -11.7353  -11.2638 C.ar    1  UNL1       -0.0000
      9 C         -21.2531   -9.2072  -10.2383 C.ar    1  UNL1       -0.0017
     10 C         -19.9290   -8.8684   -9.9229 C.ar    1  UNL1        0.0029
     11 C         -19.5752   -8.5097   -8.6225 C.ar    1  UNL1        0.0369
     12 C         -20.5441   -8.4853   -7.6056 C.ar    1  UNL1        0.1384
     13 C         -21.8556   -8.8654   -7.9058 C.ar    1  UNL1        0.0350
     14 C         -22.2273   -9.2365   -9.2088 C.ar    1  UNL1        0.0100
     15 C         -23.6539   -9.6688   -9.4433 C.3     1  UNL1        0.1637
     16 O         -24.4137   -9.4130   -8.2955 O.3     1  UNL1       -0.3772
     17 H         -25.3389   -9.7039   -8.5058 H       1  UNL1        0.2109
     18 O         -20.2528   -8.1107   -6.2839 O.3     1  UNL1       -0.4740
     19 C         -19.0043   -8.2960   -5.6136 C.3     1  UNL1        0.2226
     20 C         -19.2125   -8.9429   -4.2389 C.3     1  UNL1        0.1201
     21 N         -20.4104   -8.3922   -3.5691 N.3     1  UNL1       -0.2672
     22 C         -21.2917   -9.4754   -3.1066 C.3     1  UNL1        0.0898
     23 C         -20.0325   -7.5415   -2.4272 C.3     1  UNL1        0.0898
     24 C         -22.2730   -7.2243  -12.1124 C.ar    1  UNL1       -0.0040
     25 C         -23.5496   -6.6672  -11.9132 C.ar    1  UNL1       -0.0003
     26 C         -23.6857   -5.3277  -11.5379 C.ar    1  UNL1       -0.0000
     27 C         -22.5519   -4.5348  -11.3479 C.ar    1  UNL1       -0.0000
     28 C         -21.2793   -5.0835  -11.5218 C.ar    1  UNL1       -0.0000
     29 C         -21.1381   -6.4240  -11.8931 C.ar    1  UNL1       -0.0003
     30 C         -21.9855   -8.2400  -14.9877 C.3     1  UNL1        0.0050
     31 C         -22.6374   -9.0572  -13.8724 C.3     1  UNL1        0.0264
@<TRIPOS>BOND
     1    30    31    1
     2    31     1    1
     3     1     2    2
     4     2     3    1
     5     3     4   ar
     6     4     5   ar
     7     5     6   ar
     8     6     7   ar
     9     7     8   ar
    10     2     9    1
    11     9    10   ar
    12    10    11   ar
    13    11    12   ar
    14    12    18    1
    15    18    19    1
    16    19    20    1
    17    20    21    1
    18    21    22    1
    19    21    23    1
    20    12    13   ar
    21    13    14   ar
    22    14    15    1
    23    15    16    1
    24     1    24    1
    25    24    25   ar
    26    25    26   ar
    27    26    27   ar
    28    27    28   ar
    29    28    29   ar
    30     8     3   ar
    31    14     9   ar
    32    29    24   ar
    33    16    17    1
@<TRIPOS>MOLECULE
*****
 31 33 0 0 0
SMALL
GASTEIGER

@<TRIPOS>ATOM
      1 C         -24.1839   -9.7066  -12.7032 C.2     1  UNL1       -0.0222
      2 C         -22.8881   -9.2987  -12.8110 C.2     1  UNL1       -0.0042
      3 C         -22.1944   -9.2035  -14.1158 C.ar    1  UNL1       -0.0003
      4 C         -21.7957  -10.3654  -14.7973 C.ar    1  UNL1       -0.0000
      5 C         -21.1766  -10.2706  -16.0473 C.ar    1  UNL1       -0.0000
      6 C         -20.9680   -9.0186  -16.6323 C.ar    1  UNL1       -0.0000
      7 C         -21.3857   -7.8599  -15.9717 C.ar    1  UNL1       -0.0000
      8 C         -22.0055   -7.9507  -14.7218 C.ar    1  UNL1       -0.0000
      9 C         -22.0891   -8.9223  -11.6177 C.ar    1  UNL1       -0.0017
     10 C         -22.1535   -7.5944  -11.1701 C.ar    1  UNL1        0.0029
     11 C         -21.4409   -7.1866  -10.0429 C.ar    1  UNL1        0.0369
     12 C         -20.6431   -8.1036   -9.3386 C.ar    1  UNL1        0.1384
     13 C         -20.5407   -9.4169   -9.8071 C.ar    1  UNL1        0.0350
     14 C         -21.2459   -9.8423  -10.9451 C.ar    1  UNL1        0.0100
     15 C         -21.0533  -11.2658  -11.4077 C.3     1  UNL1        0.1637
     16 O         -19.8591  -11.7706  -10.8794 O.3     1  UNL1       -0.3772
     17 H         -19.7868  -12.7057  -11.2034 H       1  UNL1        0.2109
     18 O         -19.9217   -7.7575   -8.1846 O.3     1  UNL1       -0.4740
     19 C         -19.2770   -8.6685   -7.2919 C.3     1  UNL1        0.2226
     20 C         -18.7565   -7.9387   -6.0476 C.3     1  UNL1        0.1201
     21 N         -17.3930   -8.3919   -5.6980 N.3     1  UNL1       -0.2672
     22 C         -16.6869   -7.3633   -4.9187 C.3     1  UNL1        0.0898
     23 C         -17.4351   -9.6497   -4.9320 C.3     1  UNL1        0.0898
     24 C         -24.9097   -9.6173  -11.4060 C.ar    1  UNL1       -0.0040
     25 C         -24.6573  -10.5498  -10.3832 C.ar    1  UNL1       -0.0003
     26 C         -25.3298  -10.4584   -9.1613 C.ar    1  UNL1       -0.0000
     27 C         -26.2514   -9.4319   -8.9441 C.ar    1  UNL1       -0.0000
     28 C         -26.4936   -8.4880   -9.9448 C.ar    1  UNL1       -0.0000
     29 C         -25.8202   -8.5730  -11.1670 C.ar    1  UNL1       -0.0003
     30 C         -25.0128  -11.8083  -13.8343 C.3     1  UNL1        0.0050
     31 C         -24.9446  -10.2820  -13.8854 C.3     1  UNL1        0.0264
@<TRIPOS>BOND
     1    30    31    1
     2    31     1    1
     3     1     2    2
     4     2     3    1
     5     3     4   ar
     6     4     5   ar
     7     5     6   ar
     8     6     7   ar
     9     7     8   ar
    10     2     9    1
    11     9    10   ar
    12    10    11   ar
    13    11    12   ar
    14    12    18    1
    15    18    19    1
    16    19    20    1
    17    20    21    1
    18    21    22    1
    19    21    23    1
    20    12    13   ar
    21    13    14   ar
    22    14    15    1
    23    15    16    1
    24     1    24    1
    25    24    25   ar
    26    25    26   ar
    27    26    27   ar
    28    27    28   ar
    29    28    29   ar
    30     8     3   ar
    31    14     9   ar
    32    29    24   ar
    33    16    17    1
@<TRIPOS>MOLECULE
*****
 31 33 0 0 0
SMALL
GASTEIGER

@<TRIPOS>ATOM
      1 C         -24.4290  -11.0846  -13.7660 C.2     1  UNL1       -0.0222
      2 C         -23.0872  -11.2851  -13.8954 C.2     1  UNL1       -0.0042
      3 C         -22.5070  -12.0548  -15.0194 C.ar    1  UNL1       -0.0003
      4 C         -22.1232  -13.3946  -14.8425 C.ar    1  UNL1       -0.0000
      5 C         -21.6128  -14.1282  -15.9177 C.ar    1  UNL1       -0.0000
      6 C         -21.4988  -13.5358  -17.1784 C.ar    1  UNL1       -0.0000
      7 C         -21.9030  -12.2113  -17.3677 C.ar    1  UNL1       -0.0000
      8 C         -22.4143  -11.4747  -16.2951 C.ar    1  UNL1       -0.0000
      9 C         -22.1204  -10.7390  -12.9099 C.ar    1  UNL1       -0.0017
     10 C         -21.7068  -11.5701  -11.8582 C.ar    1  UNL1        0.0029
     11 C         -20.7852  -11.1194  -10.9135 C.ar    1  UNL1        0.0369
     12 C         -20.2582   -9.8203  -11.0012 C.ar    1  UNL1        0.1384
     13 C         -20.7012   -8.9734  -12.0216 C.ar    1  UNL1        0.0350
     14 C         -21.6345   -9.4089  -12.9770 C.ar    1  UNL1        0.0100
     15 C         -22.0895   -8.4227  -14.0247 C.3     1  UNL1        0.1637
     16 O         -22.7027   -7.3294  -13.4014 O.3     1  UNL1       -0.3772
     17 H         -22.9716   -6.7110  -14.1294 H       1  UNL1        0.2109
     18 O         -19.3108   -9.3190  -10.0938 O.3     1  UNL1       -0.4740
     19 C         -19.5373   -9.0412   -8.7103 C.3     1  UNL1        0.2226
     20 C         -19.9213   -7.5710   -8.5035 C.3     1  UNL1        0.1201
     21 N         -21.3867   -7.4181   -8.3758 N.3     1  UNL1       -0.2672
     22 C         -21.9345   -6.6798   -9.5242 C.3     1  UNL1        0.0898
     23 C         -22.0473   -8.7308   -8.2719 C.3     1  UNL1        0.0898
     24 C         -24.9688  -10.1566  -12.7340 C.ar    1  UNL1       -0.0040
     25 C         -24.7316  -10.3952  -11.3679 C.ar    1  UNL1       -0.0003
     26 C         -25.2281   -9.5173  -10.4002 C.ar    1  UNL1       -0.0000
     27 C         -25.9560   -8.3894  -10.7852 C.ar    1  UNL1       -0.0000
     28 C         -26.1787   -8.1312  -12.1397 C.ar    1  UNL1       -0.0000
     29 C         -25.6804   -9.0042  -13.1114 C.ar    1  UNL1       -0.0003
     30 C         -25.8237  -13.1672  -14.0832 C.3     1  UNL1        0.0050
     31 C         -25.4358  -11.8012  -14.6491 C.3     1  UNL1        0.0264
@<TRIPOS>BOND
     1    30    31    1
     2    31     1    1
     3     1     2    2
     4     2     3    1
     5     3     4   ar
     6     4     5   ar
     7     5     6   ar
     8     6     7   ar
     9     7     8   ar
    10     2     9    1
    11     9    10   ar
    12    10    11   ar
    13    11    12   ar
    14    12    18    1
    15    18    19    1
    16    19    20    1
    17    20    21    1
    18    21    22    1
    19    21    23    1
    20    12    13   ar
    21    13    14   ar
    22    14    15    1
    23    15    16    1
    24     1    24    1
    25    24    25   ar
    26    25    26   ar
    27    26    27   ar
    28    27    28   ar
    29    28    29   ar
    30     8     3   ar
    31    14     9   ar
    32    29    24   ar
    33    16    17    1
@<TRIPOS>MOLECULE
*****
 31 33 0 0 0
SMALL
GASTEIGER

@<TRIPOS>ATOM
      1 C         -24.1515   -9.6099  -12.7365 C.2     1  UNL1       -0.0222
      2 C         -22.8168   -9.3639  -12.8596 C.2     1  UNL1       -0.0042
      3 C         -22.1601   -9.2024  -14.1769 C.ar    1  UNL1       -0.0003
      4 C         -21.7561  -10.3277  -14.9145 C.ar    1  UNL1       -0.0000
      5 C         -21.1725  -10.1703  -16.1752 C.ar    1  UNL1       -0.0000
      6 C         -21.0050   -8.8920  -16.7147 C.ar    1  UNL1       -0.0000
      7 C         -21.4284   -7.7695  -15.9977 C.ar    1  UNL1       -0.0000
      8 C         -22.0128   -7.9228  -14.7369 C.ar    1  UNL1       -0.0000
      9 C         -21.9353   -9.2418  -11.6712 C.ar    1  UNL1       -0.0017
     10 C         -21.2754  -10.3928  -11.2157 C.ar    1  UNL1        0.0029
     11 C         -20.4191  -10.3358  -10.1165 C.ar    1  UNL1        0.0369
     12 C         -20.2068   -9.1199   -9.4458 C.ar    1  UNL1        0.1384
     13 C         -20.8969   -7.9798   -9.8686 C.ar    1  UNL1        0.0350
     14 C         -21.7687   -8.0214  -10.9694 C.ar    1  UNL1        0.0100
     15 C         -22.5038   -6.7566  -11.3399 C.3     1  UNL1        0.1637
     16 O         -21.6262   -5.8800  -11.9890 O.3     1  UNL1       -0.3772
     17 H         -22.1591   -5.0750  -12.2187 H       1  UNL1        0.2109
     18 O         -19.3394   -8.9958   -8.3484 O.3     1  UNL1       -0.4740
     19 C         -19.4389   -8.0254   -7.3040 C.3     1  UNL1        0.2226
     20 C         -19.0635   -8.6390   -5.9497 C.3     1  UNL1        0.1201
     21 N         -17.5953   -8.7109   -5.7882 N.3     1  UNL1       -0.2672
     22 C         -17.0827   -7.4918   -5.1441 C.3     1  UNL1        0.0898
     23 C         -17.2088   -9.8895   -4.9932 C.3     1  UNL1        0.0898
     24 C         -24.8154   -9.5847  -11.4038 C.ar    1  UNL1       -0.0040
     25 C         -25.7413   -8.5733  -11.0886 C.ar    1  UNL1       -0.0003
     26 C         -26.3734   -8.5569   -9.8421 C.ar    1  UNL1       -0.0000
     27 C         -26.0965   -9.5528   -8.9031 C.ar    1  UNL1       -0.0000
     28 C         -25.1953  -10.5738   -9.2137 C.ar    1  UNL1       -0.0000
     29 C         -24.5638  -10.5967  -10.4608 C.ar    1  UNL1       -0.0003
     30 C         -25.2095  -11.4402  -14.1199 C.3     1  UNL1        0.0050
     31 C         -25.0215   -9.9341  -13.9387 C.3     1  UNL1        0.0264
@<TRIPOS>BOND
     1    30    31    1
     2    31     1    1
     3     1     2    2
     4     2     3    1
     5     3     4   ar
     6     4     5   ar
     7     5     6   ar
     8     6     7   ar
     9     7     8   ar
    10     2     9    1
    11     9    10   ar
    12    10    11   ar
    13    11    12   ar
    14    12    18    1
    15    18    19    1
    16    19    20    1
    17    20    21    1
    18    21    22    1
    19    21    23    1
    20    12    13   ar
    21    13    14   ar
    22    14    15    1
    23    15    16    1
    24     1    24    1
    25    24    25   ar
    26    25    26   ar
    27    26    27   ar
    28    27    28   ar
    29    28    29   ar
    30     8     3   ar
    31    14     9   ar
    32    29    24   ar
    33    16    17    1
@<TRIPOS>MOLECULE
*****
 31 33 0 0 0
SMALL
GASTEIGER

@<TRIPOS>ATOM
      1 C         -23.5983  -11.4929  -15.7058 C.2     1  UNL1       -0.0222
      2 C         -23.0442  -10.4470  -15.0303 C.2     1  UNL1       -0.0042
      3 C         -22.4417   -9.2865  -15.7252 C.ar    1  UNL1       -0.0003
      4 C         -23.2519   -8.2448  -16.2066 C.ar    1  UNL1       -0.0000
      5 C         -22.6741   -7.1329  -16.8267 C.ar    1  UNL1       -0.0000
      6 C         -21.2851   -7.0452  -16.9542 C.ar    1  UNL1       -0.0000
      7 C         -20.4714   -8.0656  -16.4543 C.ar    1  UNL1       -0.0000
      8 C         -21.0454   -9.1789  -15.8332 C.ar    1  UNL1       -0.0000
      9 C         -23.0119  -10.4085  -13.5466 C.ar    1  UNL1       -0.0017
     10 C         -21.9629  -11.0690  -12.8901 C.ar    1  UNL1        0.0029
     11 C         -21.8686  -11.0507  -11.4988 C.ar    1  UNL1        0.0369
     12 C         -22.8288  -10.3697  -10.7323 C.ar    1  UNL1        0.1384
     13 C         -23.9006   -9.7479  -11.3799 C.ar    1  UNL1        0.0350
     14 C         -24.0147   -9.7630  -12.7800 C.ar    1  UNL1        0.0100
     15 C         -25.2203   -9.1005  -13.4005 C.3     1  UNL1        0.1637
     16 O         -25.0676   -7.7099  -13.3471 O.3     1  UNL1       -0.3772
     17 H         -25.8769   -7.3263  -13.7745 H       1  UNL1        0.2109
     18 O         -22.7739  -10.2970   -9.3309 O.3     1  UNL1       -0.4740
     19 C         -22.7868   -9.0998   -8.5504 C.3     1  UNL1        0.2226
     20 C         -21.5506   -8.2416   -8.8451 C.3     1  UNL1        0.1201
     21 N         -20.3098   -8.9485   -8.4608 N.3     1  UNL1       -0.2672
     22 C         -19.4078   -9.0806   -9.6152 C.3     1  UNL1        0.0898
     23 C         -19.6160   -8.2418   -7.3701 C.3     1  UNL1        0.0898
     24 C         -24.3574  -12.5532  -14.9866 C.ar    1  UNL1       -0.0040
     25 C         -25.7201  -12.3737  -14.6861 C.ar    1  UNL1       -0.0003
     26 C         -26.4354  -13.3742  -14.0219 C.ar    1  UNL1       -0.0000
     27 C         -25.8024  -14.5655  -13.6607 C.ar    1  UNL1       -0.0000
     28 C         -24.4555  -14.7629  -13.9734 C.ar    1  UNL1       -0.0000
     29 C         -23.7371  -13.7668  -14.6414 C.ar    1  UNL1       -0.0003
     30 C         -22.1523  -12.3277  -17.6019 C.3     1  UNL1        0.0050
     31 C         -23.4599  -11.6390  -17.2113 C.3     1  UNL1        0.0264
@<TRIPOS>BOND
     1    30    31    1
     2    31     1    1
     3     1     2    2
     4     2     3    1
     5     3     4   ar
     6     4     5   ar
     7     5     6   ar
     8     6     7   ar
     9     7     8   ar
    10     2     9    1
    11     9    10   ar
    12    10    11   ar
    13    11    12   ar
    14    12    18    1
    15    18    19    1
    16    19    20    1
    17    20    21    1
    18    21    22    1
    19    21    23    1
    20    12    13   ar
    21    13    14   ar
    22    14    15    1
    23    15    16    1
    24     1    24    1
    25    24    25   ar
    26    25    26   ar
    27    26    27   ar
    28    27    28   ar
    29    28    29   ar
    30     8     3   ar
    31    14     9   ar
    32    29    24   ar
    33    16    17    1
@<TRIPOS>MOLECULE
*****
 31 33 0 0 0
SMALL
GASTEIGER

@<TRIPOS>ATOM
      1 C         -22.9084   -9.0735  -12.6996 C.2     1  UNL1       -0.0222
      2 C         -23.4506   -7.8784  -12.3324 C.2     1  UNL1       -0.0042
      3 C         -22.7271   -6.9111  -11.4758 C.ar    1  UNL1       -0.0003
      4 C         -22.6413   -7.1131  -10.0883 C.ar    1  UNL1       -0.0000
      5 C         -21.9233   -6.2177   -9.2899 C.ar    1  UNL1       -0.0000
      6 C         -21.2726   -5.1266   -9.8724 C.ar    1  UNL1       -0.0000
      7 C         -21.3320   -4.9340  -11.2554 C.ar    1  UNL1       -0.0000
      8 C         -22.0486   -5.8275  -12.0572 C.ar    1  UNL1       -0.0000
      9 C         -24.8088   -7.4719  -12.7729 C.ar    1  UNL1       -0.0017
     10 C         -24.9266   -6.7371  -13.9620 C.ar    1  UNL1        0.0029
     11 C         -26.1778   -6.3445  -14.4366 C.ar    1  UNL1        0.0369
     12 C         -27.3423   -6.6789  -13.7258 C.ar    1  UNL1        0.1384
     13 C         -27.2265   -7.3724  -12.5173 C.ar    1  UNL1        0.0350
     14 C         -25.9735   -7.7690  -12.0212 C.ar    1  UNL1        0.0100
     15 C         -25.9304   -8.4816  -10.6916 C.3     1  UNL1        0.1637
     16 O         -27.1743   -8.3659  -10.0597 O.3     1  UNL1       -0.3772
     17 H         -27.0950   -8.8572   -9.2011 H       1  UNL1        0.2109
     18 O         -28.6300   -6.3317  -14.1654 O.3     1  UNL1       -0.4740
     19 C         -28.9804   -5.1517  -14.8916 C.3     1  UNL1        0.2226
     20 C         -30.4771   -5.1391  -15.2252 C.3     1  UNL1        0.1201
     21 N         -30.8777   -3.8454  -15.8191 N.3     1  UNL1       -0.2672
     22 C         -31.4712   -2.9667  -14.7994 C.3     1  UNL1        0.0898
     23 C         -29.7253   -3.1712  -16.4420 C.3     1  UNL1        0.0898
     24 C         -23.5792   -9.9418  -13.7065 C.ar    1  UNL1       -0.0040
     25 C         -23.1628   -9.9264  -15.0503 C.ar    1  UNL1       -0.0003
     26 C         -23.7845  -10.7505  -15.9927 C.ar    1  UNL1       -0.0000
     27 C         -24.8188  -11.6040  -15.6028 C.ar    1  UNL1       -0.0000
     28 C         -25.2254  -11.6432  -14.2672 C.ar    1  UNL1       -0.0000
     29 C         -24.6037  -10.8238  -13.3203 C.ar    1  UNL1       -0.0003
     30 C         -21.8598  -10.6088  -10.9889 C.3     1  UNL1        0.0050
     31 C         -21.6116   -9.5851  -12.0966 C.3     1  UNL1        0.0264
@<TRIPOS>BOND
     1    30    31    1
     2    31     1    1
     3     1     2    2
     4     2     3    1
     5     3     4   ar
     6     4     5   ar
     7     5     6   ar
     8     6     7   ar
     9     7     8   ar
    10     2     9    1
    11     9    10   ar
    12    10    11   ar
    13    11    12   ar
    14    12    18    1
    15    18    19    1
    16    19    20    1
    17    20    21    1
    18    21    22    1
    19    21    23    1
    20    12    13   ar
    21    13    14   ar
    22    14    15    1
    23    15    16    1
    24     1    24    1
    25    24    25   ar
    26    25    26   ar
    27    26    27   ar
    28    27    28   ar
    29    28    29   ar
    30     8     3   ar
    31    14     9   ar
    32    29    24   ar
    33    16    17    1
@<TRIPOS>MOLECULE
*****
 31 33 0 0 0
SMALL
GASTEIGER

@<TRIPOS>ATOM
      1 C         -22.2657  -11.0576  -12.4878 C.2     1  UNL1       -0.0222
      2 C         -23.4647  -10.9554  -13.1274 C.2     1  UNL1       -0.0042
      3 C         -24.0792  -12.0964  -13.8438 C.ar    1  UNL1       -0.0003
      4 C         -23.6870  -12.4084  -15.1562 C.ar    1  UNL1       -0.0000
      5 C         -24.2419  -13.5108  -15.8132 C.ar    1  UNL1       -0.0000
      6 C         -25.1770  -14.3179  -15.1594 C.ar    1  UNL1       -0.0000
      7 C         -25.5523  -14.0287  -13.8446 C.ar    1  UNL1       -0.0000
      8 C         -24.9993  -12.9276  -13.1841 C.ar    1  UNL1       -0.0000
      9 C         -24.2321   -9.6846  -13.1435 C.ar    1  UNL1       -0.0017
     10 C         -25.2302   -9.5019  -12.1750 C.ar    1  UNL1        0.0029
     11 C         -25.9702   -8.3208  -12.1278 C.ar    1  UNL1        0.0369
     12 C         -25.7269   -7.2944  -13.0555 C.ar    1  UNL1        0.1384
     13 C         -24.7641   -7.4902  -14.0502 C.ar    1  UNL1        0.0350
     14 C         -24.0149   -8.6767  -14.1166 C.ar    1  UNL1        0.0100
     15 C         -23.0208   -8.8257  -15.2421 C.3     1  UNL1        0.1637
     16 O         -22.0378   -7.8351  -15.1307 O.3     1  UNL1       -0.3772
     17 H         -21.4084   -7.9841  -15.8833 H       1  UNL1        0.2109
     18 O         -26.4232   -6.0750  -13.0435 O.3     1  UNL1       -0.4740
     19 C         -26.4623   -5.1191  -14.1051 C.3     1  UNL1        0.2226
     20 C         -27.8365   -5.1136  -14.7858 C.3     1  UNL1        0.1201
     21 N         -27.7792   -4.4225  -16.0919 N.3     1  UNL1       -0.2672
     22 C         -29.0052   -3.6428  -16.3219 C.3     1  UNL1        0.0898
     23 C         -26.6069   -3.5334  -16.1676 C.3     1  UNL1        0.0898
     24 C         -21.7615   -9.9540  -11.6244 C.ar    1  UNL1       -0.0040
     25 C         -20.9242   -8.9577  -12.1589 C.ar    1  UNL1       -0.0003
     26 C         -20.4611   -7.9152  -11.3513 C.ar    1  UNL1       -0.0000
     27 C         -20.8360   -7.8505  -10.0076 C.ar    1  UNL1       -0.0000
     28 C         -21.6844   -8.8223   -9.4721 C.ar    1  UNL1       -0.0000
     29 C         -22.1535   -9.8646  -10.2772 C.ar    1  UNL1       -0.0003
     30 C         -20.3759  -12.4032  -11.4870 C.3     1  UNL1        0.0050
     31 C         -21.3818  -12.2845  -12.6319 C.3     1  UNL1        0.0264
@<TRIPOS>BOND
     1    30    31    1
     2    31     1    1
     3     1     2    2
     4     2     3    1
     5     3     4   ar
     6     4     5   ar
     7     5     6   ar
     8     6     7   ar
     9     7     8   ar
    10     2     9    1
    11     9    10   ar
    12    10    11   ar
    13    11    12   ar
    14    12    18    1
    15    18    19    1
    16    19    20    1
    17    20    21    1
    18    21    22    1
    19    21    23    1
    20    12    13   ar
    21    13    14   ar
    22    14    15    1
    23    15    16    1
    24     1    24    1
    25    24    25   ar
    26    25    26   ar
    27    26    27   ar
    28    27    28   ar
    29    28    29   ar
    30     8     3   ar
    31    14     9   ar
    32    29    24   ar
    33    16    17    1
@<TRIPOS>MOLECULE
*****
 31 33 0 0 0
SMALL
GASTEIGER

@<TRIPOS>ATOM
      1 C         -23.5957  -11.4795  -15.7645 C.2     1  UNL1       -0.0222
      2 C         -23.1857  -10.3989  -15.0423 C.2     1  UNL1       -0.0042
      3 C         -22.5350   -9.2272  -15.6718 C.ar    1  UNL1       -0.0003
      4 C         -21.1359   -9.1616  -15.7799 C.ar    1  UNL1       -0.0000
      5 C         -20.5292   -8.0713  -16.4106 C.ar    1  UNL1       -0.0000
      6 C         -21.3142   -7.0498  -16.9524 C.ar    1  UNL1       -0.0000
      7 C         -22.7077   -7.1212  -16.8715 C.ar    1  UNL1       -0.0000
      8 C         -23.3181   -8.2101  -16.2420 C.ar    1  UNL1       -0.0000
      9 C         -23.3689  -10.3318  -13.5706 C.ar    1  UNL1       -0.0017
     10 C         -24.4052   -9.5306  -13.0686 C.ar    1  UNL1        0.0029
     11 C         -24.6385   -9.4439  -11.6964 C.ar    1  UNL1        0.0369
     12 C         -23.8336  -10.1587  -10.7940 C.ar    1  UNL1        0.1384
     13 C         -22.7717  -10.9230  -11.2871 C.ar    1  UNL1        0.0350
     14 C         -22.5182  -11.0154  -12.6658 C.ar    1  UNL1        0.0100
     15 C         -21.3308  -11.8310  -13.1153 C.3     1  UNL1        0.1637
     16 O         -20.7400  -12.4461  -12.0051 O.3     1  UNL1       -0.3772
     17 H         -19.9764  -12.9744  -12.3554 H       1  UNL1        0.2109
     18 O         -24.0346  -10.1291   -9.4045 O.3     1  UNL1       -0.4740
     19 C         -23.2186   -9.4442   -8.4518 C.3     1  UNL1        0.2226
     20 C         -23.0556   -7.9677   -8.8326 C.3     1  UNL1        0.1201
     21 N         -21.6764   -7.5016   -8.5728 N.3     1  UNL1       -0.2672
     22 C         -20.7065   -8.5762   -8.8344 C.3     1  UNL1        0.0898
     23 C         -21.3503   -6.3290   -9.4030 C.3     1  UNL1        0.0898
     24 C         -24.4086  -12.5572  -15.1359 C.ar    1  UNL1       -0.0040
     25 C         -25.7560  -12.3293  -14.8008 C.ar    1  UNL1       -0.0003
     26 C         -26.5221  -13.3450  -14.2220 C.ar    1  UNL1       -0.0000
     27 C         -25.9562  -14.5988  -13.9815 C.ar    1  UNL1       -0.0000
     28 C         -24.6258  -14.8426  -14.3302 C.ar    1  UNL1       -0.0000
     29 C         -23.8568  -13.8310  -14.9133 C.ar    1  UNL1       -0.0003
     30 C         -21.9164  -12.3959  -17.4147 C.3     1  UNL1        0.0050
     31 C         -23.2364  -11.6474  -17.2308 C.3     1  UNL1        0.0264
@<TRIPOS>BOND
     1    30    31    1
     2    31     1    1
     3     1     2    2
     4     2     3    1
     5     3     4   ar
     6     4     5   ar
     7     5     6   ar
     8     6     7   ar
     9     7     8   ar
    10     2     9    1
    11     9    10   ar
    12    10    11   ar
    13    11    12   ar
    14    12    18    1
    15    18    19    1
    16    19    20    1
    17    20    21    1
    18    21    22    1
    19    21    23    1
    20    12    13   ar
    21    13    14   ar
    22    14    15    1
    23    15    16    1
    24     1    24    1
    25    24    25   ar
    26    25    26   ar
    27    26    27   ar
    28    27    28   ar
    29    28    29   ar
    30     8     3   ar
    31    14     9   ar
    32    29    24   ar
    33    16    17    1
