@<TRIPOS>MOLECULE
*****
 61 65 0 0 0
SMALL
GASTEIGER

@<TRIPOS>ATOM
      1 C         -20.4115   -8.4495   -9.6966 C.ar    1  UNL1        0.0293
      2 C         -20.2582   -7.5073   -8.6457 C.ar    1  UNL1        0.0532
      3 C         -20.5669   -6.1591   -8.8752 C.ar    1  UNL1        0.0075
      4 C         -21.0867   -5.7473  -10.0998 C.ar    1  UNL1        0.0389
      5 C         -21.3363   -6.6823  -11.1131 C.ar    1  UNL1        0.1595
      6 C         -21.0312   -8.0347  -10.8995 C.ar    1  UNL1        0.0977
      7 C         -19.8566   -7.9061   -7.2800 C.2     1  UNL1        0.2456
      8 O         -20.7038   -8.4521   -6.5236 O.2     1  UNL1       -0.2702
      9 N         -18.4936   -7.7264   -6.8509 N.am    1  UNL1       -0.3040
     10 H         -17.8066   -7.4428   -7.5866 H       1  UNL1        0.1496
     11 C         -18.0113   -7.8845   -5.4661 C.3     1  UNL1        0.0572
     12 C         -19.0467   -7.3222   -4.4728 C.3     1  UNL1        0.0196
     13 C         -17.7327   -9.3697   -5.1672 C.3     1  UNL1        0.0196
     14 C         -16.6971   -7.0939   -5.3002 C.3     1  UNL1        0.0196
     15 N         -21.4302   -8.9975  -11.8800 N.pl3   1  UNL1       -0.2122
     16 H         -21.1362   -8.8539  -12.8715 H       1  UNL1        0.1738
     17 S         -22.8076  -10.0036  -11.5762 S.O2    1  UNL1        0.0745
     18 O         -24.0063   -9.1388  -11.3101 O.2     1  UNL1       -0.1499
     19 O         -22.5480  -10.8389  -10.3542 O.2     1  UNL1       -0.1499
     20 C         -23.0748  -11.0785  -12.9627 C.ar    1  UNL1        0.1356
     21 C         -24.2524  -10.9021  -13.7018 C.ar    1  UNL1        0.0207
     22 C         -24.5870  -11.7741  -14.7377 C.ar    1  UNL1       -0.0028
     23 C         -23.7364  -12.8452  -15.0729 C.ar    1  UNL1       -0.0216
     24 C         -22.5499  -13.0128  -14.3437 C.ar    1  UNL1        0.0085
     25 C         -22.2123  -12.1469  -13.2960 C.ar    1  UNL1        0.0762
     26 CL        -20.7268  -12.4882  -12.4162 Cl      1  UNL1       -0.0809
     27 C         -24.0430  -13.8563  -16.1649 C.3     1  UNL1        0.0224
     28 C         -25.1038  -14.9147  -15.8940 C.3     1  UNL1        0.0047
     29 C         -23.6279  -15.2939  -15.8840 C.3     1  UNL1        0.0047
     30 C         -19.9335   -9.8821   -9.5515 C.3     1  UNL1        0.1702
     31 C         -17.9371  -10.9184   -9.0457 C.3     1  UNL1        0.1746
     32 O         -18.5609   -9.9661   -9.8772 O.3     1  UNL1       -0.3463
     33 O         -21.9506   -6.3090  -12.3180 O.3     1  UNL1       -0.4513
     34 C         -23.3202   -6.4107  -12.6018 C.ar    1  UNL1        0.1580
     35 C         -24.2842   -5.7395  -11.8291 C.ar    1  UNL1        0.0677
     36 C         -25.6397   -5.8206  -12.1605 C.ar    1  UNL1        0.1398
     37 F         -26.5450   -5.1312  -11.4208 F       1  UNL1       -0.2044
     38 C         -26.0520   -6.5820  -13.2677 C.ar    1  UNL1        0.0175
     39 C         -25.0871   -7.2435  -14.0434 C.ar    1  UNL1        0.0130
     40 C         -23.7303   -7.1523  -13.7183 C.ar    1  UNL1        0.0919
     41 CL        -22.5467   -7.9611  -14.7336 Cl      1  UNL1       -0.0791
     42 C         -27.4942   -6.5937  -13.6984 C.3     1  UNL1        0.1382
     43 C         -27.8111   -5.3214  -14.4174 C.2     1  UNL1        0.3234
     44 O         -26.9011   -4.7006  -15.0313 O.2     1  UNL1       -0.2497
     45 O         -29.1269   -4.8451  -14.4102 O.3     1  UNL1       -0.4215
     46 C         -30.1877   -5.4165  -15.1781 C.3     1  UNL1        0.3207
     47 O         -30.0060   -5.0736  -16.5464 O.3     1  UNL1       -0.3070
     48 C         -30.6024   -3.8408  -16.9490 C.3     1  UNL1        0.2456
     49 C         -30.8429   -2.8334  -15.7990 C.3     1  UNL1        0.1781
     50 O         -31.4337   -1.6628  -16.3050 O.3     1  UNL1       -0.3790
     51 C         -31.7581   -3.4574  -14.7241 C.3     1  UNL1        0.1733
     52 O         -31.4814   -2.8529  -13.4871 O.3     1  UNL1       -0.3793
     53 C         -31.5663   -4.9929  -14.6243 C.3     1  UNL1        0.2106
     54 O         -32.5664   -5.6544  -15.3571 O.3     1  UNL1       -0.3766
     55 H         -31.3250   -0.9639  -15.6079 H       1  UNL1        0.2106
     56 H         -32.2573   -3.0363  -12.8955 H       1  UNL1        0.2105
     57 H         -33.3973   -5.6106  -14.8149 H       1  UNL1        0.2107
     58 C         -29.7293   -3.2141  -18.0005 C.2     1  UNL1        0.3439
     59 O         -28.6951   -3.8134  -18.3979 O.2     1  UNL1       -0.2475
     60 O         -30.0241   -1.9527  -18.5111 O.3     1  UNL1       -0.4785
     61 H         -30.8332   -1.4319  -18.1949 H       1  UNL1        0.2951
@<TRIPOS>BOND
     1    31    32    1
     2    32    30    1
     3    30     1    1
     4     1     2   ar
     5     2     7    1
     6     7     8    2
     7     7     9   am
     8     9    11    1
     9    11    12    1
    10    11    13    1
    11    11    14    1
    12     2     3   ar
    13     3     4   ar
    14     4     5   ar
    15     5    33    1
    16    33    34    1
    17    34    35   ar
    18    35    36   ar
    19    36    37    1
    20    36    38   ar
    21    38    42    1
    22    42    43    1
    23    43    44    2
    24    43    45    1
    25    45    46    1
    26    46    47    1
    27    47    48    1
    28    48    58    1
    29    58    59    2
    30    58    60    1
    31    48    49    1
    32    49    50    1
    33    49    51    1
    34    51    52    1
    35    51    53    1
    36    53    54    1
    37    38    39   ar
    38    39    40   ar
    39    40    41    1
    40     5     6   ar
    41     6    15    1
    42    15    17    1
    43    17    18    2
    44    17    19    2
    45    17    20    1
    46    20    21   ar
    47    21    22   ar
    48    22    23   ar
    49    23    27    1
    50    27    28    1
    51    28    29    1
    52    23    24   ar
    53    24    25   ar
    54    25    26    1
    55     6     1   ar
    56    25    20   ar
    57    40    34   ar
    58    29    27    1
    59    53    46    1
    60     9    10    1
    61    60    61    1
    62    50    55    1
    63    52    56    1
    64    54    57    1
    65    15    16    1
@<TRIPOS>MOLECULE
*****
 61 65 0 0 0
SMALL
GASTEIGER

@<TRIPOS>ATOM
      1 C         -19.4097   -9.2011   -9.0474 C.ar    1  UNL1        0.0293
      2 C         -19.7245   -8.1480   -8.1488 C.ar    1  UNL1        0.0532
      3 C         -20.3617   -6.9956   -8.6301 C.ar    1  UNL1        0.0075
      4 C         -20.7500   -6.9026   -9.9642 C.ar    1  UNL1        0.0389
      5 C         -20.5346   -7.9746  -10.8404 C.ar    1  UNL1        0.1595
      6 C         -19.8968   -9.1339  -10.3745 C.ar    1  UNL1        0.0977
      7 C         -19.4763   -8.2498   -6.6950 C.2     1  UNL1        0.2456
      8 O         -20.4508   -8.4184   -5.9141 O.2     1  UNL1       -0.2702
      9 N         -18.1267   -8.2193   -6.1930 N.am    1  UNL1       -0.3040
     10 H         -17.3629   -8.2650   -6.9057 H       1  UNL1        0.1496
     11 C         -17.7519   -8.1026   -4.7713 C.3     1  UNL1        0.0572
     12 C         -16.2531   -7.7689   -4.6401 C.3     1  UNL1        0.0196
     13 C         -18.6048   -7.0192   -4.0845 C.3     1  UNL1        0.0196
     14 C         -18.0139   -9.4524   -4.0720 C.3     1  UNL1        0.0196
     15 N         -19.8198  -10.2748  -11.2347 N.pl3   1  UNL1       -0.2122
     16 H         -19.2437  -10.2094  -12.1029 H       1  UNL1        0.1738
     17 S         -21.0684  -11.4744  -11.1740 S.O2    1  UNL1        0.0745
     18 O         -22.0048  -11.1609  -10.0424 O.2     1  UNL1       -0.1499
     19 O         -20.4484  -12.8186  -10.9146 O.2     1  UNL1       -0.1499
     20 C         -21.9204  -11.5235  -12.7299 C.ar    1  UNL1        0.1356
     21 C         -21.1444  -11.6538  -13.8897 C.ar    1  UNL1        0.0207
     22 C         -21.7285  -11.5920  -15.1547 C.ar    1  UNL1       -0.0028
     23 C         -23.1185  -11.4118  -15.2920 C.ar    1  UNL1       -0.0216
     24 C         -23.8976  -11.2971  -14.1312 C.ar    1  UNL1        0.0085
     25 C         -23.3166  -11.3485  -12.8579 C.ar    1  UNL1        0.0762
     26 CL        -24.3857  -11.1374  -11.4759 Cl      1  UNL1       -0.0809
     27 C         -23.8270  -11.3027  -16.6316 C.3     1  UNL1        0.0224
     28 C         -23.0503  -11.6588  -17.8921 C.3     1  UNL1        0.0047
     29 C         -23.3390  -10.1998  -17.5609 C.3     1  UNL1        0.0047
     30 C         -18.5738  -10.3901   -8.6119 C.3     1  UNL1        0.1702
     31 C         -16.9526  -11.8973   -9.2563 C.3     1  UNL1        0.1746
     32 O         -17.6881  -10.7605   -9.6490 O.3     1  UNL1       -0.3463
     33 O         -21.0044   -7.9450  -12.1621 O.3     1  UNL1       -0.4513
     34 C         -22.3509   -7.8777  -12.5485 C.ar    1  UNL1        0.1580
     35 C         -23.3848   -7.7772  -11.6012 C.ar    1  UNL1        0.0677
     36 C         -24.7155   -7.6656  -12.0139 C.ar    1  UNL1        0.1398
     37 F         -25.6901   -7.5308  -11.0789 F       1  UNL1       -0.2044
     38 C         -25.0326   -7.6605  -13.3832 C.ar    1  UNL1        0.0175
     39 C         -23.9979   -7.7514  -14.3275 C.ar    1  UNL1        0.0130
     40 C         -22.6660   -7.8510  -13.9141 C.ar    1  UNL1        0.0919
     41 CL        -21.3937   -7.9238  -15.1231 Cl      1  UNL1       -0.0791
     42 C         -26.4478   -7.4359  -13.8438 C.3     1  UNL1        0.1382
     43 C         -26.7693   -5.9770  -13.7771 C.2     1  UNL1        0.3234
     44 O         -26.7818   -5.3844  -12.6639 O.2     1  UNL1       -0.2497
     45 O         -27.0378   -5.2843  -14.9629 O.3     1  UNL1       -0.4215
     46 C         -26.9115   -3.8685  -15.1073 C.3     1  UNL1        0.3207
     47 O         -28.1356   -3.3424  -15.6051 O.3     1  UNL1       -0.3070
     48 C         -28.2498   -3.3095  -17.0275 C.3     1  UNL1        0.2456
     49 C         -27.3406   -4.3166  -17.7722 C.3     1  UNL1        0.1781
     50 O         -27.5307   -4.1965  -19.1597 O.3     1  UNL1       -0.3790
     51 C         -25.8593   -4.0587  -17.4239 C.3     1  UNL1        0.1733
     52 O         -25.1447   -5.2592  -17.5668 O.3     1  UNL1       -0.3793
     53 C         -25.6933   -3.5050  -15.9850 C.3     1  UNL1        0.2106
     54 O         -25.5646   -2.1060  -16.0165 O.3     1  UNL1       -0.3766
     55 H         -27.1470   -5.0143  -19.5722 H       1  UNL1        0.2106
     56 H         -24.1843   -5.0176  -17.6373 H       1  UNL1        0.2105
     57 H         -24.6396   -1.9086  -16.3191 H       1  UNL1        0.2107
     58 C         -29.6876   -3.5553  -17.3925 C.2     1  UNL1        0.3439
     59 O         -30.0468   -3.5076  -18.5989 O.2     1  UNL1       -0.2475
     60 O         -30.6419   -3.7908  -16.4064 O.3     1  UNL1       -0.4785
     61 H         -30.3922   -3.8099  -15.4250 H       1  UNL1        0.2951
@<TRIPOS>BOND
     1    31    32    1
     2    32    30    1
     3    30     1    1
     4     1     2   ar
     5     2     7    1
     6     7     8    2
     7     7     9   am
     8     9    11    1
     9    11    12    1
    10    11    13    1
    11    11    14    1
    12     2     3   ar
    13     3     4   ar
    14     4     5   ar
    15     5    33    1
    16    33    34    1
    17    34    35   ar
    18    35    36   ar
    19    36    37    1
    20    36    38   ar
    21    38    42    1
    22    42    43    1
    23    43    44    2
    24    43    45    1
    25    45    46    1
    26    46    47    1
    27    47    48    1
    28    48    58    1
    29    58    59    2
    30    58    60    1
    31    48    49    1
    32    49    50    1
    33    49    51    1
    34    51    52    1
    35    51    53    1
    36    53    54    1
    37    38    39   ar
    38    39    40   ar
    39    40    41    1
    40     5     6   ar
    41     6    15    1
    42    15    17    1
    43    17    18    2
    44    17    19    2
    45    17    20    1
    46    20    21   ar
    47    21    22   ar
    48    22    23   ar
    49    23    27    1
    50    27    28    1
    51    28    29    1
    52    23    24   ar
    53    24    25   ar
    54    25    26    1
    55     6     1   ar
    56    25    20   ar
    57    40    34   ar
    58    29    27    1
    59    53    46    1
    60     9    10    1
    61    60    61    1
    62    50    55    1
    63    52    56    1
    64    54    57    1
    65    15    16    1
@<TRIPOS>MOLECULE
*****
 61 65 0 0 0
SMALL
GASTEIGER

@<TRIPOS>ATOM
      1 C         -19.8450   -8.7653   -9.7358 C.ar    1  UNL1        0.0293
      2 C         -20.0236   -7.8705   -8.6480 C.ar    1  UNL1        0.0532
      3 C         -20.5917   -6.6092   -8.8763 C.ar    1  UNL1        0.0075
      4 C         -21.0448   -6.2525  -10.1438 C.ar    1  UNL1        0.0389
      5 C         -20.9655   -7.1629  -11.2060 C.ar    1  UNL1        0.1595
      6 C         -20.3981   -8.4282  -10.9941 C.ar    1  UNL1        0.0977
      7 C         -19.7040   -8.2476   -7.2548 C.2     1  UNL1        0.2456
      8 O         -20.5776   -8.8309   -6.5587 O.2     1  UNL1       -0.2702
      9 N         -18.3854   -8.0037   -6.7292 N.am    1  UNL1       -0.3040
     10 H         -17.6608   -7.6899   -7.4148 H       1  UNL1        0.1496
     11 C         -17.9979   -8.1366   -5.3123 C.3     1  UNL1        0.0572
     12 C         -17.8701   -9.6243   -4.9311 C.3     1  UNL1        0.0196
     13 C         -16.6697   -7.4005   -5.0539 C.3     1  UNL1        0.0196
     14 C         -19.0930   -7.5000   -4.4320 C.3     1  UNL1        0.0196
     15 N         -20.4612   -9.3994  -12.0430 N.pl3   1  UNL1       -0.2122
     16 H         -20.0861   -9.1457  -12.9837 H       1  UNL1        0.1738
     17 S         -21.6200  -10.6839  -11.9473 S.O2    1  UNL1        0.0745
     18 O         -21.1083  -11.7472  -11.0183 O.2     1  UNL1       -0.1499
     19 O         -21.7949  -11.2926  -13.3102 O.2     1  UNL1       -0.1499
     20 C         -23.1795  -10.0369  -11.4009 C.ar    1  UNL1        0.1356
     21 C         -23.2269   -9.4473  -10.1303 C.ar    1  UNL1        0.0207
     22 C         -24.4351   -9.0130   -9.5853 C.ar    1  UNL1       -0.0028
     23 C         -25.6349   -9.1452  -10.3109 C.ar    1  UNL1       -0.0216
     24 C         -25.5854   -9.7208  -11.5891 C.ar    1  UNL1        0.0085
     25 C         -24.3773  -10.1680  -12.1386 C.ar    1  UNL1        0.0762
     26 CL        -24.4459  -10.9239  -13.7265 Cl      1  UNL1       -0.0809
     27 C         -26.9943   -8.7268   -9.7769 C.3     1  UNL1        0.0224
     28 C         -27.9323   -7.9643  -10.7031 C.3     1  UNL1        0.0047
     29 C         -27.2071   -7.2321   -9.5806 C.3     1  UNL1        0.0047
     30 C         -19.0847  -10.0680   -9.5726 C.3     1  UNL1        0.1702
     31 C         -17.4500  -11.1551   -8.3638 C.3     1  UNL1        0.1746
     32 O         -18.0561   -9.9077   -8.6169 O.3     1  UNL1       -0.3463
     33 O         -21.5041   -6.8649  -12.4668 O.3     1  UNL1       -0.4513
     34 C         -22.8704   -6.8067  -12.7777 C.ar    1  UNL1        0.1580
     35 C         -23.7724   -6.0628  -11.9970 C.ar    1  UNL1        0.0677
     36 C         -25.1213   -5.9840  -12.3545 C.ar    1  UNL1        0.1398
     37 F         -25.9623   -5.2271  -11.6049 F       1  UNL1       -0.2044
     38 C         -25.5899   -6.6558  -13.4967 C.ar    1  UNL1        0.0175
     39 C         -24.6858   -7.3902  -14.2801 C.ar    1  UNL1        0.0130
     40 C         -23.3343   -7.4589  -13.9285 C.ar    1  UNL1        0.0919
     41 CL        -22.2238   -8.3547  -14.9531 Cl      1  UNL1       -0.0791
     42 C         -27.0154   -6.4951  -13.9524 C.3     1  UNL1        0.1382
     43 C         -27.2345   -5.0925  -14.4222 C.2     1  UNL1        0.3234
     44 O         -26.2465   -4.3488  -14.6694 O.2     1  UNL1       -0.2497
     45 O         -28.5436   -4.6297  -14.5963 O.3     1  UNL1       -0.4215
     46 C         -29.5395   -5.3167  -15.3562 C.3     1  UNL1        0.3207
     47 O         -29.3907   -4.9773  -16.7294 O.3     1  UNL1       -0.3070
     48 C         -30.1080   -3.8173  -17.1505 C.3     1  UNL1        0.2456
     49 C         -30.4516   -2.8227  -16.0156 C.3     1  UNL1        0.1781
     50 O         -31.1568   -1.7254  -16.5393 O.3     1  UNL1       -0.3790
     51 C         -31.3011   -3.5203  -14.9322 C.3     1  UNL1        0.1733
     52 O         -31.0896   -2.8727  -13.7041 O.3     1  UNL1       -0.3793
     53 C         -30.9550   -5.0268  -14.8095 C.3     1  UNL1        0.2106
     54 O         -31.8816   -5.7969  -15.5330 O.3     1  UNL1       -0.3766
     55 H         -31.1209   -1.0090  -15.8526 H       1  UNL1        0.2106
     56 H         -31.8441   -3.1251  -13.1102 H       1  UNL1        0.2105
     57 H         -32.7137   -5.8294  -14.9919 H       1  UNL1        0.2107
     58 C         -29.3007   -3.1208  -18.2107 C.2     1  UNL1        0.3439
     59 O         -28.2449   -3.6517  -18.6469 O.2     1  UNL1       -0.2475
     60 O         -29.6808   -1.8689  -18.6870 O.3     1  UNL1       -0.4785
     61 H         -30.5095   -1.4020  -18.3393 H       1  UNL1        0.2951
@<TRIPOS>BOND
     1    31    32    1
     2    32    30    1
     3    30     1    1
     4     1     2   ar
     5     2     7    1
     6     7     8    2
     7     7     9   am
     8     9    11    1
     9    11    12    1
    10    11    13    1
    11    11    14    1
    12     2     3   ar
    13     3     4   ar
    14     4     5   ar
    15     5    33    1
    16    33    34    1
    17    34    35   ar
    18    35    36   ar
    19    36    37    1
    20    36    38   ar
    21    38    42    1
    22    42    43    1
    23    43    44    2
    24    43    45    1
    25    45    46    1
    26    46    47    1
    27    47    48    1
    28    48    58    1
    29    58    59    2
    30    58    60    1
    31    48    49    1
    32    49    50    1
    33    49    51    1
    34    51    52    1
    35    51    53    1
    36    53    54    1
    37    38    39   ar
    38    39    40   ar
    39    40    41    1
    40     5     6   ar
    41     6    15    1
    42    15    17    1
    43    17    18    2
    44    17    19    2
    45    17    20    1
    46    20    21   ar
    47    21    22   ar
    48    22    23   ar
    49    23    27    1
    50    27    28    1
    51    28    29    1
    52    23    24   ar
    53    24    25   ar
    54    25    26    1
    55     6     1   ar
    56    25    20   ar
    57    40    34   ar
    58    29    27    1
    59    53    46    1
    60     9    10    1
    61    60    61    1
    62    50    55    1
    63    52    56    1
    64    54    57    1
    65    15    16    1
@<TRIPOS>MOLECULE
*****
 61 65 0 0 0
SMALL
GASTEIGER

@<TRIPOS>ATOM
      1 C         -20.5153   -8.4533   -9.7166 C.ar    1  UNL1        0.0293
      2 C         -20.3665   -7.5104   -8.6657 C.ar    1  UNL1        0.0532
      3 C         -20.7323   -6.1738   -8.8789 C.ar    1  UNL1        0.0075
      4 C         -21.3032   -5.7768  -10.0854 C.ar    1  UNL1        0.0389
      5 C         -21.5475   -6.7163  -11.0959 C.ar    1  UNL1        0.1595
      6 C         -21.1856   -8.0571  -10.8985 C.ar    1  UNL1        0.0977
      7 C         -19.9098   -7.8995   -7.3146 C.2     1  UNL1        0.2456
      8 O         -20.7161   -8.4711   -6.5328 O.2     1  UNL1       -0.2702
      9 N         -18.5396   -7.6807   -6.9289 N.am    1  UNL1       -0.3040
     10 H         -17.8851   -7.3761   -7.6854 H       1  UNL1        0.1496
     11 C         -18.0087   -7.8269   -5.5606 C.3     1  UNL1        0.0572
     12 C         -16.7020   -7.0245   -5.4065 C.3     1  UNL1        0.0196
     13 C         -19.0534   -7.3534   -4.5324 C.3     1  UNL1        0.0196
     14 C         -17.7004   -9.3156   -5.2996 C.3     1  UNL1        0.0196
     15 N         -21.5771   -9.0302  -11.8719 N.pl3   1  UNL1       -0.2122
     16 H         -21.3365   -8.8613  -12.8737 H       1  UNL1        0.1738
     17 S         -22.8840  -10.1115  -11.5191 S.O2    1  UNL1        0.0745
     18 O         -24.1005   -9.3154  -11.1427 O.2     1  UNL1       -0.1499
     19 O         -22.5060  -10.9766  -10.3498 O.2     1  UNL1       -0.1499
     20 C         -23.1933  -11.1477  -12.9262 C.ar    1  UNL1        0.1356
     21 C         -24.4222  -10.9983  -13.5832 C.ar    1  UNL1        0.0207
     22 C         -24.7849  -11.8473  -14.6286 C.ar    1  UNL1       -0.0028
     23 C         -23.9127  -12.8667  -15.0568 C.ar    1  UNL1       -0.0216
     24 C         -22.6759  -13.0065  -14.4098 C.ar    1  UNL1        0.0085
     25 C         -22.3092  -12.1638  -13.3530 C.ar    1  UNL1        0.0762
     26 CL        -20.7573  -12.4690  -12.5812 Cl      1  UNL1       -0.0809
     27 C         -24.2451  -13.8513  -16.1651 C.3     1  UNL1        0.0224
     28 C         -25.2797  -14.9332  -15.8858 C.3     1  UNL1        0.0047
     29 C         -23.7993  -15.2897  -15.9410 C.3     1  UNL1        0.0047
     30 C         -19.9798   -9.8674   -9.5932 C.3     1  UNL1        0.1702
     31 C         -17.9381  -10.8124   -9.0892 C.3     1  UNL1        0.1746
     32 O         -18.6055   -9.8913   -9.9220 O.3     1  UNL1       -0.3463
     33 O         -22.2108   -6.3614  -12.2801 O.3     1  UNL1       -0.4513
     34 C         -23.5641   -6.5997  -12.5607 C.ar    1  UNL1        0.1580
     35 C         -24.5882   -6.0473  -11.7716 C.ar    1  UNL1        0.0677
     36 C         -25.9298   -6.2628  -12.0994 C.ar    1  UNL1        0.1398
     37 F         -26.8976   -5.6855  -11.3431 F       1  UNL1       -0.2044
     38 C         -26.2670   -7.0420  -13.2195 C.ar    1  UNL1        0.0175
     39 C         -25.2429   -7.5847  -14.0115 C.ar    1  UNL1        0.0130
     40 C         -23.9011   -7.3589  -13.6898 C.ar    1  UNL1        0.0919
     41 CL        -22.6457   -8.0207  -14.7249 Cl      1  UNL1       -0.0791
     42 C         -27.7025   -7.1957  -13.6451 C.3     1  UNL1        0.1382
     43 C         -28.1073   -6.0174  -14.4721 C.2     1  UNL1        0.3234
     44 O         -29.2975   -5.6018  -14.4374 O.2     1  UNL1       -0.2497
     45 O         -27.1466   -5.3804  -15.2654 O.3     1  UNL1       -0.4215
     46 C         -26.9498   -3.9657  -15.3005 C.3     1  UNL1        0.3207
     47 O         -28.0870   -3.3542  -15.8968 O.3     1  UNL1       -0.3070
     48 C         -28.0353   -3.2288  -17.3178 C.3     1  UNL1        0.2456
     49 C         -27.0861   -4.2290  -18.0206 C.3     1  UNL1        0.1781
     50 O         -27.1101   -4.0151  -19.4095 O.3     1  UNL1       -0.3790
     51 C         -25.6459   -4.0614  -17.4915 C.3     1  UNL1        0.1733
     52 O         -24.9666   -5.2825  -17.6324 O.3     1  UNL1       -0.3793
     53 C         -25.6254   -3.6055  -16.0095 C.3     1  UNL1        0.2106
     54 O         -25.4399   -2.2145  -15.9335 O.3     1  UNL1       -0.3766
     55 H         -26.7134   -4.8228  -19.8296 H       1  UNL1        0.2106
     56 H         -23.9958   -5.0815  -17.5782 H       1  UNL1        0.2105
     57 H         -24.4792   -2.0417  -16.1163 H       1  UNL1        0.2107
     58 C         -29.4299   -3.3852  -17.8577 C.2     1  UNL1        0.3439
     59 O         -30.2803   -4.0578  -17.2166 O.2     1  UNL1       -0.2475
     60 O         -29.7837   -2.8325  -19.0856 O.3     1  UNL1       -0.4785
     61 H         -29.1173   -2.3080  -19.6393 H       1  UNL1        0.2951
@<TRIPOS>BOND
     1    31    32    1
     2    32    30    1
     3    30     1    1
     4     1     2   ar
     5     2     7    1
     6     7     8    2
     7     7     9   am
     8     9    11    1
     9    11    12    1
    10    11    13    1
    11    11    14    1
    12     2     3   ar
    13     3     4   ar
    14     4     5   ar
    15     5    33    1
    16    33    34    1
    17    34    35   ar
    18    35    36   ar
    19    36    37    1
    20    36    38   ar
    21    38    42    1
    22    42    43    1
    23    43    44    2
    24    43    45    1
    25    45    46    1
    26    46    47    1
    27    47    48    1
    28    48    58    1
    29    58    59    2
    30    58    60    1
    31    48    49    1
    32    49    50    1
    33    49    51    1
    34    51    52    1
    35    51    53    1
    36    53    54    1
    37    38    39   ar
    38    39    40   ar
    39    40    41    1
    40     5     6   ar
    41     6    15    1
    42    15    17    1
    43    17    18    2
    44    17    19    2
    45    17    20    1
    46    20    21   ar
    47    21    22   ar
    48    22    23   ar
    49    23    27    1
    50    27    28    1
    51    28    29    1
    52    23    24   ar
    53    24    25   ar
    54    25    26    1
    55     6     1   ar
    56    25    20   ar
    57    40    34   ar
    58    29    27    1
    59    53    46    1
    60     9    10    1
    61    60    61    1
    62    50    55    1
    63    52    56    1
    64    54    57    1
    65    15    16    1
@<TRIPOS>MOLECULE
*****
 61 65 0 0 0
SMALL
GASTEIGER

@<TRIPOS>ATOM
      1 C         -22.0527   -9.6076  -13.3962 C.ar    1  UNL1        0.0293
      2 C         -22.4257  -10.9714  -13.2661 C.ar    1  UNL1        0.0532
      3 C         -21.8383  -11.7563  -12.2638 C.ar    1  UNL1        0.0075
      4 C         -20.9464  -11.1957  -11.3531 C.ar    1  UNL1        0.0389
      5 C         -20.6447   -9.8284  -11.4079 C.ar    1  UNL1        0.1595
      6 C         -21.2229   -9.0300  -12.4059 C.ar    1  UNL1        0.0977
      7 C         -23.4780  -11.5855  -14.1033 C.2     1  UNL1        0.2456
      8 O         -24.5097  -10.9183  -14.3835 O.2     1  UNL1       -0.2702
      9 N         -23.2879  -12.9083  -14.6401 N.am    1  UNL1       -0.3040
     10 H         -22.3368  -13.3269  -14.5231 H       1  UNL1        0.1496
     11 C         -24.3293  -13.7118  -15.3074 C.3     1  UNL1        0.0572
     12 C         -25.5818  -13.8096  -14.4149 C.3     1  UNL1        0.0196
     13 C         -24.6886  -13.0892  -16.6698 C.3     1  UNL1        0.0196
     14 C         -23.7872  -15.1364  -15.5447 C.3     1  UNL1        0.0196
     15 N         -21.0274   -7.6133  -12.3586 N.pl3   1  UNL1       -0.2122
     16 H         -20.1011   -7.2257  -12.6443 H       1  UNL1        0.1738
     17 S         -22.0319   -6.6478  -11.3287 S.O2    1  UNL1        0.0745
     18 O         -21.5925   -5.2138  -11.4078 O.2     1  UNL1       -0.1499
     19 O         -21.8725   -7.1124   -9.9084 O.2     1  UNL1       -0.1499
     20 C         -23.7297   -6.8363  -11.8095 C.ar    1  UNL1        0.1356
     21 C         -24.2888   -5.8375  -12.6182 C.ar    1  UNL1        0.0207
     22 C         -25.6435   -5.8570  -12.9493 C.ar    1  UNL1       -0.0028
     23 C         -26.4772   -6.8940  -12.4878 C.ar    1  UNL1       -0.0216
     24 C         -25.9145   -7.9024  -11.6914 C.ar    1  UNL1        0.0085
     25 C         -24.5572   -7.8840  -11.3469 C.ar    1  UNL1        0.0762
     26 CL        -23.9754   -9.1711  -10.2971 Cl      1  UNL1       -0.0809
     27 C         -27.9667   -6.9712  -12.7771 C.3     1  UNL1        0.0224
     28 C         -28.4477   -7.9496  -13.8403 C.3     1  UNL1        0.0047
     29 C         -28.4135   -6.4556  -14.1382 C.3     1  UNL1        0.0047
     30 C         -22.5297   -8.7644  -14.5638 C.3     1  UNL1        0.1702
     31 C         -21.0241   -8.3461  -16.2589 C.3     1  UNL1        0.1746
     32 O         -21.4883   -7.9143  -14.9998 O.3     1  UNL1       -0.3463
     33 O         -19.8277   -9.2202  -10.4430 O.3     1  UNL1       -0.4513
     34 C         -19.0266   -9.8940   -9.5096 C.ar    1  UNL1        0.1580
     35 C         -18.1955  -10.9629   -9.8880 C.ar    1  UNL1        0.0677
     36 C         -17.3726  -11.5881   -8.9470 C.ar    1  UNL1        0.1398
     37 F         -16.5515  -12.5918   -9.3477 F       1  UNL1       -0.2044
     38 C         -17.3747  -11.1569   -7.6092 C.ar    1  UNL1        0.0175
     39 C         -18.1982  -10.0833   -7.2355 C.ar    1  UNL1        0.0130
     40 C         -19.0123   -9.4506   -8.1799 C.ar    1  UNL1        0.0919
     41 CL        -20.0010   -8.0853   -7.6859 Cl      1  UNL1       -0.0791
     42 C         -16.4190  -11.7497   -6.6089 C.3     1  UNL1        0.1382
     43 C         -16.2608  -10.8136   -5.4536 C.2     1  UNL1        0.3234
     44 O         -15.1138  -10.4047   -5.1259 O.2     1  UNL1       -0.2497
     45 O         -17.3999  -10.3908   -4.7592 O.3     1  UNL1       -0.4215
     46 C         -17.3666   -9.7658   -3.4749 C.3     1  UNL1        0.3207
     47 O         -18.6912   -9.6878   -2.9630 O.3     1  UNL1       -0.3070
     48 C         -19.4172   -8.5149   -3.3300 C.3     1  UNL1        0.2456
     49 C         -18.9139   -7.8202   -4.6182 C.3     1  UNL1        0.1781
     50 O         -19.6936   -6.6810   -4.8825 O.3     1  UNL1       -0.3790
     51 C         -17.4328   -7.4145   -4.4632 C.3     1  UNL1        0.1733
     52 O         -16.8385   -7.3746   -5.7350 O.3     1  UNL1       -0.3793
     53 C         -16.6601   -8.3936   -3.5419 C.3     1  UNL1        0.2106
     54 O         -16.5751   -7.8690   -2.2409 O.3     1  UNL1       -0.3766
     55 H         -19.5195   -6.4289   -5.8272 H       1  UNL1        0.2106
     56 H         -16.0089   -6.8359   -5.6500 H       1  UNL1        0.2105
     57 H         -15.8784   -7.1616   -2.2607 H       1  UNL1        0.2107
     58 C         -20.8666   -8.8843   -3.4839 C.2     1  UNL1        0.3439
     59 O         -21.4935   -8.5497   -4.5240 O.2     1  UNL1       -0.2475
     60 O         -21.5419   -9.5547   -2.4675 O.3     1  UNL1       -0.4785
     61 H         -21.0751   -9.8156   -1.6074 H       1  UNL1        0.2951
@<TRIPOS>BOND
     1    31    32    1
     2    32    30    1
     3    30     1    1
     4     1     2   ar
     5     2     7    1
     6     7     8    2
     7     7     9   am
     8     9    11    1
     9    11    12    1
    10    11    13    1
    11    11    14    1
    12     2     3   ar
    13     3     4   ar
    14     4     5   ar
    15     5    33    1
    16    33    34    1
    17    34    35   ar
    18    35    36   ar
    19    36    37    1
    20    36    38   ar
    21    38    42    1
    22    42    43    1
    23    43    44    2
    24    43    45    1
    25    45    46    1
    26    46    47    1
    27    47    48    1
    28    48    58    1
    29    58    59    2
    30    58    60    1
    31    48    49    1
    32    49    50    1
    33    49    51    1
    34    51    52    1
    35    51    53    1
    36    53    54    1
    37    38    39   ar
    38    39    40   ar
    39    40    41    1
    40     5     6   ar
    41     6    15    1
    42    15    17    1
    43    17    18    2
    44    17    19    2
    45    17    20    1
    46    20    21   ar
    47    21    22   ar
    48    22    23   ar
    49    23    27    1
    50    27    28    1
    51    28    29    1
    52    23    24   ar
    53    24    25   ar
    54    25    26    1
    55     6     1   ar
    56    25    20   ar
    57    40    34   ar
    58    29    27    1
    59    53    46    1
    60     9    10    1
    61    60    61    1
    62    50    55    1
    63    52    56    1
    64    54    57    1
    65    15    16    1
@<TRIPOS>MOLECULE
*****
 61 65 0 0 0
SMALL
GASTEIGER

@<TRIPOS>ATOM
      1 C         -19.7402   -8.9059   -8.0494 C.ar    1  UNL1        0.0293
      2 C         -18.6558   -9.7830   -7.7834 C.ar    1  UNL1        0.0532
      3 C         -18.1538  -10.5934   -8.8114 C.ar    1  UNL1        0.0075
      4 C         -18.6611  -10.4971  -10.1047 C.ar    1  UNL1        0.0389
      5 C         -19.6639   -9.5653  -10.4040 C.ar    1  UNL1        0.1595
      6 C         -20.1779   -8.7484   -9.3860 C.ar    1  UNL1        0.0977
      7 C         -17.9744   -9.8209   -6.4721 C.2     1  UNL1        0.2456
      8 O         -17.5717  -10.9257   -6.0190 O.2     1  UNL1       -0.2702
      9 N         -17.7220   -8.5958   -5.7581 N.am    1  UNL1       -0.3040
     10 H         -17.9142   -7.7070   -6.2745 H       1  UNL1        0.1496
     11 C         -17.2459   -8.5074   -4.3649 C.3     1  UNL1        0.0572
     12 C         -17.8712   -9.6305   -3.5148 C.3     1  UNL1        0.0196
     13 C         -15.7086   -8.5952   -4.3227 C.3     1  UNL1        0.0196
     14 C         -17.6780   -7.1499   -3.7734 C.3     1  UNL1        0.0196
     15 N         -21.0887   -7.7007   -9.7330 N.pl3   1  UNL1       -0.2122
     16 H         -20.7076   -6.7464   -9.9174 H       1  UNL1        0.1738
     17 S         -22.7575   -7.8396   -9.2885 S.O2    1  UNL1        0.0745
     18 O         -23.0094   -7.0369   -8.0444 O.2     1  UNL1       -0.1499
     19 O         -23.0706   -9.2794   -8.9924 O.2     1  UNL1       -0.1499
     20 C         -23.7774   -7.2932  -10.6340 C.ar    1  UNL1        0.1356
     21 C         -25.0013   -7.9484  -10.8269 C.ar    1  UNL1        0.0207
     22 C         -25.8092   -7.6513  -11.9243 C.ar    1  UNL1       -0.0028
     23 C         -25.4163   -6.6716  -12.8566 C.ar    1  UNL1       -0.0216
     24 C         -24.1989   -6.0044  -12.6552 C.ar    1  UNL1        0.0085
     25 C         -23.3781   -6.3044  -11.5609 C.ar    1  UNL1        0.0762
     26 CL        -21.8481   -5.4427  -11.4418 Cl      1  UNL1       -0.0809
     27 C         -26.2226   -6.3120  -14.0931 C.3     1  UNL1        0.0224
     28 C         -27.2205   -5.1656  -13.9983 C.3     1  UNL1        0.0047
     29 C         -27.7150   -6.6066  -14.0302 C.3     1  UNL1        0.0047
     30 C         -20.4269   -8.1361   -6.9370 C.3     1  UNL1        0.1702
     31 C         -21.2195   -8.9159   -4.9174 C.3     1  UNL1        0.1746
     32 O         -21.3978   -8.9534   -6.3153 O.3     1  UNL1       -0.3463
     33 O         -20.1219   -9.3797  -11.7171 O.3     1  UNL1       -0.4513
     34 C         -21.3818   -9.7580  -12.2034 C.ar    1  UNL1        0.1580
     35 C         -22.1194  -10.7965  -11.6085 C.ar    1  UNL1        0.0677
     36 C         -23.3925  -11.1238  -12.0837 C.ar    1  UNL1        0.1398
     37 F         -24.0984  -12.1046  -11.4659 F       1  UNL1       -0.2044
     38 C         -23.9443  -10.4202  -13.1681 C.ar    1  UNL1        0.0175
     39 C         -23.2101   -9.3773  -13.7546 C.ar    1  UNL1        0.0130
     40 C         -21.9416   -9.0427  -13.2710 C.ar    1  UNL1        0.0919
     41 CL        -21.0671   -7.7068  -14.0035 Cl      1  UNL1       -0.0791
     42 C         -25.3534  -10.6903  -13.6228 C.3     1  UNL1        0.1382
     43 C         -25.3261  -11.4894  -14.8864 C.2     1  UNL1        0.3234
     44 O         -26.1311  -12.4472  -15.0443 O.2     1  UNL1       -0.2497
     45 O         -24.4103  -11.1480  -15.8880 O.3     1  UNL1       -0.4215
     46 C         -24.0874  -11.9901  -16.9960 C.3     1  UNL1        0.3207
     47 O         -24.2170  -13.3495  -16.5983 O.3     1  UNL1       -0.3070
     48 C         -23.0444  -13.9311  -16.0287 C.3     1  UNL1        0.2456
     49 C         -22.0466  -12.9138  -15.4248 C.3     1  UNL1        0.1781
     50 O         -20.9336  -13.5915  -14.8980 O.3     1  UNL1       -0.3790
     51 C         -21.5849  -11.9122  -16.5045 C.3     1  UNL1        0.1733
     52 O         -21.2211  -10.7083  -15.8796 O.3     1  UNL1       -0.3793
     53 C         -22.6896  -11.6540  -17.5616 C.3     1  UNL1        0.2106
     54 O         -22.4643  -12.4458  -18.7005 O.3     1  UNL1       -0.3766
     55 H         -20.4654  -12.9506  -14.3012 H       1  UNL1        0.2106
     56 H         -20.6592  -10.2053  -16.5253 H       1  UNL1        0.2105
     57 H         -21.7242  -12.0187  -19.2065 H       1  UNL1        0.2107
     58 C         -23.4689  -14.9153  -14.9742 C.2     1  UNL1        0.3439
     59 O         -22.6833  -15.8336  -14.6188 O.2     1  UNL1       -0.2475
     60 O         -24.7424  -14.8537  -14.4146 O.3     1  UNL1       -0.4785
     61 H         -25.4082  -14.1444  -14.6963 H       1  UNL1        0.2951
@<TRIPOS>BOND
     1    31    32    1
     2    32    30    1
     3    30     1    1
     4     1     2   ar
     5     2     7    1
     6     7     8    2
     7     7     9   am
     8     9    11    1
     9    11    12    1
    10    11    13    1
    11    11    14    1
    12     2     3   ar
    13     3     4   ar
    14     4     5   ar
    15     5    33    1
    16    33    34    1
    17    34    35   ar
    18    35    36   ar
    19    36    37    1
    20    36    38   ar
    21    38    42    1
    22    42    43    1
    23    43    44    2
    24    43    45    1
    25    45    46    1
    26    46    47    1
    27    47    48    1
    28    48    58    1
    29    58    59    2
    30    58    60    1
    31    48    49    1
    32    49    50    1
    33    49    51    1
    34    51    52    1
    35    51    53    1
    36    53    54    1
    37    38    39   ar
    38    39    40   ar
    39    40    41    1
    40     5     6   ar
    41     6    15    1
    42    15    17    1
    43    17    18    2
    44    17    19    2
    45    17    20    1
    46    20    21   ar
    47    21    22   ar
    48    22    23   ar
    49    23    27    1
    50    27    28    1
    51    28    29    1
    52    23    24   ar
    53    24    25   ar
    54    25    26    1
    55     6     1   ar
    56    25    20   ar
    57    40    34   ar
    58    29    27    1
    59    53    46    1
    60     9    10    1
    61    60    61    1
    62    50    55    1
    63    52    56    1
    64    54    57    1
    65    15    16    1
@<TRIPOS>MOLECULE
*****
 61 65 0 0 0
SMALL
GASTEIGER

@<TRIPOS>ATOM
      1 C         -19.4866   -9.1237   -8.9890 C.ar    1  UNL1        0.0293
      2 C         -19.8105   -8.0990   -8.0611 C.ar    1  UNL1        0.0532
      3 C         -20.5116   -6.9664   -8.4986 C.ar    1  UNL1        0.0075
      4 C         -20.9527   -6.8682   -9.8158 C.ar    1  UNL1        0.0389
      5 C         -20.7264   -7.9162  -10.7180 C.ar    1  UNL1        0.1595
      6 C         -20.0250   -9.0554  -10.2960 C.ar    1  UNL1        0.0977
      7 C         -19.5045   -8.2138   -6.6194 C.2     1  UNL1        0.2456
      8 O         -20.4419   -8.4337   -5.8064 O.2     1  UNL1       -0.2702
      9 N         -18.1395   -8.1370   -6.1666 N.am    1  UNL1       -0.3040
     10 H         -17.4015   -8.1406   -6.9074 H       1  UNL1        0.1496
     11 C         -17.7169   -8.0278   -4.7577 C.3     1  UNL1        0.0572
     12 C         -18.5065   -6.9102   -4.0487 C.3     1  UNL1        0.0196
     13 C         -17.9245   -9.3724   -4.0354 C.3     1  UNL1        0.0196
     14 C         -16.2171   -7.6701   -4.7111 C.3     1  UNL1        0.0196
     15 N         -19.9335  -10.1781  -11.1784 N.pl3   1  UNL1       -0.2122
     16 H         -19.3563  -10.0893  -12.0438 H       1  UNL1        0.1738
     17 S         -21.1689  -11.3925  -11.1442 S.O2    1  UNL1        0.0745
     18 O         -22.1196  -11.1033  -10.0181 O.2     1  UNL1       -0.1499
     19 O         -20.5360  -12.7326  -10.8949 O.2     1  UNL1       -0.1499
     20 C         -22.0052  -11.4325  -12.7088 C.ar    1  UNL1        0.1356
     21 C         -21.2219  -11.6065  -13.8579 C.ar    1  UNL1        0.0207
     22 C         -21.7897  -11.5412  -15.1302 C.ar    1  UNL1       -0.0028
     23 C         -23.1707  -11.3132  -15.2856 C.ar    1  UNL1       -0.0216
     24 C         -23.9577  -11.1547  -14.1352 C.ar    1  UNL1        0.0085
     25 C         -23.3927  -11.2093  -12.8550 C.ar    1  UNL1        0.0762
     26 CL        -24.4684  -10.9410  -11.4881 Cl      1  UNL1       -0.0809
     27 C         -23.8603  -11.1972  -16.6344 C.3     1  UNL1        0.0224
     28 C         -23.0848  -11.6023  -17.8808 C.3     1  UNL1        0.0047
     29 C         -23.3202  -10.1283  -17.5745 C.3     1  UNL1        0.0047
     30 C         -18.5873  -10.2838   -8.6052 C.3     1  UNL1        0.1702
     31 C         -17.1739  -11.8845   -9.4741 C.3     1  UNL1        0.1746
     32 O         -17.7345  -10.6082   -9.6844 O.3     1  UNL1       -0.3463
     33 O         -21.2458   -7.8849  -12.0210 O.3     1  UNL1       -0.4513
     34 C         -22.5987   -7.7311  -12.3570 C.ar    1  UNL1        0.1580
     35 C         -23.5892   -7.5753  -11.3715 C.ar    1  UNL1        0.0677
     36 C         -24.9246   -7.3781  -11.7340 C.ar    1  UNL1        0.1398
     37 F         -25.8542   -7.1916  -10.7629 F       1  UNL1       -0.2044
     38 C         -25.2903   -7.3413  -13.0907 C.ar    1  UNL1        0.0175
     39 C         -24.2985   -7.4876  -14.0731 C.ar    1  UNL1        0.0130
     40 C         -22.9611   -7.6729  -13.7098 C.ar    1  UNL1        0.0919
     41 CL        -21.7407   -7.8136  -14.9654 Cl      1  UNL1       -0.0791
     42 C         -26.7047   -7.0256  -13.4972 C.3     1  UNL1        0.1382
     43 C         -26.9371   -5.5520  -13.3942 C.2     1  UNL1        0.3234
     44 O         -26.2648   -4.8632  -12.5794 O.2     1  UNL1       -0.2497
     45 O         -27.8940   -4.9543  -14.2221 O.3     1  UNL1       -0.4215
     46 C         -28.6016   -5.6449  -15.2534 C.3     1  UNL1        0.3207
     47 O         -28.1695   -5.1580  -16.5180 O.3     1  UNL1       -0.3070
     48 C         -28.8875   -4.0277  -17.0123 C.3     1  UNL1        0.2456
     49 C         -29.5953   -3.1852  -15.9239 C.3     1  UNL1        0.1781
     50 O         -30.2706   -2.1059  -16.5192 O.3     1  UNL1       -0.3790
     51 C         -30.5967   -4.0586  -15.1387 C.3     1  UNL1        0.1733
     52 O         -30.7530   -3.5216  -13.8505 O.3     1  UNL1       -0.3793
     53 C         -30.1291   -5.5344  -15.0503 C.3     1  UNL1        0.2106
     54 O         -30.7694   -6.3050  -16.0358 O.3     1  UNL1       -0.3766
     55 H         -30.4758   -1.4615  -15.7920 H       1  UNL1        0.2106
     56 H         -31.5950   -3.8963  -13.4810 H       1  UNL1        0.2105
     57 H         -31.6974   -6.4632  -15.7197 H       1  UNL1        0.2107
     58 C         -27.9322   -3.1615  -17.7855 C.2     1  UNL1        0.3439
     59 O         -26.6908   -3.3499  -17.6851 O.2     1  UNL1       -0.2475
     60 O         -28.4008   -2.1183  -18.5798 O.3     1  UNL1       -0.4785
     61 H         -29.3911   -1.9225  -18.6624 H       1  UNL1        0.2951
@<TRIPOS>BOND
     1    31    32    1
     2    32    30    1
     3    30     1    1
     4     1     2   ar
     5     2     7    1
     6     7     8    2
     7     7     9   am
     8     9    11    1
     9    11    12    1
    10    11    13    1
    11    11    14    1
    12     2     3   ar
    13     3     4   ar
    14     4     5   ar
    15     5    33    1
    16    33    34    1
    17    34    35   ar
    18    35    36   ar
    19    36    37    1
    20    36    38   ar
    21    38    42    1
    22    42    43    1
    23    43    44    2
    24    43    45    1
    25    45    46    1
    26    46    47    1
    27    47    48    1
    28    48    58    1
    29    58    59    2
    30    58    60    1
    31    48    49    1
    32    49    50    1
    33    49    51    1
    34    51    52    1
    35    51    53    1
    36    53    54    1
    37    38    39   ar
    38    39    40   ar
    39    40    41    1
    40     5     6   ar
    41     6    15    1
    42    15    17    1
    43    17    18    2
    44    17    19    2
    45    17    20    1
    46    20    21   ar
    47    21    22   ar
    48    22    23   ar
    49    23    27    1
    50    27    28    1
    51    28    29    1
    52    23    24   ar
    53    24    25   ar
    54    25    26    1
    55     6     1   ar
    56    25    20   ar
    57    40    34   ar
    58    29    27    1
    59    53    46    1
    60     9    10    1
    61    60    61    1
    62    50    55    1
    63    52    56    1
    64    54    57    1
    65    15    16    1
@<TRIPOS>MOLECULE
*****
 61 65 0 0 0
SMALL
GASTEIGER

@<TRIPOS>ATOM
      1 C         -25.2012   -5.7371  -16.0372 C.ar    1  UNL1        0.0293
      2 C         -26.4426   -5.2615  -15.5390 C.ar    1  UNL1        0.0532
      3 C         -26.9712   -5.8101  -14.3620 C.ar    1  UNL1        0.0075
      4 C         -26.2596   -6.7656  -13.6410 C.ar    1  UNL1        0.0389
      5 C         -24.9884   -7.1723  -14.0676 C.ar    1  UNL1        0.1595
      6 C         -24.4465   -6.6340  -15.2442 C.ar    1  UNL1        0.0977
      7 C         -27.1723   -4.1436  -16.1742 C.2     1  UNL1        0.2456
      8 O         -26.7987   -2.9604  -15.9545 O.2     1  UNL1       -0.2702
      9 N         -28.2562   -4.4174  -17.0822 N.am    1  UNL1       -0.3040
     10 H         -28.3901   -5.4163  -17.3611 H       1  UNL1        0.1496
     11 C         -29.1918   -3.4099  -17.6162 C.3     1  UNL1        0.0572
     12 C         -29.7950   -2.5794  -16.4667 C.3     1  UNL1        0.0196
     13 C         -28.4677   -2.4916  -18.6188 C.3     1  UNL1        0.0196
     14 C         -30.3400   -4.1324  -18.3506 C.3     1  UNL1        0.0196
     15 N         -23.0914   -6.9414  -15.5858 N.pl3   1  UNL1       -0.2122
     16 H         -22.3766   -6.1825  -15.5308 H       1  UNL1        0.1738
     17 S         -22.7560   -8.3044  -16.6014 S.O2    1  UNL1        0.0745
     18 O         -21.2944   -8.3202  -16.9462 O.2     1  UNL1       -0.1499
     19 O         -23.5403   -8.1737  -17.8767 O.2     1  UNL1       -0.1499
     20 C         -23.2462   -9.7958  -15.7740 C.ar    1  UNL1        0.1356
     21 C         -24.3581  -10.4824  -16.2807 C.ar    1  UNL1        0.0207
     22 C         -24.8709  -11.6011  -15.6244 C.ar    1  UNL1       -0.0028
     23 C         -24.2694  -12.0743  -14.4422 C.ar    1  UNL1       -0.0216
     24 C         -23.1470  -11.3968  -13.9434 C.ar    1  UNL1        0.0085
     25 C         -22.6326  -10.2671  -14.5918 C.ar    1  UNL1        0.0762
     26 CL        -21.2554   -9.4665  -13.8434 Cl      1  UNL1       -0.0809
     27 C         -24.7847  -13.2650  -13.6515 C.3     1  UNL1        0.0224
     28 C         -25.0465  -14.5684  -14.3941 C.3     1  UNL1        0.0047
     29 C         -26.2142  -13.6981  -13.9459 C.3     1  UNL1        0.0047
     30 C         -24.6707   -5.2990  -17.3895 C.3     1  UNL1        0.1702
     31 C         -25.3188   -5.8868  -19.5224 C.3     1  UNL1        0.1746
     32 O         -25.7256   -5.2565  -18.3288 O.3     1  UNL1       -0.3463
     33 O         -24.2103   -8.0583  -13.3074 O.3     1  UNL1       -0.4513
     34 C         -23.4226   -7.7096  -12.2006 C.ar    1  UNL1        0.1580
     35 C         -22.5700   -6.5919  -12.2264 C.ar    1  UNL1        0.0677
     36 C         -21.8298   -6.2393  -11.0945 C.ar    1  UNL1        0.1398
     37 F         -21.0445   -5.1330  -11.1346 F       1  UNL1       -0.2044
     38 C         -21.9262   -7.0056   -9.9201 C.ar    1  UNL1        0.0175
     39 C         -22.7852   -8.1155   -9.8936 C.ar    1  UNL1        0.0130
     40 C         -23.5345   -8.4607  -11.0224 C.ar    1  UNL1        0.0919
     41 CL        -24.6286   -9.8326  -10.9416 Cl      1  UNL1       -0.0791
     42 C         -21.2173   -6.5784   -8.6630 C.3     1  UNL1        0.1382
     43 C         -20.3710   -7.7038   -8.1598 C.2     1  UNL1        0.3234
     44 O         -19.8002   -8.4774   -8.9760 O.2     1  UNL1       -0.2497
     45 O         -20.2122   -7.8717   -6.7796 O.3     1  UNL1       -0.4215
     46 C         -19.6137   -9.0212   -6.1782 C.3     1  UNL1        0.3207
     47 O         -20.1343   -9.1808   -4.8642 O.3     1  UNL1       -0.3070
     48 C         -19.4259   -8.4828   -3.8403 C.3     1  UNL1        0.2456
     49 C         -18.6053   -7.2676   -4.3356 C.3     1  UNL1        0.1781
     50 O         -17.9494   -6.6600   -3.2511 O.3     1  UNL1       -0.3790
     51 C         -17.5690   -7.7154   -5.3881 C.3     1  UNL1        0.1733
     52 O         -17.2903   -6.6330   -6.2385 O.3     1  UNL1       -0.3793
     53 C         -18.0720   -8.9283   -6.2129 C.3     1  UNL1        0.2106
     54 O         -17.5391  -10.1208   -5.6944 O.3     1  UNL1       -0.3766
     55 H         -17.6653   -5.7592   -3.5577 H       1  UNL1        0.2106
     56 H         -16.4323   -6.8369   -6.6946 H       1  UNL1        0.2105
     57 H         -16.5933  -10.1675   -5.9934 H       1  UNL1        0.2107
     58 C         -20.4155   -8.0384   -2.7991 C.2     1  UNL1        0.3439
     59 O         -20.4275   -6.8389   -2.4147 O.2     1  UNL1       -0.2475
     60 O         -21.2932   -8.9491   -2.2169 O.3     1  UNL1       -0.4785
     61 H         -21.2927   -9.9262   -2.4837 H       1  UNL1        0.2951
@<TRIPOS>BOND
     1    31    32    1
     2    32    30    1
     3    30     1    1
     4     1     2   ar
     5     2     7    1
     6     7     8    2
     7     7     9   am
     8     9    11    1
     9    11    12    1
    10    11    13    1
    11    11    14    1
    12     2     3   ar
    13     3     4   ar
    14     4     5   ar
    15     5    33    1
    16    33    34    1
    17    34    35   ar
    18    35    36   ar
    19    36    37    1
    20    36    38   ar
    21    38    42    1
    22    42    43    1
    23    43    44    2
    24    43    45    1
    25    45    46    1
    26    46    47    1
    27    47    48    1
    28    48    58    1
    29    58    59    2
    30    58    60    1
    31    48    49    1
    32    49    50    1
    33    49    51    1
    34    51    52    1
    35    51    53    1
    36    53    54    1
    37    38    39   ar
    38    39    40   ar
    39    40    41    1
    40     5     6   ar
    41     6    15    1
    42    15    17    1
    43    17    18    2
    44    17    19    2
    45    17    20    1
    46    20    21   ar
    47    21    22   ar
    48    22    23   ar
    49    23    27    1
    50    27    28    1
    51    28    29    1
    52    23    24   ar
    53    24    25   ar
    54    25    26    1
    55     6     1   ar
    56    25    20   ar
    57    40    34   ar
    58    29    27    1
    59    53    46    1
    60     9    10    1
    61    60    61    1
    62    50    55    1
    63    52    56    1
    64    54    57    1
    65    15    16    1
@<TRIPOS>MOLECULE
*****
 61 65 0 0 0
SMALL
GASTEIGER

@<TRIPOS>ATOM
      1 C         -22.9538   -9.7082  -13.0509 C.ar    1  UNL1        0.0293
      2 C         -22.3104   -9.4153  -14.2822 C.ar    1  UNL1        0.0532
      3 C         -21.1226   -8.6704  -14.2817 C.ar    1  UNL1        0.0075
      4 C         -20.5320   -8.2749  -13.0842 C.ar    1  UNL1        0.0389
      5 C         -21.1030   -8.6418  -11.8583 C.ar    1  UNL1        0.1595
      6 C         -22.2923   -9.3855  -11.8421 C.ar    1  UNL1        0.0977
      7 C         -22.8043   -9.9361  -15.5746 C.2     1  UNL1        0.2456
      8 O         -23.5786   -9.2252  -16.2697 O.2     1  UNL1       -0.2702
      9 N         -22.3494  -11.2156  -16.0543 N.am    1  UNL1       -0.3040
     10 H         -21.5701  -11.6637  -15.5202 H       1  UNL1        0.1496
     11 C         -22.9133  -11.9389  -17.2094 C.3     1  UNL1        0.0572
     12 C         -24.1513  -12.7496  -16.7789 C.3     1  UNL1        0.0196
     13 C         -23.2842  -10.9467  -18.3277 C.3     1  UNL1        0.0196
     14 C         -21.8533  -12.9192  -17.7524 C.3     1  UNL1        0.0196
     15 N         -22.7809   -9.8821  -10.5922 N.pl3   1  UNL1       -0.2122
     16 H         -22.8334  -10.9150  -10.4497 H       1  UNL1        0.1738
     17 S         -23.7869   -8.8717   -9.6078 S.O2    1  UNL1        0.0745
     18 O         -22.9357   -8.1522   -8.6011 O.2     1  UNL1       -0.1499
     19 O         -24.7717   -9.7304   -8.8652 O.2     1  UNL1       -0.1499
     20 C         -24.6769   -7.7349  -10.6396 C.ar    1  UNL1        0.1356
     21 C         -25.9681   -8.1010  -11.0434 C.ar    1  UNL1        0.0207
     22 C         -26.6897   -7.3137  -11.9405 C.ar    1  UNL1       -0.0028
     23 C         -26.1384   -6.1216  -12.4489 C.ar    1  UNL1       -0.0216
     24 C         -24.8523   -5.7469  -12.0328 C.ar    1  UNL1        0.0085
     25 C         -24.1182   -6.5375  -11.1399 C.ar    1  UNL1        0.0762
     26 CL        -22.4940   -5.9956  -10.7327 Cl      1  UNL1       -0.0809
     27 C         -26.8452   -5.2257  -13.4520 C.3     1  UNL1        0.0224
     28 C         -27.8788   -5.8515  -14.3789 C.3     1  UNL1        0.0047
     29 C         -26.5076   -5.4622  -14.9176 C.3     1  UNL1        0.0047
     30 C         -24.3224  -10.3616  -13.0086 C.3     1  UNL1        0.1702
     31 C         -24.7126  -12.6336  -13.0377 C.3     1  UNL1        0.1746
     32 O         -24.2627  -11.5534  -12.2515 O.3     1  UNL1       -0.3463
     33 O         -20.4757   -8.3412  -10.6399 O.3     1  UNL1       -0.4513
     34 C         -19.7167   -9.2347   -9.8703 C.ar    1  UNL1        0.1580
     35 C         -19.3124  -10.4828  -10.3759 C.ar    1  UNL1        0.0677
     36 C         -18.5178  -11.3359   -9.6050 C.ar    1  UNL1        0.1398
     37 F         -18.1096  -12.5179  -10.1326 F       1  UNL1       -0.2044
     38 C         -18.1214  -10.9552   -8.3114 C.ar    1  UNL1        0.0175
     39 C         -18.5181   -9.7047   -7.8121 C.ar    1  UNL1        0.0130
     40 C         -19.3031   -8.8468   -8.5884 C.ar    1  UNL1        0.0919
     41 CL        -19.7488   -7.2733   -7.9471 Cl      1  UNL1       -0.0791
     42 C         -17.1808  -11.8158   -7.5112 C.3     1  UNL1        0.1382
     43 C         -16.6884  -11.0489   -6.3256 C.2     1  UNL1        0.3234
     44 O         -15.4545  -11.0099   -6.0681 O.2     1  UNL1       -0.2497
     45 O         -17.6116  -10.3682   -5.5239 O.3     1  UNL1       -0.4215
     46 C         -17.3437   -9.9341   -4.1894 C.3     1  UNL1        0.3207
     47 O         -18.5654   -9.8896   -3.4625 O.3     1  UNL1       -0.3070
     48 C         -19.2768   -8.6548   -3.5434 C.3     1  UNL1        0.2456
     49 C         -18.9462   -7.7991   -4.7900 C.3     1  UNL1        0.1781
     50 O         -19.6963   -6.6107   -4.7664 O.3     1  UNL1       -0.3790
     51 C         -17.4398   -7.4649   -4.8250 C.3     1  UNL1        0.1733
     52 O         -17.0516   -7.2622   -6.1593 O.3     1  UNL1       -0.3793
     53 C         -16.5848   -8.5884   -4.1837 C.3     1  UNL1        0.2106
     54 O         -16.2686   -8.2576   -2.8550 O.3     1  UNL1       -0.3766
     55 H         -19.6598   -6.2318   -5.6836 H       1  UNL1        0.2106
     56 H         -16.1916   -6.7666   -6.1384 H       1  UNL1        0.2105
     57 H         -15.5472   -7.5761   -2.8918 H       1  UNL1        0.2107
     58 C         -20.7499   -8.9542   -3.5076 C.2     1  UNL1        0.3439
     59 O         -21.2459   -9.5516   -2.5158 O.2     1  UNL1       -0.2475
     60 O         -21.5704   -8.6197   -4.5816 O.3     1  UNL1       -0.4785
     61 H         -21.1997   -8.1623   -5.4058 H       1  UNL1        0.2951
@<TRIPOS>BOND
     1    31    32    1
     2    32    30    1
     3    30     1    1
     4     1     2   ar
     5     2     7    1
     6     7     8    2
     7     7     9   am
     8     9    11    1
     9    11    12    1
    10    11    13    1
    11    11    14    1
    12     2     3   ar
    13     3     4   ar
    14     4     5   ar
    15     5    33    1
    16    33    34    1
    17    34    35   ar
    18    35    36   ar
    19    36    37    1
    20    36    38   ar
    21    38    42    1
    22    42    43    1
    23    43    44    2
    24    43    45    1
    25    45    46    1
    26    46    47    1
    27    47    48    1
    28    48    58    1
    29    58    59    2
    30    58    60    1
    31    48    49    1
    32    49    50    1
    33    49    51    1
    34    51    52    1
    35    51    53    1
    36    53    54    1
    37    38    39   ar
    38    39    40   ar
    39    40    41    1
    40     5     6   ar
    41     6    15    1
    42    15    17    1
    43    17    18    2
    44    17    19    2
    45    17    20    1
    46    20    21   ar
    47    21    22   ar
    48    22    23   ar
    49    23    27    1
    50    27    28    1
    51    28    29    1
    52    23    24   ar
    53    24    25   ar
    54    25    26    1
    55     6     1   ar
    56    25    20   ar
    57    40    34   ar
    58    29    27    1
    59    53    46    1
    60     9    10    1
    61    60    61    1
    62    50    55    1
    63    52    56    1
    64    54    57    1
    65    15    16    1
