@<TRIPOS>MOLECULE
*****
 28 30 0 0 0
SMALL
GASTEIGER

@<TRIPOS>ATOM
      1 C         -24.3416  -11.1851  -13.5785 C.2     1  UNL1       -0.0222
      2 C         -22.9998  -11.3519  -13.7561 C.2     1  UNL1       -0.0040
      3 C         -22.4496  -12.1198  -14.8974 C.ar    1  UNL1       -0.0003
      4 C         -22.3861  -11.5328  -16.1717 C.ar    1  UNL1       -0.0000
      5 C         -21.9045  -12.2656  -17.2606 C.ar    1  UNL1       -0.0000
      6 C         -21.5006  -13.5924  -17.0883 C.ar    1  UNL1       -0.0000
      7 C         -21.5846  -14.1910  -15.8281 C.ar    1  UNL1       -0.0000
      8 C         -22.0654  -13.4614  -14.7367 C.ar    1  UNL1       -0.0000
      9 C         -22.0103  -10.7991  -12.7950 C.ar    1  UNL1       -0.0001
     10 C         -21.3933  -11.6286  -11.8440 C.ar    1  UNL1        0.0031
     11 C         -20.4631  -11.1010  -10.9453 C.ar    1  UNL1        0.0369
     12 C         -20.1242   -9.7442  -10.9870 C.ar    1  UNL1        0.1386
     13 C         -20.7257   -8.9151  -11.9526 C.ar    1  UNL1        0.0369
     14 C         -21.6572   -9.4420  -12.8519 C.ar    1  UNL1        0.0031
     15 O         -19.1912   -9.2633  -10.0575 O.3     1  UNL1       -0.4740
     16 C         -19.4473   -9.1020   -8.6646 C.3     1  UNL1        0.2226
     17 C         -19.8900   -7.6584   -8.3651 C.3     1  UNL1        0.1201
     18 N         -21.3557   -7.4425   -8.3555 N.3     1  UNL1       -0.2672
     19 C         -22.1313   -8.6919   -8.3342 C.3     1  UNL1        0.0898
     20 C         -21.8159   -6.5458   -9.4276 C.3     1  UNL1        0.0898
     21 C         -24.8655  -10.2445  -12.5508 C.ar    1  UNL1       -0.0040
     22 C         -25.5183   -9.0604  -12.9399 C.ar    1  UNL1       -0.0003
     23 C         -26.0078   -8.1741  -11.9763 C.ar    1  UNL1       -0.0000
     24 C         -25.8608   -8.4656  -10.6181 C.ar    1  UNL1       -0.0000
     25 C         -25.2273   -9.6460  -10.2214 C.ar    1  UNL1       -0.0000
     26 C         -24.7348  -10.5350  -11.1817 C.ar    1  UNL1       -0.0003
     27 C         -25.7053  -13.2958  -13.8309 C.3     1  UNL1        0.0050
     28 C         -25.3641  -11.9282  -14.4211 C.3     1  UNL1        0.0264
@<TRIPOS>BOND
     1    27    28    1
     2    28     1    1
     3     1     2    2
     4     2     3    1
     5     3     4   ar
     6     4     5   ar
     7     5     6   ar
     8     6     7   ar
     9     7     8   ar
    10     2     9    1
    11     9    10   ar
    12    10    11   ar
    13    11    12   ar
    14    12    15    1
    15    15    16    1
    16    16    17    1
    17    17    18    1
    18    18    19    1
    19    18    20    1
    20    12    13   ar
    21    13    14   ar
    22     1    21    1
    23    21    22   ar
    24    22    23   ar
    25    23    24   ar
    26    24    25   ar
    27    25    26   ar
    28     8     3   ar
    29    14     9   ar
    30    26    21   ar
@<TRIPOS>MOLECULE
*****
 28 30 0 0 0
SMALL
GASTEIGER

@<TRIPOS>ATOM
      1 C         -23.6381   -8.2135  -13.1574 C.2     1  UNL1       -0.0222
      2 C         -24.6021   -9.0700  -12.7136 C.2     1  UNL1       -0.0040
      3 C         -25.5044   -8.7211  -11.5915 C.ar    1  UNL1       -0.0003
      4 C         -25.2613   -9.2398  -10.3093 C.ar    1  UNL1       -0.0000
      5 C         -26.1313   -8.9462   -9.2550 C.ar    1  UNL1       -0.0000
      6 C         -27.2574   -8.1489   -9.4776 C.ar    1  UNL1       -0.0000
      7 C         -27.5193   -7.6500  -10.7567 C.ar    1  UNL1       -0.0000
      8 C         -26.6515   -7.9412  -11.8134 C.ar    1  UNL1       -0.0000
      9 C         -24.7826  -10.4191  -13.3101 C.ar    1  UNL1       -0.0001
     10 C         -24.3585  -11.5692  -12.6243 C.ar    1  UNL1        0.0031
     11 C         -24.5335  -12.8336  -13.1916 C.ar    1  UNL1        0.0369
     12 C         -25.1433  -12.9735  -14.4430 C.ar    1  UNL1        0.1386
     13 C         -25.5879  -11.8240  -15.1231 C.ar    1  UNL1        0.0369
     14 C         -25.4126  -10.5583  -14.5564 C.ar    1  UNL1        0.0031
     15 O         -25.2875  -14.2641  -14.9715 O.3     1  UNL1       -0.4740
     16 C         -24.4177  -14.8423  -15.9415 C.3     1  UNL1        0.2226
     17 C         -23.0615  -15.1931  -15.3032 C.3     1  UNL1        0.1201
     18 N         -21.9445  -14.2926  -15.6724 N.3     1  UNL1       -0.2672
     19 C         -21.2189  -13.7540  -14.5121 C.3     1  UNL1        0.0898
     20 C         -22.3465  -13.2202  -16.5964 C.3     1  UNL1        0.0898
     21 C         -22.8837   -8.4942  -14.4094 C.ar    1  UNL1       -0.0040
     22 C         -23.1148   -7.7249  -15.5645 C.ar    1  UNL1       -0.0003
     23 C         -22.4101   -7.9892  -16.7422 C.ar    1  UNL1       -0.0000
     24 C         -21.4618   -9.0145  -16.7754 C.ar    1  UNL1       -0.0000
     25 C         -21.2143   -9.7745  -15.6296 C.ar    1  UNL1       -0.0000
     26 C         -21.9178   -9.5147  -14.4495 C.ar    1  UNL1       -0.0003
     27 C         -21.8147   -6.8625  -12.0489 C.3     1  UNL1        0.0050
     28 C         -23.2963   -6.9320  -12.4168 C.3     1  UNL1        0.0264
@<TRIPOS>BOND
     1    27    28    1
     2    28     1    1
     3     1     2    2
     4     2     3    1
     5     3     4   ar
     6     4     5   ar
     7     5     6   ar
     8     6     7   ar
     9     7     8   ar
    10     2     9    1
    11     9    10   ar
    12    10    11   ar
    13    11    12   ar
    14    12    15    1
    15    15    16    1
    16    16    17    1
    17    17    18    1
    18    18    19    1
    19    18    20    1
    20    12    13   ar
    21    13    14   ar
    22     1    21    1
    23    21    22   ar
    24    22    23   ar
    25    23    24   ar
    26    24    25   ar
    27    25    26   ar
    28     8     3   ar
    29    14     9   ar
    30    26    21   ar
@<TRIPOS>MOLECULE
*****
 28 30 0 0 0
SMALL
GASTEIGER

@<TRIPOS>ATOM
      1 C         -23.5484  -11.5151  -15.7390 C.2     1  UNL1       -0.0222
      2 C         -23.1120  -10.4230  -15.0487 C.2     1  UNL1       -0.0040
      3 C         -22.4930   -9.2614  -15.7289 C.ar    1  UNL1       -0.0003
      4 C         -21.0962   -9.1832  -15.8509 C.ar    1  UNL1       -0.0000
      5 C         -20.5041   -8.0709  -16.4568 C.ar    1  UNL1       -0.0000
      6 C         -21.3003   -7.0234  -16.9278 C.ar    1  UNL1       -0.0000
      7 C         -22.6896   -7.0830  -16.7871 C.ar    1  UNL1       -0.0000
      8 C         -23.2854   -8.1937  -16.1821 C.ar    1  UNL1       -0.0000
      9 C         -23.2027  -10.3482  -13.5672 C.ar    1  UNL1       -0.0001
     10 C         -24.3428   -9.8141  -12.9445 C.ar    1  UNL1        0.0031
     11 C         -24.4204   -9.7491  -11.5512 C.ar    1  UNL1        0.0369
     12 C         -23.3713  -10.2250  -10.7574 C.ar    1  UNL1        0.1386
     13 C         -22.2365  -10.7798  -11.3788 C.ar    1  UNL1        0.0369
     14 C         -22.1576  -10.8446  -12.7728 C.ar    1  UNL1        0.0031
     15 O         -23.4956  -10.1291   -9.3642 O.3     1  UNL1       -0.4740
     16 C         -22.7460   -9.2349   -8.5454 C.3     1  UNL1        0.2226
     17 C         -22.7755   -7.8143   -9.1376 C.3     1  UNL1        0.1201
     18 N         -21.6496   -6.9424   -8.7287 N.3     1  UNL1       -0.2672
     19 C         -21.5732   -5.6881   -9.4927 C.3     1  UNL1        0.0898
     20 C         -20.3535   -7.6391   -8.7140 C.3     1  UNL1        0.0898
     21 C         -24.3489  -12.5747  -15.0667 C.ar    1  UNL1       -0.0040
     22 C         -23.7396  -13.7790  -14.6690 C.ar    1  UNL1       -0.0003
     23 C         -24.4903  -14.7767  -14.0408 C.ar    1  UNL1       -0.0000
     24 C         -25.8509  -14.5783  -13.7941 C.ar    1  UNL1       -0.0000
     25 C         -26.4620  -13.3801  -14.1718 C.ar    1  UNL1       -0.0000
     26 C         -25.7154  -12.3796  -14.8016 C.ar    1  UNL1       -0.0003
     27 C         -21.9557  -12.4607  -17.4559 C.3     1  UNL1        0.0050
     28 C         -23.2601  -11.7006  -17.2189 C.3     1  UNL1        0.0264
@<TRIPOS>BOND
     1    27    28    1
     2    28     1    1
     3     1     2    2
     4     2     3    1
     5     3     4   ar
     6     4     5   ar
     7     5     6   ar
     8     6     7   ar
     9     7     8   ar
    10     2     9    1
    11     9    10   ar
    12    10    11   ar
    13    11    12   ar
    14    12    15    1
    15    15    16    1
    16    16    17    1
    17    17    18    1
    18    18    19    1
    19    18    20    1
    20    12    13   ar
    21    13    14   ar
    22     1    21    1
    23    21    22   ar
    24    22    23   ar
    25    23    24   ar
    26    24    25   ar
    27    25    26   ar
    28     8     3   ar
    29    14     9   ar
    30    26    21   ar
@<TRIPOS>MOLECULE
*****
 28 30 0 0 0
SMALL
GASTEIGER

@<TRIPOS>ATOM
      1 C         -22.6988   -9.7706  -12.7351 C.2     1  UNL1       -0.0222
      2 C         -23.9572   -9.9327  -13.2351 C.2     1  UNL1       -0.0040
      3 C         -24.4462  -11.2457  -13.7167 C.ar    1  UNL1       -0.0003
      4 C         -24.6342  -11.4623  -15.0915 C.ar    1  UNL1       -0.0000
      5 C         -25.1327  -12.6857  -15.5492 C.ar    1  UNL1       -0.0000
      6 C         -25.4629  -13.6925  -14.6378 C.ar    1  UNL1       -0.0000
      7 C         -25.3021  -13.4748  -13.2666 C.ar    1  UNL1       -0.0000
      8 C         -24.8036  -12.2529  -12.8050 C.ar    1  UNL1       -0.0000
      9 C         -24.9022   -8.7922  -13.3562 C.ar    1  UNL1       -0.0001
     10 C         -24.5948   -7.6893  -14.1699 C.ar    1  UNL1        0.0031
     11 C         -25.4896   -6.6222  -14.2793 C.ar    1  UNL1        0.0369
     12 C         -26.7075   -6.6417  -13.5909 C.ar    1  UNL1        0.1386
     13 C         -27.0269   -7.7552  -12.7912 C.ar    1  UNL1        0.0369
     14 C         -26.1319   -8.8232  -12.6806 C.ar    1  UNL1        0.0031
     15 O         -27.5663   -5.5420  -13.7283 O.3     1  UNL1       -0.4740
     16 C         -27.9522   -4.9686  -14.9749 C.3     1  UNL1        0.2226
     17 C         -29.4865   -4.9090  -15.0848 C.3     1  UNL1        0.1201
     18 N         -30.0339   -3.5952  -15.4962 N.3     1  UNL1       -0.2672
     19 C         -31.3840   -3.3343  -14.9746 C.3     1  UNL1        0.0898
     20 C         -29.9694   -3.3703  -16.9490 C.3     1  UNL1        0.0898
     21 C         -22.2983   -8.5007  -12.0699 C.ar    1  UNL1       -0.0040
     22 C         -21.3790   -7.6345  -12.6897 C.ar    1  UNL1       -0.0003
     23 C         -20.9989   -6.4434  -12.0650 C.ar    1  UNL1       -0.0000
     24 C         -21.5397   -6.1004  -10.8236 C.ar    1  UNL1       -0.0000
     25 C         -22.4646   -6.9465  -10.2067 C.ar    1  UNL1       -0.0000
     26 C         -22.8469   -8.1398  -10.8271 C.ar    1  UNL1       -0.0003
     27 C         -21.1531  -11.2816  -11.4288 C.3     1  UNL1        0.0050
     28 C         -21.6534  -10.8699  -12.8129 C.3     1  UNL1        0.0264
@<TRIPOS>BOND
     1    27    28    1
     2    28     1    1
     3     1     2    2
     4     2     3    1
     5     3     4   ar
     6     4     5   ar
     7     5     6   ar
     8     6     7   ar
     9     7     8   ar
    10     2     9    1
    11     9    10   ar
    12    10    11   ar
    13    11    12   ar
    14    12    15    1
    15    15    16    1
    16    16    17    1
    17    17    18    1
    18    18    19    1
    19    18    20    1
    20    12    13   ar
    21    13    14   ar
    22     1    21    1
    23    21    22   ar
    24    22    23   ar
    25    23    24   ar
    26    24    25   ar
    27    25    26   ar
    28     8     3   ar
    29    14     9   ar
    30    26    21   ar
@<TRIPOS>MOLECULE
*****
 28 30 0 0 0
SMALL
GASTEIGER

@<TRIPOS>ATOM
      1 C         -24.2822   -9.6651  -12.7112 C.2     1  UNL1       -0.0222
      2 C         -23.0052   -9.2083  -12.8531 C.2     1  UNL1       -0.0040
      3 C         -22.3518   -9.1067  -14.1789 C.ar    1  UNL1       -0.0003
      4 C         -21.7795  -10.2462  -14.7675 C.ar    1  UNL1       -0.0000
      5 C         -21.1270  -10.1488  -16.0002 C.ar    1  UNL1       -0.0000
      6 C         -21.0264   -8.9122  -16.6436 C.ar    1  UNL1       -0.0000
      7 C         -21.5716   -7.7695  -16.0517 C.ar    1  UNL1       -0.0000
      8 C         -22.2251   -7.8628  -14.8192 C.ar    1  UNL1       -0.0000
      9 C         -22.1816   -8.8154  -11.6802 C.ar    1  UNL1       -0.0001
     10 C         -21.2778   -9.7221  -11.1023 C.ar    1  UNL1        0.0031
     11 C         -20.5063   -9.3440  -10.0008 C.ar    1  UNL1        0.0369
     12 C         -20.6136   -8.0557   -9.4659 C.ar    1  UNL1        0.1386
     13 C         -21.5035   -7.1385  -10.0562 C.ar    1  UNL1        0.0369
     14 C         -22.2763   -7.5162  -11.1579 C.ar    1  UNL1        0.0031
     15 O         -19.8229   -7.7293   -8.3551 O.3     1  UNL1       -0.4740
     16 C         -19.3639   -8.6682   -7.3858 C.3     1  UNL1        0.2226
     17 C         -18.8102   -7.9353   -6.1504 C.3     1  UNL1        0.1201
     18 N         -17.4618   -8.3699   -5.7170 N.3     1  UNL1       -0.2672
     19 C         -17.4657   -9.6427   -4.9803 C.3     1  UNL1        0.0898
     20 C         -16.7265   -7.3288   -4.9816 C.3     1  UNL1        0.0898
     21 C         -24.9887   -9.5661  -11.4048 C.ar    1  UNL1       -0.0040
     22 C         -24.7077  -10.4830  -10.3752 C.ar    1  UNL1       -0.0003
     23 C         -25.3727  -10.3940   -9.1490 C.ar    1  UNL1       -0.0000
     24 C         -26.3144   -9.3847   -8.9350 C.ar    1  UNL1       -0.0000
     25 C         -26.5898   -8.4603   -9.9458 C.ar    1  UNL1       -0.0000
     26 C         -25.9281   -8.5461  -11.1746 C.ar    1  UNL1       -0.0003
     27 C         -25.0226  -11.8049  -13.8300 C.3     1  UNL1        0.0050
     28 C         -25.0519  -10.2775  -13.8688 C.3     1  UNL1        0.0264
@<TRIPOS>BOND
     1    27    28    1
     2    28     1    1
     3     1     2    2
     4     2     3    1
     5     3     4   ar
     6     4     5   ar
     7     5     6   ar
     8     6     7   ar
     9     7     8   ar
    10     2     9    1
    11     9    10   ar
    12    10    11   ar
    13    11    12   ar
    14    12    15    1
    15    15    16    1
    16    16    17    1
    17    17    18    1
    18    18    19    1
    19    18    20    1
    20    12    13   ar
    21    13    14   ar
    22     1    21    1
    23    21    22   ar
    24    22    23   ar
    25    23    24   ar
    26    24    25   ar
    27    25    26   ar
    28     8     3   ar
    29    14     9   ar
    30    26    21   ar
@<TRIPOS>MOLECULE
*****
 28 30 0 0 0
SMALL
GASTEIGER

@<TRIPOS>ATOM
      1 C         -22.2631  -10.9951  -12.4631 C.2     1  UNL1       -0.0222
      2 C         -23.5148  -10.9262  -12.9999 C.2     1  UNL1       -0.0040
      3 C         -24.1404  -12.0835  -13.6812 C.ar    1  UNL1       -0.0003
      4 C         -23.9556  -12.2684  -15.0610 C.ar    1  UNL1       -0.0000
      5 C         -24.5754  -13.3363  -15.7169 C.ar    1  UNL1       -0.0000
      6 C         -25.3966  -14.2144  -15.0042 C.ar    1  UNL1       -0.0000
      7 C         -25.6052  -14.0216  -13.6357 C.ar    1  UNL1       -0.0000
      8 C         -24.9868  -12.9552  -12.9762 C.ar    1  UNL1       -0.0000
      9 C         -24.3130   -9.6733  -12.9611 C.ar    1  UNL1       -0.0001
     10 C         -24.1726   -8.7018  -13.9658 C.ar    1  UNL1        0.0031
     11 C         -24.9281   -7.5277  -13.9224 C.ar    1  UNL1        0.0369
     12 C         -25.8423   -7.3080  -12.8864 C.ar    1  UNL1        0.1386
     13 C         -25.9999   -8.2893  -11.8896 C.ar    1  UNL1        0.0369
     14 C         -25.2439   -9.4643  -11.9318 C.ar    1  UNL1        0.0031
     15 O         -26.5698   -6.1095  -12.8850 O.3     1  UNL1       -0.4740
     16 C         -26.5288   -5.1378  -13.9270 C.3     1  UNL1        0.2226
     17 C         -27.8332   -5.1730  -14.7438 C.3     1  UNL1        0.1201
     18 N         -27.7881   -4.4338  -16.0270 N.3     1  UNL1       -0.2672
     19 C         -26.5940   -3.5881  -16.1739 C.3     1  UNL1        0.0898
     20 C         -29.0183   -3.6742  -16.3011 C.3     1  UNL1        0.0898
     21 C         -21.7364   -9.8964  -11.6081 C.ar    1  UNL1       -0.0040
     22 C         -20.9683   -8.8627  -12.1747 C.ar    1  UNL1       -0.0003
     23 C         -20.4697   -7.8321  -11.3730 C.ar    1  UNL1       -0.0000
     24 C         -20.7416   -7.8170  -10.0029 C.ar    1  UNL1       -0.0000
     25 C         -21.5158   -8.8308   -9.4331 C.ar    1  UNL1       -0.0000
     26 C         -22.0156   -9.8647  -10.2308 C.ar    1  UNL1       -0.0003
     27 C         -20.3916  -12.4071  -11.5234 C.3     1  UNL1        0.0050
     28 C         -21.3537  -12.1905  -12.6908 C.3     1  UNL1        0.0264
@<TRIPOS>BOND
     1    27    28    1
     2    28     1    1
     3     1     2    2
     4     2     3    1
     5     3     4   ar
     6     4     5   ar
     7     5     6   ar
     8     6     7   ar
     9     7     8   ar
    10     2     9    1
    11     9    10   ar
    12    10    11   ar
    13    11    12   ar
    14    12    15    1
    15    15    16    1
    16    16    17    1
    17    17    18    1
    18    18    19    1
    19    18    20    1
    20    12    13   ar
    21    13    14   ar
    22     1    21    1
    23    21    22   ar
    24    22    23   ar
    25    23    24   ar
    26    24    25   ar
    27    25    26   ar
    28     8     3   ar
    29    14     9   ar
    30    26    21   ar
@<TRIPOS>MOLECULE
*****
 28 30 0 0 0
SMALL
GASTEIGER

@<TRIPOS>ATOM
      1 C         -21.7269  -10.1014  -12.4648 C.2     1  UNL1       -0.0222
      2 C         -22.1648  -10.3898  -13.7237 C.2     1  UNL1       -0.0040
      3 C         -22.3325  -11.7843  -14.1951 C.ar    1  UNL1       -0.0003
      4 C         -23.5986  -12.3907  -14.1536 C.ar    1  UNL1       -0.0000
      5 C         -23.7560  -13.7191  -14.5602 C.ar    1  UNL1       -0.0000
      6 C         -22.6494  -14.4548  -14.9931 C.ar    1  UNL1       -0.0000
      7 C         -21.3822  -13.8655  -15.0132 C.ar    1  UNL1       -0.0000
      8 C         -21.2208  -12.5373  -14.6077 C.ar    1  UNL1       -0.0000
      9 C         -22.4690   -9.3195  -14.7089 C.ar    1  UNL1       -0.0001
     10 C         -23.6669   -8.5904  -14.6289 C.ar    1  UNL1        0.0031
     11 C         -23.9441   -7.5849  -15.5582 C.ar    1  UNL1        0.0369
     12 C         -23.0294   -7.2819  -16.5725 C.ar    1  UNL1        0.1386
     13 C         -21.8189   -7.9971  -16.6422 C.ar    1  UNL1        0.0369
     14 C         -21.5410   -9.0039  -15.7132 C.ar    1  UNL1        0.0031
     15 O         -23.3595   -6.2695  -17.4844 O.3     1  UNL1       -0.4740
     16 C         -24.6734   -6.0248  -17.9799 C.3     1  UNL1        0.2226
     17 C         -25.1980   -4.6733  -17.4620 C.3     1  UNL1        0.1201
     18 N         -26.5738   -4.7048  -16.9132 N.3     1  UNL1       -0.2672
     19 C         -27.4124   -3.5869  -17.3711 C.3     1  UNL1        0.0898
     20 C         -26.6097   -4.8348  -15.4478 C.3     1  UNL1        0.0898
     21 C         -21.7616   -8.7074  -11.9440 C.ar    1  UNL1       -0.0040
     22 C         -20.8101   -7.7651  -12.3756 C.ar    1  UNL1       -0.0003
     23 C         -20.8387   -6.4567  -11.8850 C.ar    1  UNL1       -0.0000
     24 C         -21.8217   -6.0737  -10.9694 C.ar    1  UNL1       -0.0000
     25 C         -22.7800   -6.9979  -10.5459 C.ar    1  UNL1       -0.0000
     26 C         -22.7547   -8.3083  -11.0328 C.ar    1  UNL1       -0.0003
     27 C         -19.9899  -10.6966  -10.7306 C.3     1  UNL1        0.0050
     28 C         -21.2016  -11.1763  -11.5288 C.3     1  UNL1        0.0264
@<TRIPOS>BOND
     1    27    28    1
     2    28     1    1
     3     1     2    2
     4     2     3    1
     5     3     4   ar
     6     4     5   ar
     7     5     6   ar
     8     6     7   ar
     9     7     8   ar
    10     2     9    1
    11     9    10   ar
    12    10    11   ar
    13    11    12   ar
    14    12    15    1
    15    15    16    1
    16    16    17    1
    17    17    18    1
    18    18    19    1
    19    18    20    1
    20    12    13   ar
    21    13    14   ar
    22     1    21    1
    23    21    22   ar
    24    22    23   ar
    25    23    24   ar
    26    24    25   ar
    27    25    26   ar
    28     8     3   ar
    29    14     9   ar
    30    26    21   ar
@<TRIPOS>MOLECULE
*****
 28 30 0 0 0
SMALL
GASTEIGER

@<TRIPOS>ATOM
      1 C         -22.8544   -9.1810  -12.8199 C.2     1  UNL1       -0.0222
      2 C         -23.3856   -7.9808  -12.4498 C.2     1  UNL1       -0.0040
      3 C         -22.6576   -7.0404  -11.5663 C.ar    1  UNL1       -0.0003
      4 C         -22.6964   -7.2148  -10.1733 C.ar    1  UNL1       -0.0000
      5 C         -22.0441   -6.3082   -9.3323 C.ar    1  UNL1       -0.0000
      6 C         -21.3651   -5.2136   -9.8747 C.ar    1  UNL1       -0.0000
      7 C         -21.3435   -5.0198  -11.2587 C.ar    1  UNL1       -0.0000
      8 C         -21.9943   -5.9244  -12.1029 C.ar    1  UNL1       -0.0000
      9 C         -24.7423   -7.5595  -12.8861 C.ar    1  UNL1       -0.0001
     10 C         -24.9148   -6.7856  -14.0456 C.ar    1  UNL1        0.0031
     11 C         -26.1939   -6.3954  -14.4494 C.ar    1  UNL1        0.0369
     12 C         -27.3201   -6.7788  -13.7133 C.ar    1  UNL1        0.1386
     13 C         -27.1515   -7.5718  -12.5625 C.ar    1  UNL1        0.0369
     14 C         -25.8720   -7.9622  -12.1573 C.ar    1  UNL1        0.0031
     15 O         -28.5804   -6.3539  -14.1570 O.3     1  UNL1       -0.4740
     16 C         -28.8125   -5.1731  -14.9209 C.3     1  UNL1        0.2226
     17 C         -30.3226   -4.9580  -15.1288 C.3     1  UNL1        0.1201
     18 N         -30.7579   -3.5419  -15.1359 N.3     1  UNL1       -0.2672
     19 C         -32.1023   -3.3399  -14.5752 C.3     1  UNL1        0.0898
     20 C         -30.6272   -2.9026  -16.4550 C.3     1  UNL1        0.0898
     21 C         -23.5064  -10.0155  -13.8660 C.ar    1  UNL1       -0.0040
     22 C         -23.0700   -9.9472  -15.2018 C.ar    1  UNL1       -0.0003
     23 C         -23.6833  -10.7272  -16.1862 C.ar    1  UNL1       -0.0000
     24 C         -24.7283  -11.5894  -15.8458 C.ar    1  UNL1       -0.0000
     25 C         -25.1592  -11.6755  -14.5196 C.ar    1  UNL1       -0.0000
     26 C         -24.5497  -10.8961  -13.5316 C.ar    1  UNL1       -0.0003
     27 C         -21.8533  -10.7679  -11.1293 C.3     1  UNL1        0.0050
     28 C         -21.5738   -9.7190  -12.2050 C.3     1  UNL1        0.0264
@<TRIPOS>BOND
     1    27    28    1
     2    28     1    1
     3     1     2    2
     4     2     3    1
     5     3     4   ar
     6     4     5   ar
     7     5     6   ar
     8     6     7   ar
     9     7     8   ar
    10     2     9    1
    11     9    10   ar
    12    10    11   ar
    13    11    12   ar
    14    12    15    1
    15    15    16    1
    16    16    17    1
    17    17    18    1
    18    18    19    1
    19    18    20    1
    20    12    13   ar
    21    13    14   ar
    22     1    21    1
    23    21    22   ar
    24    22    23   ar
    25    23    24   ar
    26    24    25   ar
    27    25    26   ar
    28     8     3   ar
    29    14     9   ar
    30    26    21   ar
@<TRIPOS>MOLECULE
*****
 28 30 0 0 0
SMALL
GASTEIGER

@<TRIPOS>ATOM
      1 C         -24.2322  -11.1566  -13.1441 C.2     1  UNL1       -0.0222
      2 C         -22.8956  -11.2407  -13.4009 C.2     1  UNL1       -0.0040
      3 C         -22.3704  -11.9235  -14.6063 C.ar    1  UNL1       -0.0003
      4 C         -22.3825  -11.2645  -15.8464 C.ar    1  UNL1       -0.0000
      5 C         -21.9247  -11.9177  -16.9947 C.ar    1  UNL1       -0.0000
      6 C         -21.4693  -13.2367  -16.9155 C.ar    1  UNL1       -0.0000
      7 C         -21.4779  -13.9071  -15.6892 C.ar    1  UNL1       -0.0000
      8 C         -21.9347  -13.2572  -14.5387 C.ar    1  UNL1       -0.0000
      9 C         -21.8844  -10.6790  -12.4679 C.ar    1  UNL1       -0.0001
     10 C         -21.2042  -11.5098  -11.5624 C.ar    1  UNL1        0.0031
     11 C         -20.2540  -10.9738  -10.6900 C.ar    1  UNL1        0.0369
     12 C         -19.9579   -9.6066  -10.7136 C.ar    1  UNL1        0.1386
     13 C         -20.6233   -8.7753  -11.6344 C.ar    1  UNL1        0.0369
     14 C         -21.5747   -9.3107  -12.5073 C.ar    1  UNL1        0.0031
     15 O         -19.0023   -9.1179   -9.8117 O.3     1  UNL1       -0.4740
     16 C         -18.8599   -9.5627   -8.4649 C.3     1  UNL1        0.2226
     17 C         -19.4094   -8.5051   -7.4907 C.3     1  UNL1        0.1201
     18 N         -18.9166   -8.6208   -6.0983 N.3     1  UNL1       -0.2672
     19 C         -19.9935   -8.7462   -5.1047 C.3     1  UNL1        0.0898
     20 C         -17.9697   -7.5566   -5.7290 C.3     1  UNL1        0.0898
     21 C         -24.7467  -10.2948  -12.0449 C.ar    1  UNL1       -0.0040
     22 C         -25.3532   -9.0593  -12.3368 C.ar    1  UNL1       -0.0003
     23 C         -25.8336   -8.2470  -11.3059 C.ar    1  UNL1       -0.0000
     24 C         -25.7238   -8.6638   -9.9771 C.ar    1  UNL1       -0.0000
     25 C         -25.1366   -9.8957   -9.6777 C.ar    1  UNL1       -0.0000
     26 C         -24.6533  -10.7112  -10.7055 C.ar    1  UNL1       -0.0003
     27 C         -25.4781  -13.3335  -13.4405 C.3     1  UNL1        0.0050
     28 C         -25.2597  -11.9153  -13.9664 C.3     1  UNL1        0.0264
@<TRIPOS>BOND
     1    27    28    1
     2    28     1    1
     3     1     2    2
     4     2     3    1
     5     3     4   ar
     6     4     5   ar
     7     5     6   ar
     8     6     7   ar
     9     7     8   ar
    10     2     9    1
    11     9    10   ar
    12    10    11   ar
    13    11    12   ar
    14    12    15    1
    15    15    16    1
    16    16    17    1
    17    17    18    1
    18    18    19    1
    19    18    20    1
    20    12    13   ar
    21    13    14   ar
    22     1    21    1
    23    21    22   ar
    24    22    23   ar
    25    23    24   ar
    26    24    25   ar
    27    25    26   ar
    28     8     3   ar
    29    14     9   ar
    30    26    21   ar
