@<TRIPOS>MOLECULE
*****
 35 38 0 0 0
SMALL
GASTEIGER

@<TRIPOS>ATOM
      1 C         -24.1297  -14.1319  -15.1110 C.ar    1  UNL1        0.1718
      2 C         -24.9019  -13.5119  -14.1139 C.ar    1  UNL1        0.0400
      3 C         -24.5616  -12.2469  -13.6390 C.ar    1  UNL1        0.0030
      4 C         -23.4429  -11.5701  -14.1447 C.ar    1  UNL1       -0.0015
      5 C         -22.6367  -12.1968  -15.1258 C.ar    1  UNL1        0.0145
      6 C         -22.9963  -13.4697  -15.6183 C.ar    1  UNL1        0.1636
      7 O         -22.2204  -14.0705  -16.6126 O.3     1  UNL1       -0.5031
      8 C         -21.3958  -11.4926  -15.6328 C.3     1  UNL1        0.0299
      9 C         -21.7373  -10.2848  -16.5208 C.3     1  UNL1        0.0091
     10 C         -22.8965   -9.4155  -15.9993 C.3     1  UNL1        0.0227
     11 C         -22.8292   -9.1829  -14.4993 C.2     1  UNL1       -0.0398
     12 C         -23.1265  -10.2010  -13.6427 C.2     1  UNL1       -0.0076
     13 H         -22.4388  -14.9815  -16.9973 H       1  UNL1        0.2923
     14 C         -23.0746  -10.0234  -12.1765 C.ar    1  UNL1        0.0056
     15 C         -21.8554  -10.0994  -11.4989 C.ar    1  UNL1        0.0402
     16 C         -21.7961   -9.9450  -10.1009 C.ar    1  UNL1        0.1754
     17 C         -22.9942   -9.6932   -9.3814 C.ar    1  UNL1        0.2061
     18 C         -24.2156   -9.6026  -10.0717 C.ar    1  UNL1        0.1754
     19 C         -24.2486   -9.7668  -11.4670 C.ar    1  UNL1        0.0402
     20 O         -20.5719  -10.0377   -9.4201 O.3     1  UNL1       -0.4683
     21 C         -19.3508   -9.4448   -9.8513 C.3     1  UNL1        0.2526
     22 O         -23.0449   -9.5223   -7.9843 O.3     1  UNL1       -0.4654
     23 C         -22.3327   -8.5550   -7.2211 C.3     1  UNL1        0.2528
     24 O         -25.3806   -9.3482   -9.3294 O.3     1  UNL1       -0.4683
     25 C         -26.4972   -8.6043   -9.8066 C.3     1  UNL1        0.2526
     26 C         -25.2466  -15.6275  -16.7807 C.3     1  UNL1        0.2526
     27 O         -24.4568  -15.4002  -15.6179 O.3     1  UNL1       -0.4684
     28 C         -22.3585   -7.8198  -14.0119 C.3     1  UNL1        0.0480
     29 C         -23.4813   -7.0317  -13.3674 C.ar    1  UNL1       -0.0221
     30 C         -24.7489   -7.0608  -13.9763 C.ar    1  UNL1       -0.0043
     31 C         -25.8190   -6.3494  -13.4335 C.ar    1  UNL1       -0.0003
     32 C         -25.6423   -5.5999  -12.2726 C.ar    1  UNL1       -0.0003
     33 C         -24.3947   -5.5599  -11.6487 C.ar    1  UNL1       -0.0046
     34 C         -23.3020   -6.2673  -12.1823 C.ar    1  UNL1       -0.0255
     35 C         -21.9786   -6.2069  -11.4640 C.3     1  UNL1        0.0307
@<TRIPOS>BOND
     1    26    27    1
     2    27     1    1
     3     1     2   ar
     4     2     3   ar
     5     3     4   ar
     6     4     5   ar
     7     5     6   ar
     8     6     7    1
     9     5     8    1
    10     8     9    1
    11     9    10    1
    12    10    11    1
    13    11    28    1
    14    28    29    1
    15    29    30   ar
    16    30    31   ar
    17    31    32   ar
    18    32    33   ar
    19    33    34   ar
    20    34    35    1
    21    11    12    2
    22    12    14    1
    23    14    15   ar
    24    15    16   ar
    25    16    20    1
    26    20    21    1
    27    16    17   ar
    28    17    22    1
    29    22    23    1
    30    17    18   ar
    31    18    24    1
    32    24    25    1
    33    18    19   ar
    34     6     1   ar
    35    34    29   ar
    36    19    14   ar
    37    12     4    1
    38     7    13    1
@<TRIPOS>MOLECULE
*****
 35 38 0 0 0
SMALL
GASTEIGER

@<TRIPOS>ATOM
      1 C         -21.3695   -8.0829   -8.6635 C.ar    1  UNL1        0.1718
      2 C         -20.9099   -7.8059   -9.9624 C.ar    1  UNL1        0.0400
      3 C         -21.7333   -8.0212  -11.0657 C.ar    1  UNL1        0.0030
      4 C         -23.0334   -8.5193  -10.9017 C.ar    1  UNL1       -0.0015
      5 C         -23.4977   -8.8341   -9.6015 C.ar    1  UNL1        0.0145
      6 C         -22.6677   -8.5958   -8.4851 C.ar    1  UNL1        0.1636
      7 O         -23.1412   -8.8726   -7.2002 O.3     1  UNL1       -0.5031
      8 C         -24.8806   -9.4256   -9.4260 C.3     1  UNL1        0.0299
      9 C         -25.9897   -8.3957   -9.6966 C.3     1  UNL1        0.0091
     10 C         -25.7413   -7.4958  -10.9213 C.3     1  UNL1        0.0227
     11 C         -25.1936   -8.2622  -12.1135 C.2     1  UNL1       -0.0398
     12 C         -23.9037   -8.7035  -12.0996 C.2     1  UNL1       -0.0076
     13 H         -22.5832   -8.7177   -6.3694 H       1  UNL1        0.2923
     14 C         -23.3264   -9.4533  -13.2348 C.ar    1  UNL1        0.0056
     15 C         -22.7801   -8.7728  -14.3256 C.ar    1  UNL1        0.0402
     16 C         -22.2397   -9.4770  -15.4182 C.ar    1  UNL1        0.1754
     17 C         -22.2402  -10.8969  -15.3945 C.ar    1  UNL1        0.2061
     18 C         -22.7776  -11.5751  -14.2865 C.ar    1  UNL1        0.1754
     19 C         -23.3168  -10.8486  -13.2111 C.ar    1  UNL1        0.0402
     20 O         -21.7056   -8.7912  -16.5205 O.3     1  UNL1       -0.4683
     21 C         -20.4396   -8.1390  -16.5413 C.3     1  UNL1        0.2526
     22 O         -21.7240  -11.6954  -16.4334 O.3     1  UNL1       -0.4654
     23 C         -22.3656  -12.0038  -17.6658 C.3     1  UNL1        0.2528
     24 O         -22.7579  -12.9795  -14.2940 O.3     1  UNL1       -0.4683
     25 C         -23.8816  -13.8024  -14.5909 C.3     1  UNL1        0.2526
     26 C         -19.3291   -8.5201   -7.2786 C.3     1  UNL1        0.2526
     27 O         -20.5665   -7.8628   -7.5325 O.3     1  UNL1       -0.4684
     28 C         -26.1464   -8.5675  -13.2607 C.3     1  UNL1        0.0480
     29 C         -26.6840   -7.3028  -13.9003 C.ar    1  UNL1       -0.0221
     30 C         -25.7861   -6.4798  -14.6036 C.ar    1  UNL1       -0.0043
     31 C         -26.2209   -5.2996  -15.2069 C.ar    1  UNL1       -0.0003
     32 C         -27.5594   -4.9233  -15.1208 C.ar    1  UNL1       -0.0003
     33 C         -28.4692   -5.7265  -14.4319 C.ar    1  UNL1       -0.0046
     34 C         -28.0499   -6.9185  -13.8136 C.ar    1  UNL1       -0.0255
     35 C         -29.0722   -7.7611  -13.0953 C.3     1  UNL1        0.0307
@<TRIPOS>BOND
     1    26    27    1
     2    27     1    1
     3     1     2   ar
     4     2     3   ar
     5     3     4   ar
     6     4     5   ar
     7     5     6   ar
     8     6     7    1
     9     5     8    1
    10     8     9    1
    11     9    10    1
    12    10    11    1
    13    11    28    1
    14    28    29    1
    15    29    30   ar
    16    30    31   ar
    17    31    32   ar
    18    32    33   ar
    19    33    34   ar
    20    34    35    1
    21    11    12    2
    22    12    14    1
    23    14    15   ar
    24    15    16   ar
    25    16    20    1
    26    20    21    1
    27    16    17   ar
    28    17    22    1
    29    22    23    1
    30    17    18   ar
    31    18    24    1
    32    24    25    1
    33    18    19   ar
    34     6     1   ar
    35    34    29   ar
    36    19    14   ar
    37    12     4    1
    38     7    13    1
@<TRIPOS>MOLECULE
*****
 35 38 0 0 0
SMALL
GASTEIGER

@<TRIPOS>ATOM
      1 C         -24.0996  -14.1567  -15.1850 C.ar    1  UNL1        0.1718
      2 C         -24.9001  -13.5515  -14.2012 C.ar    1  UNL1        0.0400
      3 C         -24.5825  -12.2872  -13.7091 C.ar    1  UNL1        0.0030
      4 C         -23.4589  -11.5963  -14.1839 C.ar    1  UNL1       -0.0015
      5 C         -22.6247  -12.2081  -15.1509 C.ar    1  UNL1        0.0145
      6 C         -22.9611  -13.4803  -15.6612 C.ar    1  UNL1        0.1636
      7 O         -22.1571  -14.0663  -16.6420 O.3     1  UNL1       -0.5031
      8 C         -21.3791  -11.4887  -15.6240 C.3     1  UNL1        0.0299
      9 C         -21.7114  -10.2772  -16.5105 C.3     1  UNL1        0.0091
     10 C         -22.8901   -9.4225  -16.0091 C.3     1  UNL1        0.0227
     11 C         -22.8593   -9.2010  -14.5063 C.2     1  UNL1       -0.0398
     12 C         -23.1667  -10.2284  -13.6645 C.2     1  UNL1       -0.0076
     13 H         -22.3583  -14.9763  -17.0384 H       1  UNL1        0.2923
     14 C         -23.1499  -10.0617  -12.1961 C.ar    1  UNL1        0.0056
     15 C         -24.3405   -9.8544  -11.4955 C.ar    1  UNL1        0.0402
     16 C         -24.3348   -9.6811  -10.0985 C.ar    1  UNL1        0.1754
     17 C         -23.0996   -9.7354   -9.3998 C.ar    1  UNL1        0.2061
     18 C         -21.9069   -9.9599  -10.1095 C.ar    1  UNL1        0.1754
     19 C         -21.9392  -10.1236  -11.5049 C.ar    1  UNL1        0.0402
     20 O         -25.5307   -9.4569   -9.3983 O.3     1  UNL1       -0.4683
     21 C         -26.5610   -8.5626   -9.8073 C.3     1  UNL1        0.2526
     22 O         -22.9836   -9.5763   -8.0053 O.3     1  UNL1       -0.4654
     23 C         -22.4363   -8.4544   -7.3217 C.3     1  UNL1        0.2528
     24 O         -20.7039  -10.0121   -9.3866 O.3     1  UNL1       -0.4683
     25 C         -19.4474   -9.5507   -9.8730 C.3     1  UNL1        0.2526
     26 C         -25.2410  -15.6532  -16.8373 C.3     1  UNL1        0.2526
     27 O         -24.4033  -15.4239  -15.7089 O.3     1  UNL1       -0.4684
     28 C         -22.4125   -7.8375  -13.9979 C.3     1  UNL1        0.0480
     29 C         -23.5580   -7.0629  -13.3772 C.ar    1  UNL1       -0.0221
     30 C         -24.8086   -7.0961  -14.0199 C.ar    1  UNL1       -0.0043
     31 C         -25.8981   -6.3970  -13.5001 C.ar    1  UNL1       -0.0003
     32 C         -25.7579   -5.6560  -12.3288 C.ar    1  UNL1       -0.0003
     33 C         -24.5277   -5.6122  -11.6716 C.ar    1  UNL1       -0.0046
     34 C         -23.4160   -6.3072  -12.1816 C.ar    1  UNL1       -0.0255
     35 C         -22.1127   -6.2432  -11.4277 C.3     1  UNL1        0.0307
@<TRIPOS>BOND
     1    26    27    1
     2    27     1    1
     3     1     2   ar
     4     2     3   ar
     5     3     4   ar
     6     4     5   ar
     7     5     6   ar
     8     6     7    1
     9     5     8    1
    10     8     9    1
    11     9    10    1
    12    10    11    1
    13    11    28    1
    14    28    29    1
    15    29    30   ar
    16    30    31   ar
    17    31    32   ar
    18    32    33   ar
    19    33    34   ar
    20    34    35    1
    21    11    12    2
    22    12    14    1
    23    14    15   ar
    24    15    16   ar
    25    16    20    1
    26    20    21    1
    27    16    17   ar
    28    17    22    1
    29    22    23    1
    30    17    18   ar
    31    18    24    1
    32    24    25    1
    33    18    19   ar
    34     6     1   ar
    35    34    29   ar
    36    19    14   ar
    37    12     4    1
    38     7    13    1
@<TRIPOS>MOLECULE
*****
 35 38 0 0 0
SMALL
GASTEIGER

@<TRIPOS>ATOM
      1 C         -21.1356   -7.6481  -10.2883 C.ar    1  UNL1        0.1718
      2 C         -22.3366   -6.9249  -10.3846 C.ar    1  UNL1        0.0400
      3 C         -23.3196   -7.3029  -11.2970 C.ar    1  UNL1        0.0030
      4 C         -23.1288   -8.4092  -12.1367 C.ar    1  UNL1       -0.0015
      5 C         -21.9098   -9.1270  -12.0737 C.ar    1  UNL1        0.0145
      6 C         -20.9251   -8.7529  -11.1343 C.ar    1  UNL1        0.1636
      7 O         -19.7383   -9.4850  -11.0485 O.3     1  UNL1       -0.5031
      8 C         -21.6776  -10.2873  -13.0184 C.3     1  UNL1        0.0299
      9 C         -22.5455  -11.5058  -12.6637 C.3     1  UNL1        0.0091
     10 C         -23.9986  -11.1664  -12.2832 C.3     1  UNL1        0.0227
     11 C         -24.6126  -10.1109  -13.1873 C.2     1  UNL1       -0.0398
     12 C         -24.2156   -8.8113  -13.0766 C.2     1  UNL1       -0.0076
     13 H         -19.0035   -9.2552  -10.3904 H       1  UNL1        0.2923
     14 C         -24.7832   -7.7495  -13.9338 C.ar    1  UNL1        0.0056
     15 C         -24.1527   -7.3945  -15.1287 C.ar    1  UNL1        0.0402
     16 C         -24.6772   -6.3755  -15.9461 C.ar    1  UNL1        0.1754
     17 C         -25.8716   -5.7172  -15.5503 C.ar    1  UNL1        0.2061
     18 C         -26.5093   -6.0904  -14.3542 C.ar    1  UNL1        0.1754
     19 C         -25.9618   -7.1066  -13.5528 C.ar    1  UNL1        0.0402
     20 O         -24.0332   -6.0093  -17.1386 O.3     1  UNL1       -0.4683
     21 C         -24.6031   -6.1132  -18.4397 C.3     1  UNL1        0.2526
     22 O         -26.4793   -4.6876  -16.2948 O.3     1  UNL1       -0.4654
     23 C         -26.2655   -3.2891  -16.1408 C.3     1  UNL1        0.2528
     24 O         -27.6912   -5.4216  -13.9953 O.3     1  UNL1       -0.4683
     25 C         -28.9908   -5.7695  -14.4620 C.3     1  UNL1        0.2526
     26 C         -19.9467   -7.9185   -8.1007 C.3     1  UNL1        0.2526
     27 O         -20.1334   -7.2982   -9.3688 O.3     1  UNL1       -0.4684
     28 C         -25.6107  -10.5707  -14.2406 C.3     1  UNL1        0.0480
     29 C         -25.2625  -11.9401  -14.7891 C.ar    1  UNL1       -0.0221
     30 C         -25.8920  -13.0631  -14.2226 C.ar    1  UNL1       -0.0043
     31 C         -25.6063  -14.3494  -14.6805 C.ar    1  UNL1       -0.0003
     32 C         -24.6902  -14.5356  -15.7133 C.ar    1  UNL1       -0.0003
     33 C         -24.0568  -13.4359  -16.2936 C.ar    1  UNL1       -0.0046
     34 C         -24.3284  -12.1309  -15.8436 C.ar    1  UNL1       -0.0255
     35 C         -23.6322  -10.9738  -16.5124 C.3     1  UNL1        0.0307
@<TRIPOS>BOND
     1    26    27    1
     2    27     1    1
     3     1     2   ar
     4     2     3   ar
     5     3     4   ar
     6     4     5   ar
     7     5     6   ar
     8     6     7    1
     9     5     8    1
    10     8     9    1
    11     9    10    1
    12    10    11    1
    13    11    28    1
    14    28    29    1
    15    29    30   ar
    16    30    31   ar
    17    31    32   ar
    18    32    33   ar
    19    33    34   ar
    20    34    35    1
    21    11    12    2
    22    12    14    1
    23    14    15   ar
    24    15    16   ar
    25    16    20    1
    26    20    21    1
    27    16    17   ar
    28    17    22    1
    29    22    23    1
    30    17    18   ar
    31    18    24    1
    32    24    25    1
    33    18    19   ar
    34     6     1   ar
    35    34    29   ar
    36    19    14   ar
    37    12     4    1
    38     7    13    1
@<TRIPOS>MOLECULE
*****
 35 38 0 0 0
SMALL
GASTEIGER

@<TRIPOS>ATOM
      1 C         -21.1245   -7.6692  -10.2543 C.ar    1  UNL1        0.1718
      2 C         -22.3233   -6.9422  -10.3502 C.ar    1  UNL1        0.0400
      3 C         -23.3055   -7.3139  -11.2661 C.ar    1  UNL1        0.0030
      4 C         -23.1161   -8.4175  -12.1096 C.ar    1  UNL1       -0.0015
      5 C         -21.8992   -9.1389  -12.0469 C.ar    1  UNL1        0.0145
      6 C         -20.9154   -8.7713  -11.1041 C.ar    1  UNL1        0.1636
      7 O         -19.7308   -9.5070  -11.0187 O.3     1  UNL1       -0.5031
      8 C         -21.6683  -10.2962  -12.9957 C.3     1  UNL1        0.0299
      9 C         -22.5404  -11.5136  -12.6474 C.3     1  UNL1        0.0091
     10 C         -23.9933  -11.1717  -12.2686 C.3     1  UNL1        0.0227
     11 C         -24.6025  -10.1109  -13.1698 C.2     1  UNL1       -0.0398
     12 C         -24.2021   -8.8129  -13.0533 C.2     1  UNL1       -0.0076
     13 H         -18.9967   -9.2819  -10.3582 H       1  UNL1        0.2923
     14 C         -24.7649   -7.7462  -13.9076 C.ar    1  UNL1        0.0056
     15 C         -25.9301   -7.0770  -13.5257 C.ar    1  UNL1        0.0402
     16 C         -26.4822   -6.0687  -14.3382 C.ar    1  UNL1        0.1754
     17 C         -25.8301   -5.7237  -15.5516 C.ar    1  UNL1        0.2061
     18 C         -24.6492   -6.3906  -15.9220 C.ar    1  UNL1        0.1754
     19 C         -24.1219   -7.3980  -15.0962 C.ar    1  UNL1        0.0402
     20 O         -27.6621   -5.4086  -13.9603 O.3     1  UNL1       -0.4683
     21 C         -28.9528   -5.6677  -14.5039 C.3     1  UNL1        0.2526
     22 O         -26.2973   -4.7307  -16.4343 O.3     1  UNL1       -0.4654
     23 C         -26.3278   -3.3281  -16.1946 C.3     1  UNL1        0.2528
     24 O         -24.0279   -6.0212  -17.1263 O.3     1  UNL1       -0.4683
     25 C         -24.5362   -6.3186  -18.4229 C.3     1  UNL1        0.2526
     26 C         -19.9308   -7.9623   -8.0722 C.3     1  UNL1        0.2526
     27 O         -20.1232   -7.3257   -9.3313 O.3     1  UNL1       -0.4684
     28 C         -25.5997  -10.5638  -14.2270 C.3     1  UNL1        0.0480
     29 C         -25.2518  -11.9301  -14.7833 C.ar    1  UNL1       -0.0221
     30 C         -25.8771  -13.0567  -14.2192 C.ar    1  UNL1       -0.0043
     31 C         -25.5914  -14.3404  -14.6843 C.ar    1  UNL1       -0.0003
     32 C         -24.6794  -14.5204  -15.7218 C.ar    1  UNL1       -0.0003
     33 C         -24.0502  -13.4171  -16.2997 C.ar    1  UNL1       -0.0046
     34 C         -24.3219  -12.1147  -15.8425 C.ar    1  UNL1       -0.0255
     35 C         -23.6303  -10.9534  -16.5089 C.3     1  UNL1        0.0307
@<TRIPOS>BOND
     1    26    27    1
     2    27     1    1
     3     1     2   ar
     4     2     3   ar
     5     3     4   ar
     6     4     5   ar
     7     5     6   ar
     8     6     7    1
     9     5     8    1
    10     8     9    1
    11     9    10    1
    12    10    11    1
    13    11    28    1
    14    28    29    1
    15    29    30   ar
    16    30    31   ar
    17    31    32   ar
    18    32    33   ar
    19    33    34   ar
    20    34    35    1
    21    11    12    2
    22    12    14    1
    23    14    15   ar
    24    15    16   ar
    25    16    20    1
    26    20    21    1
    27    16    17   ar
    28    17    22    1
    29    22    23    1
    30    17    18   ar
    31    18    24    1
    32    24    25    1
    33    18    19   ar
    34     6     1   ar
    35    34    29   ar
    36    19    14   ar
    37    12     4    1
    38     7    13    1
@<TRIPOS>MOLECULE
*****
 35 38 0 0 0
SMALL
GASTEIGER

@<TRIPOS>ATOM
      1 C         -23.8713   -6.8905  -18.0865 C.ar    1  UNL1        0.1718
      2 C         -23.5564   -6.4026  -16.8068 C.ar    1  UNL1        0.0400
      3 C         -23.2845   -7.2822  -15.7608 C.ar    1  UNL1        0.0030
      4 C         -23.3218   -8.6687  -15.9642 C.ar    1  UNL1       -0.0015
      5 C         -23.6702   -9.1745  -17.2401 C.ar    1  UNL1        0.0145
      6 C         -23.9253   -8.2801  -18.3017 C.ar    1  UNL1        0.1636
      7 O         -24.2329   -8.7814  -19.5689 O.3     1  UNL1       -0.5031
      8 C         -23.7669  -10.6712  -17.4484 C.3     1  UNL1        0.0299
      9 C         -22.3869  -11.3489  -17.4304 C.3     1  UNL1        0.0091
     10 C         -21.4363  -10.8342  -16.3336 C.3     1  UNL1        0.0227
     11 C         -22.1328  -10.6321  -14.9984 C.2     1  UNL1       -0.0398
     12 C         -22.9890   -9.5840  -14.8337 C.2     1  UNL1       -0.0076
     13 H         -24.4228   -8.1795  -20.3610 H       1  UNL1        0.2923
     14 C         -23.6900   -9.3466  -13.5545 C.ar    1  UNL1        0.0056
     15 C         -23.0003   -9.4410  -12.3434 C.ar    1  UNL1        0.0402
     16 C         -23.6611   -9.2301  -11.1184 C.ar    1  UNL1        0.1754
     17 C         -25.0428   -8.9019  -11.1254 C.ar    1  UNL1        0.2061
     18 C         -25.7270   -8.7933  -12.3488 C.ar    1  UNL1        0.1754
     19 C         -25.0456   -9.0150  -13.5577 C.ar    1  UNL1        0.0402
     20 O         -22.9698   -9.3411   -9.9017 O.3     1  UNL1       -0.4683
     21 C         -22.4353   -8.2467   -9.1634 C.3     1  UNL1        0.2526
     22 O         -25.7963   -8.6702   -9.9584 O.3     1  UNL1       -0.4654
     23 C         -26.3291   -9.6571   -9.0822 C.3     1  UNL1        0.2528
     24 O         -27.0918   -8.4630  -12.3192 O.3     1  UNL1       -0.4683
     25 C         -27.7267   -7.5665  -13.2255 C.3     1  UNL1        0.2526
     26 C         -25.4161   -5.4812  -19.4648 C.3     1  UNL1        0.2526
     27 O         -24.1364   -6.0274  -19.1623 O.3     1  UNL1       -0.4684
     28 C         -21.8918  -11.6660  -13.9075 C.3     1  UNL1        0.0480
     29 C         -22.3781  -13.0422  -14.3161 C.ar    1  UNL1       -0.0221
     30 C         -21.4564  -13.9246  -14.9078 C.ar    1  UNL1       -0.0043
     31 C         -21.8473  -15.2014  -15.3114 C.ar    1  UNL1       -0.0003
     32 C         -23.1634  -15.6194  -15.1281 C.ar    1  UNL1       -0.0003
     33 C         -24.0941  -14.7626  -14.5391 C.ar    1  UNL1       -0.0046
     34 C         -23.7208  -13.4698  -14.1286 C.ar    1  UNL1       -0.0255
     35 C         -24.7569  -12.5868  -13.4823 C.3     1  UNL1        0.0307
@<TRIPOS>BOND
     1    26    27    1
     2    27     1    1
     3     1     2   ar
     4     2     3   ar
     5     3     4   ar
     6     4     5   ar
     7     5     6   ar
     8     6     7    1
     9     5     8    1
    10     8     9    1
    11     9    10    1
    12    10    11    1
    13    11    28    1
    14    28    29    1
    15    29    30   ar
    16    30    31   ar
    17    31    32   ar
    18    32    33   ar
    19    33    34   ar
    20    34    35    1
    21    11    12    2
    22    12    14    1
    23    14    15   ar
    24    15    16   ar
    25    16    20    1
    26    20    21    1
    27    16    17   ar
    28    17    22    1
    29    22    23    1
    30    17    18   ar
    31    18    24    1
    32    24    25    1
    33    18    19   ar
    34     6     1   ar
    35    34    29   ar
    36    19    14   ar
    37    12     4    1
    38     7    13    1
@<TRIPOS>MOLECULE
*****
 35 38 0 0 0
SMALL
GASTEIGER

@<TRIPOS>ATOM
      1 C         -24.3368  -13.9572  -15.3948 C.ar    1  UNL1        0.1718
      2 C         -25.4978  -13.2075  -15.1401 C.ar    1  UNL1        0.0400
      3 C         -25.4077  -11.8712  -14.7557 C.ar    1  UNL1        0.0030
      4 C         -24.1588  -11.2504  -14.6139 C.ar    1  UNL1       -0.0015
      5 C         -22.9798  -12.0030  -14.8350 C.ar    1  UNL1        0.0145
      6 C         -23.0760  -13.3505  -15.2435 C.ar    1  UNL1        0.1636
      7 O         -21.9123  -14.0807  -15.4967 O.3     1  UNL1       -0.5031
      8 C         -21.6288  -11.3514  -14.6275 C.3     1  UNL1        0.0299
      9 C         -21.3104  -10.3177  -15.7202 C.3     1  UNL1        0.0091
     10 C         -22.4944   -9.4129  -16.1086 C.3     1  UNL1        0.0227
     11 C         -23.2896   -8.9350  -14.9054 C.2     1  UNL1       -0.0398
     12 C         -24.0965   -9.8079  -14.2376 C.2     1  UNL1       -0.0076
     13 H         -21.9309  -15.0493  -15.7923 H       1  UNL1        0.2923
     14 C         -24.8885   -9.3902  -13.0617 C.ar    1  UNL1        0.0056
     15 C         -26.0965   -8.7093  -13.2300 C.ar    1  UNL1        0.0402
     16 C         -26.8523   -8.2951  -12.1169 C.ar    1  UNL1        0.1754
     17 C         -26.3801   -8.5922  -10.8109 C.ar    1  UNL1        0.2061
     18 C         -25.1712   -9.2915  -10.6494 C.ar    1  UNL1        0.1754
     19 C         -24.4323   -9.6883  -11.7770 C.ar    1  UNL1        0.0402
     20 O         -28.0581   -7.5969  -12.2880 O.3     1  UNL1       -0.4683
     21 C         -28.6133   -7.2217  -13.5448 C.3     1  UNL1        0.2526
     22 O         -27.0589   -8.2250   -9.6328 O.3     1  UNL1       -0.4654
     23 C         -27.5345   -6.9264   -9.2969 C.3     1  UNL1        0.2528
     24 O         -24.7360   -9.5724   -9.3439 O.3     1  UNL1       -0.4683
     25 C         -23.3709   -9.6464   -8.9448 C.3     1  UNL1        0.2526
     26 C         -25.0302  -15.7621  -16.9866 C.3     1  UNL1        0.2526
     27 O         -24.3980  -15.3015  -15.7967 O.3     1  UNL1       -0.4684
     28 C         -23.0938   -7.4957  -14.4501 C.3     1  UNL1        0.0480
     29 C         -22.3555   -7.4167  -13.1287 C.ar    1  UNL1       -0.0221
     30 C         -21.1686   -8.1574  -12.9847 C.ar    1  UNL1       -0.0043
     31 C         -20.4497   -8.1303  -11.7896 C.ar    1  UNL1       -0.0003
     32 C         -20.9020   -7.3610  -10.7199 C.ar    1  UNL1       -0.0003
     33 C         -22.0746   -6.6145  -10.8414 C.ar    1  UNL1       -0.0046
     34 C         -22.8159   -6.6313  -12.0370 C.ar    1  UNL1       -0.0255
     35 C         -24.0669   -5.7957  -12.1262 C.3     1  UNL1        0.0307
@<TRIPOS>BOND
     1    26    27    1
     2    27     1    1
     3     1     2   ar
     4     2     3   ar
     5     3     4   ar
     6     4     5   ar
     7     5     6   ar
     8     6     7    1
     9     5     8    1
    10     8     9    1
    11     9    10    1
    12    10    11    1
    13    11    28    1
    14    28    29    1
    15    29    30   ar
    16    30    31   ar
    17    31    32   ar
    18    32    33   ar
    19    33    34   ar
    20    34    35    1
    21    11    12    2
    22    12    14    1
    23    14    15   ar
    24    15    16   ar
    25    16    20    1
    26    20    21    1
    27    16    17   ar
    28    17    22    1
    29    22    23    1
    30    17    18   ar
    31    18    24    1
    32    24    25    1
    33    18    19   ar
    34     6     1   ar
    35    34    29   ar
    36    19    14   ar
    37    12     4    1
    38     7    13    1
@<TRIPOS>MOLECULE
*****
 35 38 0 0 0
SMALL
GASTEIGER

@<TRIPOS>ATOM
      1 C         -27.7776   -6.1457  -14.0582 C.ar    1  UNL1        0.1718
      2 C         -28.2358   -7.4731  -14.0036 C.ar    1  UNL1        0.0400
      3 C         -27.3875   -8.4987  -13.5912 C.ar    1  UNL1        0.0030
      4 C         -26.0618   -8.2268  -13.2253 C.ar    1  UNL1       -0.0015
      5 C         -25.5770   -6.8988  -13.3073 C.ar    1  UNL1        0.0145
      6 C         -26.4453   -5.8601  -13.7064 C.ar    1  UNL1        0.1636
      7 O         -25.9752   -4.5453  -13.7514 O.3     1  UNL1       -0.5031
      8 C         -24.1298   -6.6106  -12.9673 C.3     1  UNL1        0.0299
      9 C         -23.8519   -6.7402  -11.4607 C.3     1  UNL1        0.0091
     10 C         -24.5216   -7.9535  -10.7893 C.3     1  UNL1        0.0227
     11 C         -24.4275   -9.2167  -11.6282 C.2     1  UNL1       -0.0398
     12 C         -25.1893   -9.3409  -12.7521 C.2     1  UNL1       -0.0076
     13 H         -26.5605   -3.7674  -14.0307 H       1  UNL1        0.2923
     14 C         -25.1320  -10.5498  -13.6003 C.ar    1  UNL1        0.0056
     15 C         -24.5689  -10.4902  -14.8773 C.ar    1  UNL1        0.0402
     16 C         -24.5212  -11.6324  -15.6988 C.ar    1  UNL1        0.1754
     17 C         -25.0401  -12.8597  -15.2078 C.ar    1  UNL1        0.2061
     18 C         -25.5913  -12.9160  -13.9157 C.ar    1  UNL1        0.1754
     19 C         -25.6327  -11.7598  -13.1179 C.ar    1  UNL1        0.0402
     20 O         -23.9693  -11.5665  -16.9879 O.3     1  UNL1       -0.4683
     21 C         -22.5891  -11.7374  -17.2950 C.3     1  UNL1        0.2526
     22 O         -25.0400  -14.0588  -15.9465 O.3     1  UNL1       -0.4654
     23 C         -24.0740  -15.1013  -15.8725 C.3     1  UNL1        0.2528
     24 O         -26.0915  -14.1469  -13.4602 O.3     1  UNL1       -0.4683
     25 C         -26.3498  -14.4596  -12.0951 C.3     1  UNL1        0.2526
     26 C         -29.8686   -5.2553  -15.1105 C.3     1  UNL1        0.2526
     27 O         -28.6142   -5.0905  -14.4569 O.3     1  UNL1       -0.4684
     28 C         -23.4193  -10.2764  -11.2066 C.3     1  UNL1        0.0480
     29 C         -22.0823   -9.6675  -10.8339 C.ar    1  UNL1       -0.0221
     30 C         -21.7655   -9.5431   -9.4692 C.ar    1  UNL1       -0.0043
     31 C         -20.5532   -8.9838   -9.0650 C.ar    1  UNL1       -0.0003
     32 C         -19.6362   -8.5423  -10.0162 C.ar    1  UNL1       -0.0003
     33 C         -19.9271   -8.6597  -11.3759 C.ar    1  UNL1       -0.0046
     34 C         -21.1456   -9.2175  -11.8039 C.ar    1  UNL1       -0.0255
     35 C         -21.4077   -9.3385  -13.2830 C.3     1  UNL1        0.0307
@<TRIPOS>BOND
     1    26    27    1
     2    27     1    1
     3     1     2   ar
     4     2     3   ar
     5     3     4   ar
     6     4     5   ar
     7     5     6   ar
     8     6     7    1
     9     5     8    1
    10     8     9    1
    11     9    10    1
    12    10    11    1
    13    11    28    1
    14    28    29    1
    15    29    30   ar
    16    30    31   ar
    17    31    32   ar
    18    32    33   ar
    19    33    34   ar
    20    34    35    1
    21    11    12    2
    22    12    14    1
    23    14    15   ar
    24    15    16   ar
    25    16    20    1
    26    20    21    1
    27    16    17   ar
    28    17    22    1
    29    22    23    1
    30    17    18   ar
    31    18    24    1
    32    24    25    1
    33    18    19   ar
    34     6     1   ar
    35    34    29   ar
    36    19    14   ar
    37    12     4    1
    38     7    13    1
@<TRIPOS>MOLECULE
*****
 35 38 0 0 0
SMALL
GASTEIGER

@<TRIPOS>ATOM
      1 C         -23.8735   -6.8881  -18.0916 C.ar    1  UNL1        0.1718
      2 C         -23.5582   -6.3995  -16.8122 C.ar    1  UNL1        0.0400
      3 C         -23.2855   -7.2783  -15.7660 C.ar    1  UNL1        0.0030
      4 C         -23.3222   -8.6650  -15.9686 C.ar    1  UNL1       -0.0015
      5 C         -23.6710   -9.1716  -17.2441 C.ar    1  UNL1        0.0145
      6 C         -23.9270   -8.2779  -18.3061 C.ar    1  UNL1        0.1636
      7 O         -24.2350   -8.7800  -19.5729 O.3     1  UNL1       -0.5031
      8 C         -23.7671  -10.6685  -17.4516 C.3     1  UNL1        0.0299
      9 C         -22.3868  -11.3455  -17.4339 C.3     1  UNL1        0.0091
     10 C         -21.4360  -10.8299  -16.3377 C.3     1  UNL1        0.0227
     11 C         -22.1319  -10.6274  -15.0024 C.2     1  UNL1       -0.0398
     12 C         -22.9885   -9.5795  -14.8378 C.2     1  UNL1       -0.0076
     13 H         -24.4255   -8.1785  -20.3651 H       1  UNL1        0.2923
     14 C         -23.6891   -9.3418  -13.5584 C.ar    1  UNL1        0.0056
     15 C         -25.0521   -9.0363  -13.5460 C.ar    1  UNL1        0.0402
     16 C         -25.7264   -8.7949  -12.3341 C.ar    1  UNL1        0.1754
     17 C         -25.0066   -8.8813  -11.1130 C.ar    1  UNL1        0.2061
     18 C         -23.6385   -9.2045  -11.1319 C.ar    1  UNL1        0.1754
     19 C         -22.9873   -9.4348  -12.3558 C.ar    1  UNL1        0.0402
     20 O         -27.0926   -8.4724  -12.3250 O.3     1  UNL1       -0.4683
     21 C         -27.7261   -7.5760  -13.2326 C.3     1  UNL1        0.2526
     22 O         -25.5852   -8.6601   -9.8481 O.3     1  UNL1       -0.4654
     23 C         -26.3573   -9.5878   -9.0940 C.3     1  UNL1        0.2528
     24 O         -22.9584   -9.2858   -9.9057 O.3     1  UNL1       -0.4683
     25 C         -22.1581   -8.2449   -9.3543 C.3     1  UNL1        0.2526
     26 C         -25.4201   -5.4822  -19.4714 C.3     1  UNL1        0.2526
     27 O         -24.1395   -6.0257  -19.1677 O.3     1  UNL1       -0.4684
     28 C         -21.8900  -11.6606  -13.9110 C.3     1  UNL1        0.0480
     29 C         -22.3742  -13.0376  -14.3194 C.ar    1  UNL1       -0.0221
     30 C         -21.4525  -13.9168  -14.9158 C.ar    1  UNL1       -0.0043
     31 C         -21.8415  -15.1942  -15.3194 C.ar    1  UNL1       -0.0003
     32 C         -23.1559  -15.6159  -15.1315 C.ar    1  UNL1       -0.0003
     33 C         -24.0865  -14.7623  -14.5378 C.ar    1  UNL1       -0.0046
     34 C         -23.7150  -13.4690  -14.1273 C.ar    1  UNL1       -0.0255
     35 C         -24.7510  -12.5895  -13.4759 C.3     1  UNL1        0.0307
@<TRIPOS>BOND
     1    26    27    1
     2    27     1    1
     3     1     2   ar
     4     2     3   ar
     5     3     4   ar
     6     4     5   ar
     7     5     6   ar
     8     6     7    1
     9     5     8    1
    10     8     9    1
    11     9    10    1
    12    10    11    1
    13    11    28    1
    14    28    29    1
    15    29    30   ar
    16    30    31   ar
    17    31    32   ar
    18    32    33   ar
    19    33    34   ar
    20    34    35    1
    21    11    12    2
    22    12    14    1
    23    14    15   ar
    24    15    16   ar
    25    16    20    1
    26    20    21    1
    27    16    17   ar
    28    17    22    1
    29    22    23    1
    30    17    18   ar
    31    18    24    1
    32    24    25    1
    33    18    19   ar
    34     6     1   ar
    35    34    29   ar
    36    19    14   ar
    37    12     4    1
    38     7    13    1
