@<TRIPOS>MOLECULE
*****
 46 51 0 0 0
SMALL
GASTEIGER

@<TRIPOS>ATOM
      1 C         -68.8335  -55.4654  -23.9484 C.ar    1  UNL1        0.1319
      2 C         -68.7847  -54.5568  -22.8762 C.ar    1  UNL1        0.0356
      3 C         -67.6257  -53.8119  -22.6529 C.ar    1  UNL1        0.0191
      4 C         -66.5187  -53.9581  -23.5025 C.ar    1  UNL1        0.0702
      5 C         -66.5973  -54.8877  -24.5461 C.ar    1  UNL1        0.1149
      6 N         -67.7360  -55.6023  -24.7445 N.ar    1  UNL1       -0.2279
      7 C         -72.4028  -56.1896  -23.4772 C.3     1  UNL1        0.1386
      8 C         -70.9481  -56.5861  -23.1185 C.3     1  UNL1        0.1217
      9 N         -70.0118  -56.2622  -24.2067 N.pl3   1  UNL1       -0.2908
     10 C         -70.2727  -56.8072  -25.5509 C.3     1  UNL1        0.0925
     11 C         -71.7495  -57.1901  -25.7304 C.3     1  UNL1        0.0277
     12 C         -72.6408  -56.1590  -25.0162 C.3     1  UNL1        0.0743
     13 C         -73.6137  -56.7105  -21.5562 C.3     1  UNL1        0.1741
     14 O         -73.2924  -57.1155  -22.8690 O.3     1  UNL1       -0.3517
     15 C         -74.1283  -56.3489  -25.3835 C.3     1  UNL1        0.2078
     16 O         -74.3363  -56.2016  -26.7896 O.3     1  UNL1       -0.4754
     17 C         -74.6316  -54.9981  -27.4520 C.ar    1  UNL1        0.1388
     18 C         -74.9067  -55.0536  -28.8220 C.ar    1  UNL1        0.0369
     19 C         -75.2115  -53.8913  -29.5314 C.ar    1  UNL1        0.0033
     20 C         -75.2393  -52.6577  -28.8785 C.ar    1  UNL1        0.0066
     21 C         -74.9574  -52.5727  -27.5041 C.ar    1  UNL1        0.0785
     22 C         -74.6683  -53.7522  -26.7926 C.ar    1  UNL1        0.0433
     23 C         -74.9884  -51.2558  -26.8228 C.2     1  UNL1        0.3381
     24 O         -75.1769  -50.2079  -27.4962 O.2     1  UNL1       -0.2451
     25 O         -74.7956  -51.1370  -25.4467 O.3     1  UNL1       -0.4771
     26 H         -74.5330  -51.9210  -24.8633 H       1  UNL1        0.2954
     27 N         -65.2981  -53.2280  -23.2900 N.am    1  UNL1       -0.2766
     28 C         -64.5006  -52.6697  -24.3468 C.2     1  UNL1        0.2839
     29 O         -64.7000  -53.0147  -25.5425 O.2     1  UNL1       -0.2665
     30 H         -64.9271  -53.1731  -22.3144 H       1  UNL1        0.1553
     31 C         -63.4182  -51.7205  -24.0244 C.ar    1  UNL1        0.1946
     32 O         -62.2659  -52.0975  -23.4992 O.2     1  UNL1       -0.4492
     33 C         -61.5295  -51.0262  -23.3325 C.ar    1  UNL1        0.1452
     34 C         -60.2436  -50.9596  -22.8077 C.ar    1  UNL1        0.0375
     35 C         -59.6329  -49.6969  -22.7156 C.ar    1  UNL1        0.0031
     36 C         -60.3123  -48.5257  -23.1471 C.ar    1  UNL1        0.0002
     37 C         -61.6207  -48.6378  -23.6761 C.ar    1  UNL1        0.0028
     38 C         -62.1963  -49.9070  -23.7530 C.ar    1  UNL1        0.0337
     39 C         -63.4299  -50.3330  -24.2072 C.ar    1  UNL1        0.0202
     40 C         -64.5360  -49.4928  -24.7710 C.3     1  UNL1        0.0345
     41 C         -59.6570  -47.1971  -23.0448 C.ar    1  UNL1        0.0000
     42 C         -60.4283  -46.0271  -22.9084 C.ar    1  UNL1        0.0000
     43 C         -59.8086  -44.7774  -22.8122 C.ar    1  UNL1        0.0000
     44 C         -58.4159  -44.6808  -22.8497 C.ar    1  UNL1        0.0000
     45 C         -57.6396  -45.8340  -22.9840 C.ar    1  UNL1        0.0000
     46 C         -58.2539  -47.0863  -23.0815 C.ar    1  UNL1        0.0000
@<TRIPOS>BOND
     1    13    14    1
     2    14     7    1
     3     7     8    1
     4     8     9    1
     5     9     1    1
     6     1     2   ar
     7     2     3   ar
     8     3     4   ar
     9     4    27    1
    10    27    28   am
    11    28    29    2
    12    28    31    1
    13    31    32   ar
    14    32    33   ar
    15    33    34   ar
    16    34    35   ar
    17    35    36   ar
    18    36    41    1
    19    41    42   ar
    20    42    43   ar
    21    43    44   ar
    22    44    45   ar
    23    45    46   ar
    24    36    37   ar
    25    37    38   ar
    26    38    39   ar
    27    39    40    1
    28     4     5   ar
    29     5     6   ar
    30     9    10    1
    31    10    11    1
    32    11    12    1
    33    12    15    1
    34    15    16    1
    35    16    17    1
    36    17    18   ar
    37    18    19   ar
    38    19    20   ar
    39    20    21   ar
    40    21    23    1
    41    23    24    2
    42    23    25    1
    43    21    22   ar
    44    12     7    1
    45    22    17   ar
    46     6     1   ar
    47    39    31   ar
    48    38    33   ar
    49    46    41   ar
    50    27    30    1
    51    25    26    1
@<TRIPOS>MOLECULE
*****
 46 51 0 0 0
SMALL
GASTEIGER

@<TRIPOS>ATOM
      1 C         -68.9294  -55.3872  -24.3465 C.ar    1  UNL1        0.1319
      2 C         -68.9615  -54.4152  -23.3307 C.ar    1  UNL1        0.0356
      3 C         -67.8102  -53.6824  -23.0379 C.ar    1  UNL1        0.0191
      4 C         -66.6296  -53.9042  -23.7629 C.ar    1  UNL1        0.0702
      5 C         -66.6306  -54.8948  -24.7519 C.ar    1  UNL1        0.1149
      6 N         -67.7632  -55.5962  -25.0198 N.ar    1  UNL1       -0.2279
      7 C         -72.5604  -55.9358  -24.3074 C.3     1  UNL1        0.1386
      8 C         -71.1901  -56.3285  -23.6989 C.3     1  UNL1        0.1217
      9 N         -70.0979  -56.1735  -24.6729 N.pl3   1  UNL1       -0.2908
     10 C         -70.1964  -56.8754  -25.9650 C.3     1  UNL1        0.0925
     11 C         -71.6510  -57.2321  -26.3067 C.3     1  UNL1        0.0277
     12 C         -72.5815  -56.0922  -25.8569 C.3     1  UNL1        0.0743
     13 C         -73.7770  -56.3984  -22.3751 C.3     1  UNL1        0.1741
     14 O         -73.5692  -56.7497  -23.7257 O.3     1  UNL1       -0.3517
     15 C         -74.0114  -56.2810  -26.4078 C.3     1  UNL1        0.2078
     16 O         -74.0144  -56.3165  -27.8364 O.3     1  UNL1       -0.4754
     17 C         -74.3055  -55.2326  -28.6818 C.ar    1  UNL1        0.1388
     18 C         -74.9251  -54.1112  -28.1212 C.ar    1  UNL1        0.0369
     19 C         -75.2337  -53.0029  -28.9109 C.ar    1  UNL1        0.0033
     20 C         -74.9304  -53.0060  -30.2735 C.ar    1  UNL1        0.0066
     21 C         -74.3163  -54.1239  -30.8641 C.ar    1  UNL1        0.0785
     22 C         -73.9924  -55.2305  -30.0567 C.ar    1  UNL1        0.0433
     23 C         -74.0011  -54.1153  -32.3132 C.2     1  UNL1        0.3381
     24 O         -73.8046  -55.2036  -32.9166 O.2     1  UNL1       -0.2451
     25 O         -73.8966  -52.9261  -33.0342 O.3     1  UNL1       -0.4771
     26 H         -73.9349  -52.0161  -32.5933 H       1  UNL1        0.2954
     27 N         -65.4164  -53.1882  -23.4738 N.am    1  UNL1       -0.2766
     28 C         -64.5204  -52.6856  -24.4783 C.2     1  UNL1        0.2839
     29 O         -64.6246  -53.0732  -25.6731 O.2     1  UNL1       -0.2665
     30 H         -65.1286  -53.1020  -22.4727 H       1  UNL1        0.1553
     31 C         -63.4496  -51.7439  -24.0997 C.ar    1  UNL1        0.1946
     32 O         -62.3298  -52.1286  -23.5135 O.2     1  UNL1       -0.4492
     33 C         -61.5953  -51.0626  -23.3090 C.ar    1  UNL1        0.1452
     34 C         -60.3388  -51.0047  -22.7165 C.ar    1  UNL1        0.0375
     35 C         -59.7244  -49.7464  -22.5935 C.ar    1  UNL1        0.0031
     36 C         -60.3711  -48.5709  -23.0619 C.ar    1  UNL1        0.0002
     37 C         -61.6502  -48.6741  -23.6598 C.ar    1  UNL1        0.0028
     38 C         -62.2304  -49.9391  -23.7658 C.ar    1  UNL1        0.0337
     39 C         -63.4412  -50.3567  -24.2846 C.ar    1  UNL1        0.0202
     40 C         -64.5093  -49.5092  -24.9076 C.3     1  UNL1        0.0345
     41 C         -59.7122  -47.2471  -22.9264 C.ar    1  UNL1        0.0000
     42 C         -60.4790  -46.0825  -22.7308 C.ar    1  UNL1        0.0000
     43 C         -59.8559  -44.8373  -22.6035 C.ar    1  UNL1        0.0000
     44 C         -58.4643  -44.7398  -22.6684 C.ar    1  UNL1        0.0000
     45 C         -57.6924  -45.8876  -22.8615 C.ar    1  UNL1        0.0000
     46 C         -58.3102  -47.1353  -22.9904 C.ar    1  UNL1        0.0000
@<TRIPOS>BOND
     1    13    14    1
     2    14     7    1
     3     7     8    1
     4     8     9    1
     5     9     1    1
     6     1     2   ar
     7     2     3   ar
     8     3     4   ar
     9     4    27    1
    10    27    28   am
    11    28    29    2
    12    28    31    1
    13    31    32   ar
    14    32    33   ar
    15    33    34   ar
    16    34    35   ar
    17    35    36   ar
    18    36    41    1
    19    41    42   ar
    20    42    43   ar
    21    43    44   ar
    22    44    45   ar
    23    45    46   ar
    24    36    37   ar
    25    37    38   ar
    26    38    39   ar
    27    39    40    1
    28     4     5   ar
    29     5     6   ar
    30     9    10    1
    31    10    11    1
    32    11    12    1
    33    12    15    1
    34    15    16    1
    35    16    17    1
    36    17    18   ar
    37    18    19   ar
    38    19    20   ar
    39    20    21   ar
    40    21    23    1
    41    23    24    2
    42    23    25    1
    43    21    22   ar
    44    12     7    1
    45    22    17   ar
    46     6     1   ar
    47    39    31   ar
    48    38    33   ar
    49    46    41   ar
    50    27    30    1
    51    25    26    1
@<TRIPOS>MOLECULE
*****
 46 51 0 0 0
SMALL
GASTEIGER

@<TRIPOS>ATOM
      1 C         -62.1855  -49.5477  -24.1500 C.ar    1  UNL1        0.1319
      2 C         -62.0136  -50.8344  -23.6095 C.ar    1  UNL1        0.0356
      3 C         -63.0520  -51.7635  -23.6911 C.ar    1  UNL1        0.0191
      4 C         -64.2573  -51.4204  -24.3221 C.ar    1  UNL1        0.0702
      5 C         -64.3988  -50.1234  -24.8292 C.ar    1  UNL1        0.1149
      6 N         -63.3744  -49.2352  -24.7382 N.ar    1  UNL1       -0.2279
      7 C         -61.0128  -46.0752  -24.3809 C.3     1  UNL1        0.1386
      8 C         -61.0703  -47.4652  -25.0641 C.3     1  UNL1        0.1217
      9 N         -61.1377  -48.5544  -24.0768 N.pl3   1  UNL1       -0.2908
     10 C         -60.0891  -48.6405  -23.0449 C.3     1  UNL1        0.0925
     11 C         -59.3880  -47.2899  -22.8351 C.3     1  UNL1        0.0277
     12 C         -60.4174  -46.1514  -22.9436 C.3     1  UNL1        0.0743
     13 C         -61.0375  -44.2161  -25.7849 C.3     1  UNL1        0.1741
     14 O         -60.2287  -45.2033  -25.1832 O.3     1  UNL1       -0.3517
     15 C         -59.8187  -44.8042  -22.4847 C.3     1  UNL1        0.2078
     16 O         -60.5260  -44.2812  -21.3585 O.3     1  UNL1       -0.4754
     17 C         -61.1443  -43.0212  -21.2929 C.ar    1  UNL1        0.1388
     18 C         -60.7424  -42.1450  -20.2798 C.ar    1  UNL1        0.0369
     19 C         -61.3175  -40.8786  -20.1684 C.ar    1  UNL1        0.0033
     20 C         -62.3066  -40.4757  -21.0674 C.ar    1  UNL1        0.0066
     21 C         -62.7356  -41.3403  -22.0891 C.ar    1  UNL1        0.0785
     22 C         -62.1376  -42.6092  -22.2051 C.ar    1  UNL1        0.0433
     23 C         -63.7885  -40.9009  -23.0365 C.2     1  UNL1        0.3381
     24 O         -63.9535  -41.5224  -24.1199 O.2     1  UNL1       -0.2451
     25 O         -64.5999  -39.7980  -22.7716 O.3     1  UNL1       -0.4771
     26 H         -64.4516  -39.1907  -21.9759 H       1  UNL1        0.2954
     27 N         -65.3593  -52.3407  -24.4033 N.am    1  UNL1       -0.2766
     28 C         -65.6034  -53.3891  -23.4516 C.2     1  UNL1        0.2839
     29 O         -64.7089  -53.7189  -22.6272 O.2     1  UNL1       -0.2665
     30 H         -65.9701  -52.2955  -25.2504 H       1  UNL1        0.1553
     31 C         -66.8914  -54.1083  -23.4683 C.ar    1  UNL1        0.1946
     32 O         -67.2192  -54.9714  -24.4135 O.2     1  UNL1       -0.4492
     33 C         -68.4170  -55.4295  -24.1429 C.ar    1  UNL1        0.1452
     34 C         -69.1506  -56.3573  -24.8740 C.ar    1  UNL1        0.0375
     35 C         -70.4267  -56.7097  -24.4016 C.ar    1  UNL1        0.0031
     36 C         -70.9482  -56.1331  -23.2120 C.ar    1  UNL1        0.0002
     37 C         -70.1681  -55.1925  -22.4972 C.ar    1  UNL1        0.0028
     38 C         -68.9056  -54.8661  -22.9948 C.ar    1  UNL1        0.0337
     39 C         -67.9304  -54.0008  -22.5369 C.ar    1  UNL1        0.0202
     40 C         -67.9769  -53.1375  -21.3122 C.3     1  UNL1        0.0345
     41 C         -72.2977  -56.5131  -22.7228 C.ar    1  UNL1        0.0000
     42 C         -72.5341  -56.7006  -21.3475 C.ar    1  UNL1        0.0000
     43 C         -73.8059  -57.0583  -20.8897 C.ar    1  UNL1        0.0000
     44 C         -74.8541  -57.2315  -21.7961 C.ar    1  UNL1        0.0000
     45 C         -74.6328  -57.0479  -23.1627 C.ar    1  UNL1        0.0000
     46 C         -73.3628  -56.6910  -23.6263 C.ar    1  UNL1        0.0000
@<TRIPOS>BOND
     1    13    14    1
     2    14     7    1
     3     7     8    1
     4     8     9    1
     5     9     1    1
     6     1     2   ar
     7     2     3   ar
     8     3     4   ar
     9     4    27    1
    10    27    28   am
    11    28    29    2
    12    28    31    1
    13    31    32   ar
    14    32    33   ar
    15    33    34   ar
    16    34    35   ar
    17    35    36   ar
    18    36    41    1
    19    41    42   ar
    20    42    43   ar
    21    43    44   ar
    22    44    45   ar
    23    45    46   ar
    24    36    37   ar
    25    37    38   ar
    26    38    39   ar
    27    39    40    1
    28     4     5   ar
    29     5     6   ar
    30     9    10    1
    31    10    11    1
    32    11    12    1
    33    12    15    1
    34    15    16    1
    35    16    17    1
    36    17    18   ar
    37    18    19   ar
    38    19    20   ar
    39    20    21   ar
    40    21    23    1
    41    23    24    2
    42    23    25    1
    43    21    22   ar
    44    12     7    1
    45    22    17   ar
    46     6     1   ar
    47    39    31   ar
    48    38    33   ar
    49    46    41   ar
    50    27    30    1
    51    25    26    1
@<TRIPOS>MOLECULE
*****
 46 51 0 0 0
SMALL
GASTEIGER

@<TRIPOS>ATOM
      1 C         -67.0853  -54.9751  -25.2146 C.ar    1  UNL1        0.1319
      2 C         -66.9171  -54.6322  -23.8611 C.ar    1  UNL1        0.0356
      3 C         -65.8876  -53.7660  -23.4897 C.ar    1  UNL1        0.0191
      4 C         -65.0327  -53.2281  -24.4636 C.ar    1  UNL1        0.0702
      5 C         -65.2181  -53.6094  -25.7977 C.ar    1  UNL1        0.1149
      6 N         -66.2271  -54.4544  -26.1362 N.ar    1  UNL1       -0.2279
      7 C         -70.6224  -55.9442  -25.4057 C.3     1  UNL1        0.1386
      8 C         -69.2490  -56.2018  -24.7353 C.3     1  UNL1        0.1217
      9 N         -68.1332  -55.8765  -25.6380 N.pl3   1  UNL1       -0.2908
     10 C         -68.0796  -56.5257  -26.9600 C.3     1  UNL1        0.0925
     11 C         -69.4615  -57.0336  -27.3984 C.3     1  UNL1        0.0277
     12 C         -70.5433  -56.0315  -26.9589 C.3     1  UNL1        0.0743
     13 C         -71.4904  -56.9807  -23.5083 C.3     1  UNL1        0.1741
     14 O         -71.5564  -56.8958  -24.9152 O.3     1  UNL1       -0.3517
     15 C         -71.9097  -56.3604  -27.5980 C.3     1  UNL1        0.2078
     16 O         -71.7481  -57.0831  -28.8202 O.3     1  UNL1       -0.4754
     17 C         -72.1693  -56.6506  -30.0890 C.ar    1  UNL1        0.1388
     18 C         -73.2580  -55.7754  -30.1559 C.ar    1  UNL1        0.0369
     19 C         -73.7175  -55.3086  -31.3880 C.ar    1  UNL1        0.0033
     20 C         -73.0957  -55.7169  -32.5692 C.ar    1  UNL1        0.0066
     21 C         -72.0055  -56.6033  -32.5308 C.ar    1  UNL1        0.0785
     22 C         -71.5372  -57.0553  -31.2828 C.ar    1  UNL1        0.0433
     23 C         -71.3549  -57.0308  -33.7931 C.2     1  UNL1        0.3381
     24 O         -72.0560  -57.2342  -34.8199 O.2     1  UNL1       -0.2451
     25 O         -69.9778  -57.2342  -33.8764 O.3     1  UNL1       -0.4771
     26 H         -69.3710  -57.1945  -33.0676 H       1  UNL1        0.2954
     27 N         -63.9450  -52.3532  -24.1179 N.am    1  UNL1       -0.2766
     28 C         -63.7613  -51.0406  -24.6727 C.2     1  UNL1        0.2839
     29 O         -64.4115  -50.6857  -25.6924 O.2     1  UNL1       -0.2665
     30 H         -63.1994  -52.7284  -23.4888 H       1  UNL1        0.1553
     31 C         -62.7776  -50.1214  -24.0693 C.ar    1  UNL1        0.1946
     32 O         -62.2607  -50.3113  -22.8682 O.2     1  UNL1       -0.4492
     33 C         -61.4305  -49.3264  -22.6267 C.ar    1  UNL1        0.1452
     34 C         -60.6688  -49.1267  -21.4807 C.ar    1  UNL1        0.0375
     35 C         -59.8387  -47.9934  -21.4290 C.ar    1  UNL1        0.0031
     36 C         -59.7822  -47.0815  -22.5174 C.ar    1  UNL1        0.0002
     37 C         -60.5737  -47.3223  -23.6662 C.ar    1  UNL1        0.0028
     38 C         -61.3860  -48.4571  -23.6835 C.ar    1  UNL1        0.0337
     39 C         -62.2560  -48.9528  -24.6357 C.ar    1  UNL1        0.0202
     40 C         -62.5709  -48.3666  -25.9790 C.3     1  UNL1        0.0345
     41 C         -58.9016  -45.8876  -22.4512 C.ar    1  UNL1        0.0000
     42 C         -59.4532  -44.5931  -22.4020 C.ar    1  UNL1        0.0000
     43 C         -58.6216  -43.4708  -22.3398 C.ar    1  UNL1        0.0000
     44 C         -57.2339  -43.6264  -22.3247 C.ar    1  UNL1        0.0000
     45 C         -56.6744  -44.9052  -22.3725 C.ar    1  UNL1        0.0000
     46 C         -57.5010  -46.0311  -22.4357 C.ar    1  UNL1        0.0000
@<TRIPOS>BOND
     1    13    14    1
     2    14     7    1
     3     7     8    1
     4     8     9    1
     5     9     1    1
     6     1     2   ar
     7     2     3   ar
     8     3     4   ar
     9     4    27    1
    10    27    28   am
    11    28    29    2
    12    28    31    1
    13    31    32   ar
    14    32    33   ar
    15    33    34   ar
    16    34    35   ar
    17    35    36   ar
    18    36    41    1
    19    41    42   ar
    20    42    43   ar
    21    43    44   ar
    22    44    45   ar
    23    45    46   ar
    24    36    37   ar
    25    37    38   ar
    26    38    39   ar
    27    39    40    1
    28     4     5   ar
    29     5     6   ar
    30     9    10    1
    31    10    11    1
    32    11    12    1
    33    12    15    1
    34    15    16    1
    35    16    17    1
    36    17    18   ar
    37    18    19   ar
    38    19    20   ar
    39    20    21   ar
    40    21    23    1
    41    23    24    2
    42    23    25    1
    43    21    22   ar
    44    12     7    1
    45    22    17   ar
    46     6     1   ar
    47    39    31   ar
    48    38    33   ar
    49    46    41   ar
    50    27    30    1
    51    25    26    1
@<TRIPOS>MOLECULE
*****
 46 51 0 0 0
SMALL
GASTEIGER

@<TRIPOS>ATOM
      1 C         -61.0834  -42.4929  -22.0827 C.ar    1  UNL1        0.1319
      2 C         -60.6785  -42.0821  -20.8002 C.ar    1  UNL1        0.0356
      3 C         -61.4000  -41.0922  -20.1310 C.ar    1  UNL1        0.0191
      4 C         -62.5327  -40.5192  -20.7288 C.ar    1  UNL1        0.0702
      5 C         -62.8922  -40.9388  -22.0149 C.ar    1  UNL1        0.1149
      6 N         -62.1747  -41.9039  -22.6477 N.ar    1  UNL1       -0.2279
      7 C         -59.2673  -45.6815  -22.2272 C.3     1  UNL1        0.1386
      8 C         -59.1606  -44.1354  -22.2285 C.3     1  UNL1        0.1217
      9 N         -60.3570  -43.5079  -22.8122 N.pl3   1  UNL1       -0.2908
     10 C         -60.7691  -43.8981  -24.1723 C.3     1  UNL1        0.0925
     11 C         -60.2014  -45.2706  -24.5646 C.3     1  UNL1        0.0277
     12 C         -60.2199  -46.2055  -23.3426 C.3     1  UNL1        0.0743
     13 C         -57.0157  -45.2060  -22.5905 C.3     1  UNL1        0.1741
     14 O         -57.9686  -46.2298  -22.4040 O.3     1  UNL1       -0.3517
     15 C         -59.9075  -47.6635  -23.7434 C.3     1  UNL1        0.2078
     16 O         -60.8790  -48.1661  -24.6629 O.3     1  UNL1       -0.4754
     17 C         -61.7804  -49.2140  -24.4103 C.ar    1  UNL1        0.1388
     18 C         -63.0777  -49.1008  -24.9202 C.ar    1  UNL1        0.0369
     19 C         -64.0145  -50.1124  -24.7054 C.ar    1  UNL1        0.0033
     20 C         -63.6653  -51.2480  -23.9724 C.ar    1  UNL1        0.0066
     21 C         -62.3711  -51.3826  -23.4409 C.ar    1  UNL1        0.0785
     22 C         -61.4271  -50.3656  -23.6773 C.ar    1  UNL1        0.0433
     23 C         -62.0134  -52.5931  -22.6624 C.2     1  UNL1        0.3381
     24 O         -60.8619  -52.6966  -22.1617 O.2     1  UNL1       -0.2451
     25 O         -62.9155  -53.6408  -22.4793 O.3     1  UNL1       -0.4771
     26 H         -63.8150  -53.6726  -22.9416 H       1  UNL1        0.2954
     27 N         -63.2866  -39.4790  -20.0826 N.am    1  UNL1       -0.2766
     28 C         -63.1211  -38.0779  -20.3552 C.2     1  UNL1        0.2839
     29 O         -62.1163  -37.6707  -20.9980 O.2     1  UNL1       -0.2665
     30 H         -63.9338  -39.7550  -19.3096 H       1  UNL1        0.1553
     31 C         -64.1108  -37.1104  -19.8444 C.ar    1  UNL1        0.1946
     32 O         -63.7747  -36.0434  -19.1414 O.2     1  UNL1       -0.4492
     33 C         -64.8742  -35.3970  -18.8396 C.ar    1  UNL1        0.1452
     34 C         -64.9872  -34.2198  -18.1084 C.ar    1  UNL1        0.0375
     35 C         -66.2738  -33.6942  -17.8983 C.ar    1  UNL1        0.0031
     36 C         -67.4224  -34.3491  -18.4193 C.ar    1  UNL1        0.0002
     37 C         -67.2631  -35.5456  -19.1589 C.ar    1  UNL1        0.0028
     38 C         -65.9712  -36.0388  -19.3485 C.ar    1  UNL1        0.0337
     39 C         -65.5000  -37.1588  -20.0066 C.ar    1  UNL1        0.0202
     40 C         -66.3018  -38.1963  -20.7333 C.3     1  UNL1        0.0345
     41 C         -68.7766  -33.7844  -18.1907 C.ar    1  UNL1        0.0000
     42 C         -69.9045  -34.3561  -18.8101 C.ar    1  UNL1        0.0000
     43 C         -71.1784  -33.8223  -18.5931 C.ar    1  UNL1        0.0000
     44 C         -71.3418  -32.7158  -17.7569 C.ar    1  UNL1        0.0000
     45 C         -70.2311  -32.1400  -17.1361 C.ar    1  UNL1        0.0000
     46 C         -68.9546  -32.6690  -17.3502 C.ar    1  UNL1        0.0000
@<TRIPOS>BOND
     1    13    14    1
     2    14     7    1
     3     7     8    1
     4     8     9    1
     5     9     1    1
     6     1     2   ar
     7     2     3   ar
     8     3     4   ar
     9     4    27    1
    10    27    28   am
    11    28    29    2
    12    28    31    1
    13    31    32   ar
    14    32    33   ar
    15    33    34   ar
    16    34    35   ar
    17    35    36   ar
    18    36    41    1
    19    41    42   ar
    20    42    43   ar
    21    43    44   ar
    22    44    45   ar
    23    45    46   ar
    24    36    37   ar
    25    37    38   ar
    26    38    39   ar
    27    39    40    1
    28     4     5   ar
    29     5     6   ar
    30     9    10    1
    31    10    11    1
    32    11    12    1
    33    12    15    1
    34    15    16    1
    35    16    17    1
    36    17    18   ar
    37    18    19   ar
    38    19    20   ar
    39    20    21   ar
    40    21    23    1
    41    23    24    2
    42    23    25    1
    43    21    22   ar
    44    12     7    1
    45    22    17   ar
    46     6     1   ar
    47    39    31   ar
    48    38    33   ar
    49    46    41   ar
    50    27    30    1
    51    25    26    1
@<TRIPOS>MOLECULE
*****
 46 51 0 0 0
SMALL
GASTEIGER

@<TRIPOS>ATOM
      1 C         -61.1176  -42.8641  -22.0671 C.ar    1  UNL1        0.1319
      2 C         -60.5638  -42.2707  -20.9187 C.ar    1  UNL1        0.0356
      3 C         -61.2554  -41.2491  -20.2660 C.ar    1  UNL1        0.0191
      4 C         -62.5043  -40.8252  -20.7446 C.ar    1  UNL1        0.0702
      5 C         -63.0132  -41.4250  -21.9026 C.ar    1  UNL1        0.1149
      6 N         -62.3222  -42.4177  -22.5218 N.ar    1  UNL1       -0.2279
      7 C         -59.2038  -45.9979  -22.1214 C.3     1  UNL1        0.1386
      8 C         -59.1569  -44.4555  -22.2655 C.3     1  UNL1        0.1217
      9 N         -60.4278  -43.9179  -22.7768 N.pl3   1  UNL1       -0.2908
     10 C         -60.9561  -44.4394  -24.0500 C.3     1  UNL1        0.0925
     11 C         -60.3775  -45.8239  -24.3790 C.3     1  UNL1        0.0277
     12 C         -60.2404  -46.6468  -23.0861 C.3     1  UNL1        0.0743
     13 C         -56.9699  -45.4785  -22.5309 C.3     1  UNL1        0.1741
     14 O         -57.9086  -46.5211  -22.3810 O.3     1  UNL1       -0.3517
     15 C         -59.9133  -48.1247  -23.3904 C.3     1  UNL1        0.2078
     16 O         -60.6603  -49.0036  -22.5468 O.3     1  UNL1       -0.4754
     17 C         -60.9472  -50.3520  -22.8185 C.ar    1  UNL1        0.1388
     18 C         -59.8796  -51.2542  -22.8612 C.ar    1  UNL1        0.0369
     19 C         -60.1044  -52.6065  -23.1216 C.ar    1  UNL1        0.0033
     20 C         -61.4011  -53.0714  -23.3480 C.ar    1  UNL1        0.0066
     21 C         -62.4909  -52.1841  -23.3201 C.ar    1  UNL1        0.0785
     22 C         -62.2572  -50.8249  -23.0392 C.ar    1  UNL1        0.0433
     23 C         -63.8633  -52.6904  -23.5641 C.2     1  UNL1        0.3381
     24 O         -64.5047  -52.2958  -24.5741 O.2     1  UNL1       -0.2451
     25 O         -64.4807  -53.5863  -22.6917 O.3     1  UNL1       -0.4771
     26 H         -64.0681  -53.8600  -21.8092 H       1  UNL1        0.2954
     27 N         -63.2353  -39.7586  -20.1154 N.am    1  UNL1       -0.2766
     28 C         -63.0306  -38.3654  -20.4013 C.2     1  UNL1        0.2839
     29 O         -62.0107  -37.9918  -21.0406 O.2     1  UNL1       -0.2665
     30 H         -63.8952  -40.0090  -19.3445 H       1  UNL1        0.1553
     31 C         -63.9982  -37.3667  -19.9084 C.ar    1  UNL1        0.1946
     32 O         -63.6356  -36.2809  -19.2486 O.2     1  UNL1       -0.4492
     33 C         -64.7208  -35.6087  -18.9516 C.ar    1  UNL1        0.1452
     34 C         -64.8052  -34.4054  -18.2601 C.ar    1  UNL1        0.0375
     35 C         -66.0808  -33.8544  -18.0474 C.ar    1  UNL1        0.0031
     36 C         -67.2469  -34.5103  -18.5264 C.ar    1  UNL1        0.0002
     37 C         -67.1166  -35.7339  -19.2265 C.ar    1  UNL1        0.0028
     38 C         -65.8350  -36.2519  -19.4198 C.ar    1  UNL1        0.0337
     39 C         -65.3905  -37.4006  -20.0461 C.ar    1  UNL1        0.0202
     40 C         -66.2185  -38.4510  -20.7231 C.3     1  UNL1        0.0345
     41 C         -68.5892  -33.9187  -18.2956 C.ar    1  UNL1        0.0000
     42 C         -69.7295  -34.4686  -18.9118 C.ar    1  UNL1        0.0000
     43 C         -70.9921  -33.9095  -18.6926 C.ar    1  UNL1        0.0000
     44 C         -71.1317  -32.7990  -17.8574 C.ar    1  UNL1        0.0000
     45 C         -70.0085  -32.2446  -17.2397 C.ar    1  UNL1        0.0000
     46 C         -68.7432  -32.7990  -17.4560 C.ar    1  UNL1        0.0000
@<TRIPOS>BOND
     1    13    14    1
     2    14     7    1
     3     7     8    1
     4     8     9    1
     5     9     1    1
     6     1     2   ar
     7     2     3   ar
     8     3     4   ar
     9     4    27    1
    10    27    28   am
    11    28    29    2
    12    28    31    1
    13    31    32   ar
    14    32    33   ar
    15    33    34   ar
    16    34    35   ar
    17    35    36   ar
    18    36    41    1
    19    41    42   ar
    20    42    43   ar
    21    43    44   ar
    22    44    45   ar
    23    45    46   ar
    24    36    37   ar
    25    37    38   ar
    26    38    39   ar
    27    39    40    1
    28     4     5   ar
    29     5     6   ar
    30     9    10    1
    31    10    11    1
    32    11    12    1
    33    12    15    1
    34    15    16    1
    35    16    17    1
    36    17    18   ar
    37    18    19   ar
    38    19    20   ar
    39    20    21   ar
    40    21    23    1
    41    23    24    2
    42    23    25    1
    43    21    22   ar
    44    12     7    1
    45    22    17   ar
    46     6     1   ar
    47    39    31   ar
    48    38    33   ar
    49    46    41   ar
    50    27    30    1
    51    25    26    1
@<TRIPOS>MOLECULE
*****
 46 51 0 0 0
SMALL
GASTEIGER

@<TRIPOS>ATOM
      1 C         -60.9186  -43.2020  -21.1712 C.ar    1  UNL1        0.1319
      2 C         -60.1796  -42.1547  -20.5925 C.ar    1  UNL1        0.0356
      3 C         -60.8455  -41.0461  -20.0675 C.ar    1  UNL1        0.0191
      4 C         -62.2467  -40.9826  -20.1037 C.ar    1  UNL1        0.0702
      5 C         -62.9465  -42.0344  -20.7068 C.ar    1  UNL1        0.1149
      6 N         -62.2771  -43.1038  -21.2118 N.ar    1  UNL1       -0.2279
      7 C         -61.0296  -46.4798  -22.8235 C.3     1  UNL1        0.1386
      8 C         -60.8030  -45.7113  -21.4968 C.3     1  UNL1        0.1217
      9 N         -60.2654  -44.3622  -21.7345 N.pl3   1  UNL1       -0.2908
     10 C         -59.0227  -44.2224  -22.5143 C.3     1  UNL1        0.0925
     11 C         -58.7676  -45.4520  -23.3991 C.3     1  UNL1        0.0277
     12 C         -60.1025  -45.9669  -23.9651 C.3     1  UNL1        0.0743
     13 C         -60.5355  -48.1077  -21.2316 C.3     1  UNL1        0.1741
     14 O         -60.7967  -47.8628  -22.5964 O.3     1  UNL1       -0.3517
     15 C         -59.8775  -47.0313  -25.0607 C.3     1  UNL1        0.2078
     16 O         -60.8237  -46.8887  -26.1220 O.3     1  UNL1       -0.4754
     17 C         -61.9828  -47.6638  -26.2952 C.ar    1  UNL1        0.1388
     18 C         -62.7081  -48.0235  -25.1549 C.ar    1  UNL1        0.0369
     19 C         -63.8700  -48.7881  -25.2658 C.ar    1  UNL1        0.0033
     20 C         -64.3174  -49.2068  -26.5201 C.ar    1  UNL1        0.0066
     21 C         -63.6020  -48.8672  -27.6814 C.ar    1  UNL1        0.0785
     22 C         -62.4408  -48.0808  -27.5620 C.ar    1  UNL1        0.0433
     23 C         -64.0869  -49.3200  -29.0078 C.2     1  UNL1        0.3381
     24 O         -64.4005  -48.4692  -29.8824 O.2     1  UNL1       -0.2451
     25 O         -64.2251  -50.6731  -29.3156 O.3     1  UNL1       -0.4771
     26 H         -64.0954  -51.4045  -28.6285 H       1  UNL1        0.2954
     27 N         -62.9676  -39.8463  -19.5968 N.am    1  UNL1       -0.2766
     28 C         -62.9665  -38.5507  -20.2182 C.2     1  UNL1        0.2839
     29 O         -62.1190  -38.2749  -21.1094 O.2     1  UNL1       -0.2665
     30 H         -63.4530  -39.9483  -18.6768 H       1  UNL1        0.1553
     31 C         -63.9353  -37.5277  -19.7808 C.ar    1  UNL1        0.1946
     32 O         -63.5753  -36.4132  -19.1693 O.2     1  UNL1       -0.4492
     33 C         -64.6610  -35.7252  -18.9133 C.ar    1  UNL1        0.1452
     34 C         -64.7479  -34.4907  -18.2795 C.ar    1  UNL1        0.0375
     35 C         -66.0237  -33.9273  -18.1037 C.ar    1  UNL1        0.0031
     36 C         -67.1876  -34.6021  -18.5616 C.ar    1  UNL1        0.0002
     37 C         -67.0548  -35.8573  -19.2026 C.ar    1  UNL1        0.0028
     38 C         -65.7731  -36.3869  -19.3605 C.ar    1  UNL1        0.0337
     39 C         -65.3265  -37.5647  -19.9286 C.ar    1  UNL1        0.0202
     40 C         -66.1518  -38.6435  -20.5629 C.3     1  UNL1        0.0345
     41 C         -68.5301  -33.9971  -18.3701 C.ar    1  UNL1        0.0000
     42 C         -68.7044  -32.9013  -17.5034 C.ar    1  UNL1        0.0000
     43 C         -69.9697  -32.3336  -17.3250 C.ar    1  UNL1        0.0000
     44 C         -71.0725  -32.8503  -18.0083 C.ar    1  UNL1        0.0000
     45 C         -70.9127  -33.9366  -18.8714 C.ar    1  UNL1        0.0000
     46 C         -69.6499  -34.5089  -19.0529 C.ar    1  UNL1        0.0000
@<TRIPOS>BOND
     1    13    14    1
     2    14     7    1
     3     7     8    1
     4     8     9    1
     5     9     1    1
     6     1     2   ar
     7     2     3   ar
     8     3     4   ar
     9     4    27    1
    10    27    28   am
    11    28    29    2
    12    28    31    1
    13    31    32   ar
    14    32    33   ar
    15    33    34   ar
    16    34    35   ar
    17    35    36   ar
    18    36    41    1
    19    41    42   ar
    20    42    43   ar
    21    43    44   ar
    22    44    45   ar
    23    45    46   ar
    24    36    37   ar
    25    37    38   ar
    26    38    39   ar
    27    39    40    1
    28     4     5   ar
    29     5     6   ar
    30     9    10    1
    31    10    11    1
    32    11    12    1
    33    12    15    1
    34    15    16    1
    35    16    17    1
    36    17    18   ar
    37    18    19   ar
    38    19    20   ar
    39    20    21   ar
    40    21    23    1
    41    23    24    2
    42    23    25    1
    43    21    22   ar
    44    12     7    1
    45    22    17   ar
    46     6     1   ar
    47    39    31   ar
    48    38    33   ar
    49    46    41   ar
    50    27    30    1
    51    25    26    1
@<TRIPOS>MOLECULE
*****
 46 51 0 0 0
SMALL
GASTEIGER

@<TRIPOS>ATOM
      1 C         -61.0653  -43.2588  -21.2985 C.ar    1  UNL1        0.1319
      2 C         -60.3246  -42.2950  -20.5913 C.ar    1  UNL1        0.0356
      3 C         -60.9740  -41.1860  -20.0469 C.ar    1  UNL1        0.0191
      4 C         -62.3619  -41.0398  -20.1921 C.ar    1  UNL1        0.0702
      5 C         -63.0618  -42.0086  -20.9207 C.ar    1  UNL1        0.1149
      6 N         -62.4086  -43.0801  -21.4421 N.ar    1  UNL1       -0.2279
      7 C         -61.2033  -46.4001  -23.1957 C.3     1  UNL1        0.1386
      8 C         -61.0614  -45.7417  -21.7999 C.3     1  UNL1        0.1217
      9 N         -60.4280  -44.4161  -21.8854 N.pl3   1  UNL1       -0.2908
     10 C         -59.1106  -44.3015  -22.5359 C.3     1  UNL1        0.0925
     11 C         -58.8420  -45.4803  -23.4836 C.3     1  UNL1        0.0277
     12 C         -60.1438  -45.8689  -24.2062 C.3     1  UNL1        0.0743
     13 C         -60.7403  -48.1457  -21.7239 C.3     1  UNL1        0.1741
     14 O         -61.0718  -47.8075  -23.0530 O.3     1  UNL1       -0.3517
     15 C         -59.8756  -46.8666  -25.3535 C.3     1  UNL1        0.2078
     16 O         -60.7597  -46.6396  -26.4531 O.3     1  UNL1       -0.4754
     17 C         -60.6230  -45.6277  -27.4183 C.ar    1  UNL1        0.1388
     18 C         -61.1257  -44.3586  -27.1141 C.ar    1  UNL1        0.0369
     19 C         -61.0141  -43.3133  -28.0317 C.ar    1  UNL1        0.0033
     20 C         -60.4022  -43.5274  -29.2681 C.ar    1  UNL1        0.0066
     21 C         -59.8969  -44.7956  -29.6027 C.ar    1  UNL1        0.0785
     22 C         -59.9979  -45.8398  -28.6643 C.ar    1  UNL1        0.0433
     23 C         -59.2509  -45.0104  -30.9203 C.2     1  UNL1        0.3381
     24 O         -59.5264  -44.2464  -31.8835 O.2     1  UNL1       -0.2451
     25 O         -58.3509  -46.0539  -31.1347 O.3     1  UNL1       -0.4771
     26 H         -58.1670  -46.7665  -30.4403 H       1  UNL1        0.2954
     27 N         -63.0630  -39.8987  -19.6683 N.am    1  UNL1       -0.2766
     28 C         -63.0402  -38.5946  -20.2711 C.2     1  UNL1        0.2839
     29 O         -62.1887  -38.3205  -21.1590 O.2     1  UNL1       -0.2665
     30 H         -63.5495  -40.0057  -18.7494 H       1  UNL1        0.1553
     31 C         -63.9913  -37.5616  -19.8182 C.ar    1  UNL1        0.1946
     32 O         -63.6126  -36.4653  -19.1856 O.2     1  UNL1       -0.4492
     33 C         -64.6861  -35.7618  -18.9205 C.ar    1  UNL1        0.1452
     34 C         -64.7521  -34.5375  -18.2647 C.ar    1  UNL1        0.0375
     35 C         -66.0177  -33.9536  -18.0828 C.ar    1  UNL1        0.0031
     36 C         -67.1924  -34.5980  -18.5563 C.ar    1  UNL1        0.0002
     37 C         -67.0809  -35.8437  -19.2195 C.ar    1  UNL1        0.0028
     38 C         -65.8088  -36.3943  -19.3830 C.ar    1  UNL1        0.0337
     39 C         -65.3824  -37.5699  -19.9710 C.ar    1  UNL1        0.0202
     40 C         -66.2255  -38.6214  -20.6273 C.3     1  UNL1        0.0345
     41 C         -68.5240  -33.9715  -18.3580 C.ar    1  UNL1        0.0000
     42 C         -69.6746  -34.5359  -18.9411 C.ar    1  UNL1        0.0000
     43 C         -70.9272  -33.9438  -18.7527 C.ar    1  UNL1        0.0000
     44 C         -71.0463  -32.7856  -17.9816 C.ar    1  UNL1        0.0000
     45 C         -69.9127  -32.2163  -17.3974 C.ar    1  UNL1        0.0000
     46 C         -68.6574  -32.8036  -17.5831 C.ar    1  UNL1        0.0000
@<TRIPOS>BOND
     1    13    14    1
     2    14     7    1
     3     7     8    1
     4     8     9    1
     5     9     1    1
     6     1     2   ar
     7     2     3   ar
     8     3     4   ar
     9     4    27    1
    10    27    28   am
    11    28    29    2
    12    28    31    1
    13    31    32   ar
    14    32    33   ar
    15    33    34   ar
    16    34    35   ar
    17    35    36   ar
    18    36    41    1
    19    41    42   ar
    20    42    43   ar
    21    43    44   ar
    22    44    45   ar
    23    45    46   ar
    24    36    37   ar
    25    37    38   ar
    26    38    39   ar
    27    39    40    1
    28     4     5   ar
    29     5     6   ar
    30     9    10    1
    31    10    11    1
    32    11    12    1
    33    12    15    1
    34    15    16    1
    35    16    17    1
    36    17    18   ar
    37    18    19   ar
    38    19    20   ar
    39    20    21   ar
    40    21    23    1
    41    23    24    2
    42    23    25    1
    43    21    22   ar
    44    12     7    1
    45    22    17   ar
    46     6     1   ar
    47    39    31   ar
    48    38    33   ar
    49    46    41   ar
    50    27    30    1
    51    25    26    1
@<TRIPOS>MOLECULE
*****
 46 51 0 0 0
SMALL
GASTEIGER

@<TRIPOS>ATOM
      1 C         -61.0155  -43.3858  -21.2914 C.ar    1  UNL1        0.1319
      2 C         -60.2649  -42.3995  -20.6270 C.ar    1  UNL1        0.0356
      3 C         -60.9104  -41.2867  -20.0855 C.ar    1  UNL1        0.0191
      4 C         -62.3037  -41.1591  -20.1907 C.ar    1  UNL1        0.0702
      5 C         -63.0141  -42.1506  -20.8776 C.ar    1  UNL1        0.1149
      6 N         -62.3646  -43.2252  -21.3971 N.ar    1  UNL1       -0.2279
      7 C         -61.1763  -46.5759  -23.1035 C.3     1  UNL1        0.1386
      8 C         -60.9909  -45.8802  -21.7310 C.3     1  UNL1        0.1217
      9 N         -60.3829  -44.5478  -21.8741 N.pl3   1  UNL1       -0.2908
     10 C         -59.0937  -44.4297  -22.5784 C.3     1  UNL1        0.0925
     11 C         -58.8431  -45.6278  -23.5065 C.3     1  UNL1        0.0277
     12 C         -60.1655  -46.0543  -24.1676 C.3     1  UNL1        0.0743
     13 C         -60.5695  -48.2719  -21.6260 C.3     1  UNL1        0.1741
     14 O         -61.0165  -47.9771  -22.9313 O.3     1  UNL1       -0.3517
     15 C         -59.9260  -47.0766  -25.2996 C.3     1  UNL1        0.2078
     16 O         -60.0776  -46.4699  -26.5845 O.3     1  UNL1       -0.4754
     17 C         -61.2275  -46.5333  -27.3894 C.ar    1  UNL1        0.1388
     18 C         -61.6089  -45.3791  -28.0809 C.ar    1  UNL1        0.0369
     19 C         -62.7391  -45.3839  -28.8992 C.ar    1  UNL1        0.0033
     20 C         -63.5048  -46.5436  -29.0312 C.ar    1  UNL1        0.0066
     21 C         -63.1491  -47.7146  -28.3399 C.ar    1  UNL1        0.0785
     22 C         -61.9976  -47.7061  -27.5305 C.ar    1  UNL1        0.0433
     23 C         -63.9722  -48.9395  -28.4871 C.2     1  UNL1        0.3381
     24 O         -63.9824  -49.8001  -27.5671 O.2     1  UNL1       -0.2451
     25 O         -64.7305  -49.1805  -29.6325 O.3     1  UNL1       -0.4771
     26 H         -64.6848  -48.5877  -30.4513 H       1  UNL1        0.2954
     27 N         -63.0020  -40.0154  -19.6688 N.am    1  UNL1       -0.2766
     28 C         -62.9339  -38.7003  -20.2437 C.2     1  UNL1        0.2839
     29 O         -62.0465  -38.4251  -21.0955 O.2     1  UNL1       -0.2665
     30 H         -63.5227  -40.1311  -18.7699 H       1  UNL1        0.1553
     31 C         -63.8813  -37.6586  -19.8037 C.ar    1  UNL1        0.1946
     32 O         -63.4982  -36.5536  -19.1889 O.2     1  UNL1       -0.4492
     33 C         -64.5694  -35.8438  -18.9313 C.ar    1  UNL1        0.1452
     34 C         -64.6307  -34.6095  -18.2940 C.ar    1  UNL1        0.0375
     35 C         -65.8944  -34.0201  -18.1169 C.ar    1  UNL1        0.0031
     36 C         -67.0720  -34.6691  -18.5770 C.ar    1  UNL1        0.0002
     37 C         -66.9653  -35.9250  -19.2215 C.ar    1  UNL1        0.0028
     38 C         -65.6949  -36.4808  -19.3806 C.ar    1  UNL1        0.0337
     39 C         -65.2728  -37.6661  -19.9520 C.ar    1  UNL1        0.0202
     40 C         -66.1203  -38.7256  -20.5896 C.3     1  UNL1        0.0345
     41 C         -68.4016  -34.0367  -18.3841 C.ar    1  UNL1        0.0000
     42 C         -69.5403  -34.5523  -19.0322 C.ar    1  UNL1        0.0000
     43 C         -70.7911  -33.9548  -18.8487 C.ar    1  UNL1        0.0000
     44 C         -70.9202  -32.8397  -18.0180 C.ar    1  UNL1        0.0000
     45 C         -69.7985  -32.3191  -17.3690 C.ar    1  UNL1        0.0000
     46 C         -68.5451  -32.9120  -17.5494 C.ar    1  UNL1        0.0000
@<TRIPOS>BOND
     1    13    14    1
     2    14     7    1
     3     7     8    1
     4     8     9    1
     5     9     1    1
     6     1     2   ar
     7     2     3   ar
     8     3     4   ar
     9     4    27    1
    10    27    28   am
    11    28    29    2
    12    28    31    1
    13    31    32   ar
    14    32    33   ar
    15    33    34   ar
    16    34    35   ar
    17    35    36   ar
    18    36    41    1
    19    41    42   ar
    20    42    43   ar
    21    43    44   ar
    22    44    45   ar
    23    45    46   ar
    24    36    37   ar
    25    37    38   ar
    26    38    39   ar
    27    39    40    1
    28     4     5   ar
    29     5     6   ar
    30     9    10    1
    31    10    11    1
    32    11    12    1
    33    12    15    1
    34    15    16    1
    35    16    17    1
    36    17    18   ar
    37    18    19   ar
    38    19    20   ar
    39    20    21   ar
    40    21    23    1
    41    23    24    2
    42    23    25    1
    43    21    22   ar
    44    12     7    1
    45    22    17   ar
    46     6     1   ar
    47    39    31   ar
    48    38    33   ar
    49    46    41   ar
    50    27    30    1
    51    25    26    1
